MODEL 1
REMARK VINA RESULT:      -9.2      0.000      0.000
REMARK  6 active torsions:
REMARK  status: ('A' for Active; 'I' for Inactive)
REMARK    1  A    between atoms: O1_2  and  C2_3 
REMARK    2  A    between atoms: C4_5  and  O2_6 
REMARK    3  A    between atoms: O2_6  and  C5_7 
REMARK    4  A    between atoms: N1_10  and  C8_11 
REMARK    5  A    between atoms: C12_16  and  N2_17 
REMARK    6  A    between atoms: N2_17  and  C13_18 
ROOT
HETATM    1  C2  UNL     1      19.966  -0.439  52.828  1.00  0.00     0.073 A 
HETATM    2  C3  UNL     1      20.909   0.273  52.084  1.00  0.00     0.074 A 
HETATM    3  C4  UNL     1      22.244   0.330  52.406  1.00  0.00     0.088 A 
HETATM    4  C11 UNL     1      22.724  -0.332  53.510  1.00  0.00     0.072 A 
HETATM    5  C12 UNL     1      24.040  -0.263  53.809  1.00  0.00     0.144 A 
HETATM    6  N3  UNL     1      24.446  -0.927  54.894  1.00  0.00    -0.223 NA
HETATM    7  C19 UNL     1      23.594  -1.622  55.643  1.00  0.00     0.236 A 
HETATM    8  N4  UNL     1      22.292  -1.681  55.332  1.00  0.00    -0.241 NA
HETATM    9  C20 UNL     1      21.794  -1.033  54.243  1.00  0.00     0.077 A 
HETATM   10  C21 UNL     1      20.454  -1.109  53.945  1.00  0.00     0.069 A 
ENDROOT
BRANCH   5  11
HETATM   11  N2  UNL     1      25.024   0.434  53.060  1.00  0.00    -0.340 N 
HETATM   12  H15 UNL     1      25.088   1.146  52.310  1.00  0.00     0.167 HD
BRANCH  11  13
HETATM   13  C13 UNL     1      26.424   0.209  53.281  1.00  0.00     0.035 A 
HETATM   14  C14 UNL     1      26.971  -1.031  52.929  1.00  0.00     0.032 A 
HETATM   15  C15 UNL     1      28.311  -1.319  53.083  1.00  0.00     0.046 A 
HETATM   16  C16 UNL     1      29.176  -0.371  53.602  1.00  0.00     0.138 A 
HETATM   17  F1  UNL     1      30.497  -0.607  53.772  1.00  0.00    -0.204 F 
HETATM   18  C17 UNL     1      28.688   0.852  53.959  1.00  0.00     0.074 A 
HETATM   19 CL1  UNL     1      29.712   2.107  54.623  1.00  0.00    -0.081 Cl
HETATM   20  C18 UNL     1      27.367   1.107  53.796  1.00  0.00     0.056 A 
ENDBRANCH  11  13
ENDBRANCH   5  11
BRANCH   3  21
HETATM   21  O2  UNL     1      23.032   1.057  51.594  1.00  0.00    -0.345 OA
BRANCH  21  22
HETATM   22  C5  UNL     1      22.943   2.351  51.124  1.00  0.00     0.132 C 
HETATM   23  C6  UNL     1      24.231   2.782  50.407  1.00  0.00     0.052 C 
HETATM   24  C7  UNL     1      24.094   4.212  49.938  1.00  0.00     0.127 C 
HETATM   25  N1  UNL     1      23.592   5.022  51.033  1.00  0.00    -0.359 N 
HETATM   26  C9  UNL     1      23.755   4.363  52.320  1.00  0.00     0.127 C 
HETATM   27  C10 UNL     1      22.708   3.265  52.333  1.00  0.00     0.052 C 
BRANCH  25  28
HETATM   28  C8  UNL     1      23.004   6.311  50.910  1.00  0.00     0.350 C 
HETATM   29  O3  UNL     1      21.786   6.606  50.817  1.00  0.00    -0.284 OA
ENDBRANCH  25  28
ENDBRANCH  21  22
ENDBRANCH   3  21
BRANCH   1  30
HETATM   30  O1  UNL     1      18.623  -0.517  52.530  1.00  0.00    -0.356 OA
HETATM   31  C1  UNL     1      17.763  -1.321  53.283  1.00  0.00     0.210 C 
ENDBRANCH   1  30
TORSDOF 6
ENDMDL
MODEL 2
REMARK VINA RESULT:      -8.7      3.871      7.742
REMARK  6 active torsions:
REMARK  status: ('A' for Active; 'I' for Inactive)
REMARK    1  A    between atoms: O1_2  and  C2_3 
REMARK    2  A    between atoms: C4_5  and  O2_6 
REMARK    3  A    between atoms: O2_6  and  C5_7 
REMARK    4  A    between atoms: N1_10  and  C8_11 
REMARK    5  A    between atoms: C12_16  and  N2_17 
REMARK    6  A    between atoms: N2_17  and  C13_18 
ROOT
HETATM    1  C2  UNL     1      26.294   4.239  49.449  1.00  0.00     0.073 A 
HETATM    2  C3  UNL     1      26.431   3.291  50.466  1.00  0.00     0.074 A 
HETATM    3  C4  UNL     1      25.385   2.855  51.244  1.00  0.00     0.088 A 
HETATM    4  C11 UNL     1      24.118   3.348  51.049  1.00  0.00     0.072 A 
HETATM    5  C12 UNL     1      23.103   2.907  51.825  1.00  0.00     0.144 A 
HETATM    6  N3  UNL     1      21.895   3.424  51.588  1.00  0.00    -0.223 NA
HETATM    7  C19 UNL     1      21.703   4.330  50.633  1.00  0.00     0.236 A 
HETATM    8  N4  UNL     1      22.719   4.758  49.872  1.00  0.00    -0.241 NA
HETATM    9  C20 UNL     1      23.983   4.283  50.047  1.00  0.00     0.077 A 
HETATM   10  C21 UNL     1      25.010   4.737  49.253  1.00  0.00     0.069 A 
ENDROOT
BRANCH   5  11
HETATM   11  N2  UNL     1      23.209   1.931  52.849  1.00  0.00    -0.340 N 
HETATM   12  H15 UNL     1      23.860   1.645  53.603  1.00  0.00     0.167 HD
BRANCH  11  13
HETATM   13  C13 UNL     1      22.181   0.951  53.052  1.00  0.00     0.035 A 
HETATM   14  C14 UNL     1      22.328   0.024  54.091  1.00  0.00     0.032 A 
HETATM   15  C15 UNL     1      21.375  -0.932  54.371  1.00  0.00     0.046 A 
HETATM   16  C16 UNL     1      20.217  -1.008  53.616  1.00  0.00     0.138 A 
HETATM   17  F1  UNL     1      19.253  -1.928  53.851  1.00  0.00    -0.204 F 
HETATM   18  C17 UNL     1      20.029  -0.126  52.593  1.00  0.00     0.074 A 
HETATM   19 CL1  UNL     1      18.595  -0.152  51.589  1.00  0.00    -0.081 Cl
HETATM   20  C18 UNL     1      20.983   0.804  52.341  1.00  0.00     0.056 A 
ENDBRANCH  11  13
ENDBRANCH   5  11
BRANCH   3  21
HETATM   21  O2  UNL     1      25.672   1.939  52.185  1.00  0.00    -0.345 OA
BRANCH  21  22
HETATM   22  C5  UNL     1      26.614   0.933  52.250  1.00  0.00     0.132 C 
HETATM   23  C6  UNL     1      25.979  -0.415  52.619  1.00  0.00     0.052 C 
HETATM   24  C7  UNL     1      27.053  -1.474  52.705  1.00  0.00     0.127 C 
HETATM   25  N1  UNL     1      28.151  -0.969  53.508  1.00  0.00    -0.359 N 
HETATM   26  C9  UNL     1      27.757   0.178  54.314  1.00  0.00     0.127 C 
HETATM   27  C10 UNL     1      27.633   1.325  53.327  1.00  0.00     0.052 C 
BRANCH  25  28
HETATM   28  C8  UNL     1      29.470  -1.498  53.537  1.00  0.00     0.350 C 
HETATM   29  O3  UNL     1      30.546  -0.899  53.788  1.00  0.00    -0.284 OA
ENDBRANCH  25  28
ENDBRANCH  21  22
ENDBRANCH   3  21
BRANCH   1  30
HETATM   30  O1  UNL     1      27.321   4.694  48.652  1.00  0.00    -0.356 OA
HETATM   31  C1  UNL     1      27.510   6.061  48.431  1.00  0.00     0.210 C 
ENDBRANCH   1  30
TORSDOF 6
ENDMDL
MODEL 3
REMARK VINA RESULT:      -8.7      3.691      5.409
REMARK  6 active torsions:
REMARK  status: ('A' for Active; 'I' for Inactive)
REMARK    1  A    between atoms: O1_2  and  C2_3 
REMARK    2  A    between atoms: C4_5  and  O2_6 
REMARK    3  A    between atoms: O2_6  and  C5_7 
REMARK    4  A    between atoms: N1_10  and  C8_11 
REMARK    5  A    between atoms: C12_16  and  N2_17 
REMARK    6  A    between atoms: N2_17  and  C13_18 
ROOT
HETATM    1  C2  UNL     1      24.519  -0.415  54.409  1.00  0.00     0.073 A 
HETATM    2  C3  UNL     1      23.950   0.029  53.213  1.00  0.00     0.074 A 
HETATM    3  C4  UNL     1      24.590   0.871  52.335  1.00  0.00     0.088 A 
HETATM    4  C11 UNL     1      25.857   1.328  52.604  1.00  0.00     0.072 A 
HETATM    5  C12 UNL     1      26.468   2.156  51.728  1.00  0.00     0.144 A 
HETATM    6  N3  UNL     1      27.698   2.567  52.045  1.00  0.00    -0.223 NA
HETATM    7  C19 UNL     1      28.291   2.178  53.171  1.00  0.00     0.236 A 
HETATM    8  N4  UNL     1      27.673   1.356  54.029  1.00  0.00    -0.241 NA
HETATM    9  C20 UNL     1      26.417   0.891  53.783  1.00  0.00     0.077 A 
HETATM   10  C21 UNL     1      25.803   0.048  54.680  1.00  0.00     0.069 A 
ENDROOT
BRANCH   5  11
HETATM   11  N2  UNL     1      25.923   2.606  50.496  1.00  0.00    -0.340 N 
HETATM   12  H15 UNL     1      25.406   2.234  49.680  1.00  0.00     0.167 HD
BRANCH  11  13
HETATM   13  C13 UNL     1      26.028   3.979  50.095  1.00  0.00     0.035 A 
HETATM   14  C14 UNL     1      26.988   4.331  49.138  1.00  0.00     0.032 A 
HETATM   15  C15 UNL     1      27.136   5.622  48.677  1.00  0.00     0.046 A 
HETATM   16  C16 UNL     1      26.323   6.634  49.157  1.00  0.00     0.138 A 
HETATM   17  F1  UNL     1      26.430   7.915  48.737  1.00  0.00    -0.204 F 
HETATM   18  C17 UNL     1      25.373   6.340  50.091  1.00  0.00     0.074 A 
HETATM   19 CL1  UNL     1      24.304   7.559  50.750  1.00  0.00    -0.081 Cl
HETATM   20  C18 UNL     1      25.250   5.061  50.525  1.00  0.00     0.056 A 
ENDBRANCH  11  13
ENDBRANCH   5  11
BRANCH   3  21
HETATM   21  O2  UNL     1      23.914   1.213  51.223  1.00  0.00    -0.345 OA
BRANCH  21  22
HETATM   22  C5  UNL     1      22.611   1.615  51.012  1.00  0.00     0.132 C 
HETATM   23  C6  UNL     1      22.408   2.145  49.586  1.00  0.00     0.052 C 
HETATM   24  C7  UNL     1      20.977   2.599  49.414  1.00  0.00     0.127 C 
HETATM   25  N1  UNL     1      20.610   3.442  50.538  1.00  0.00    -0.359 N 
HETATM   26  C9  UNL     1      21.777   3.935  51.254  1.00  0.00     0.127 C 
HETATM   27  C10 UNL     1      22.307   2.734  52.016  1.00  0.00     0.052 C 
BRANCH  25  28
HETATM   28  C8  UNL     1      19.285   3.772  50.931  1.00  0.00     0.350 C 
HETATM   29  O3  UNL     1      18.756   3.659  52.065  1.00  0.00    -0.284 OA
ENDBRANCH  25  28
ENDBRANCH  21  22
ENDBRANCH   3  21
BRANCH   1  30
HETATM   30  O1  UNL     1      23.906  -1.259  55.308  1.00  0.00    -0.356 OA
HETATM   31  C1  UNL     1      22.549  -1.576  55.191  1.00  0.00     0.210 C 
ENDBRANCH   1  30
TORSDOF 6
ENDMDL
MODEL 4
REMARK VINA RESULT:      -8.3      4.229      6.642
REMARK  6 active torsions:
REMARK  status: ('A' for Active; 'I' for Inactive)
REMARK    1  A    between atoms: O1_2  and  C2_3 
REMARK    2  A    between atoms: C4_5  and  O2_6 
REMARK    3  A    between atoms: O2_6  and  C5_7 
REMARK    4  A    between atoms: N1_10  and  C8_11 
REMARK    5  A    between atoms: C12_16  and  N2_17 
REMARK    6  A    between atoms: N2_17  and  C13_18 
ROOT
HETATM    1  C2  UNL     1      25.804  -0.200  54.603  1.00  0.00     0.073 A 
HETATM    2  C3  UNL     1      25.497   0.493  53.430  1.00  0.00     0.074 A 
HETATM    3  C4  UNL     1      24.249   0.493  52.854  1.00  0.00     0.088 A 
HETATM    4  C11 UNL     1      23.217  -0.211  53.424  1.00  0.00     0.072 A 
HETATM    5  C12 UNL     1      21.998  -0.199  52.841  1.00  0.00     0.144 A 
HETATM    6  N3  UNL     1      21.035  -0.902  53.442  1.00  0.00    -0.223 NA
HETATM    7  C19 UNL     1      21.268  -1.583  54.562  1.00  0.00     0.236 A 
HETATM    8  N4  UNL     1      22.483  -1.585  55.128  1.00  0.00    -0.241 NA
HETATM    9  C20 UNL     1      23.521  -0.895  54.580  1.00  0.00     0.077 A 
HETATM   10  C21 UNL     1      24.758  -0.913  55.180  1.00  0.00     0.069 A 
ENDROOT
BRANCH   5  11
HETATM   11  N2  UNL     1      21.651   0.513  51.663  1.00  0.00    -0.340 N 
HETATM   12  H15 UNL     1      22.088   0.847  50.785  1.00  0.00     0.167 HD
BRANCH  11  13
HETATM   13  C13 UNL     1      20.317   0.996  51.451  1.00  0.00     0.035 A 
HETATM   14  C14 UNL     1      19.973   2.263  51.938  1.00  0.00     0.032 A 
HETATM   15  C15 UNL     1      18.722   2.812  51.753  1.00  0.00     0.046 A 
HETATM   16  C16 UNL     1      17.744   2.112  51.067  1.00  0.00     0.138 A 
HETATM   17  F1  UNL     1      16.502   2.608  50.861  1.00  0.00    -0.204 F 
HETATM   18  C17 UNL     1      18.033   0.874  50.574  1.00  0.00     0.074 A 
HETATM   19 CL1  UNL     1      16.855  -0.078  49.695  1.00  0.00    -0.081 Cl
HETATM   20  C18 UNL     1      19.271   0.359  50.770  1.00  0.00     0.056 A 
ENDBRANCH  11  13
ENDBRANCH   5  11
BRANCH   3  21
HETATM   21  O2  UNL     1      24.105   1.207  51.723  1.00  0.00    -0.345 OA
BRANCH  21  22
HETATM   22  C5  UNL     1      24.259   2.549  51.443  1.00  0.00     0.132 C 
HETATM   23  C6  UNL     1      23.460   3.425  52.419  1.00  0.00     0.052 C 
HETATM   24  C7  UNL     1      23.638   4.880  52.054  1.00  0.00     0.127 C 
HETATM   25  N1  UNL     1      23.423   5.039  50.626  1.00  0.00    -0.359 N 
HETATM   26  C9  UNL     1      22.720   3.902  50.051  1.00  0.00     0.127 C 
HETATM   27  C10 UNL     1      23.746   2.784  50.017  1.00  0.00     0.052 C 
BRANCH  25  28
HETATM   28  C8  UNL     1      23.833   6.153  49.844  1.00  0.00     0.350 C 
HETATM   29  O3  UNL     1      24.961   6.379  49.339  1.00  0.00    -0.284 OA
ENDBRANCH  25  28
ENDBRANCH  21  22
ENDBRANCH   3  21
BRANCH   1  30
HETATM   30  O1  UNL     1      27.042  -0.219  55.206  1.00  0.00    -0.356 OA
HETATM   31  C1  UNL     1      28.209  -0.003  54.466  1.00  0.00     0.210 C 
ENDBRANCH   1  30
TORSDOF 6
ENDMDL
MODEL 5
REMARK VINA RESULT:      -8.2      1.994      5.767
REMARK  6 active torsions:
REMARK  status: ('A' for Active; 'I' for Inactive)
REMARK    1  A    between atoms: O1_2  and  C2_3 
REMARK    2  A    between atoms: C4_5  and  O2_6 
REMARK    3  A    between atoms: O2_6  and  C5_7 
REMARK    4  A    between atoms: N1_10  and  C8_11 
REMARK    5  A    between atoms: C12_16  and  N2_17 
REMARK    6  A    between atoms: N2_17  and  C13_18 
ROOT
HETATM    1  C2  UNL     1      22.848   5.997  51.128  1.00  0.00     0.073 A 
HETATM    2  C3  UNL     1      22.667   4.783  51.793  1.00  0.00     0.074 A 
HETATM    3  C4  UNL     1      23.546   3.730  51.704  1.00  0.00     0.088 A 
HETATM    4  C11 UNL     1      24.677   3.828  50.932  1.00  0.00     0.072 A 
HETATM    5  C12 UNL     1      25.528   2.781  50.857  1.00  0.00     0.144 A 
HETATM    6  N3  UNL     1      26.609   2.937  50.090  1.00  0.00    -0.223 NA
HETATM    7  C19 UNL     1      26.836   4.071  49.431  1.00  0.00     0.236 A 
HETATM    8  N4  UNL     1      25.983   5.100  49.516  1.00  0.00    -0.241 NA
HETATM    9  C20 UNL     1      24.855   5.025  50.275  1.00  0.00     0.077 A 
HETATM   10  C21 UNL     1      23.995   6.096  50.346  1.00  0.00     0.069 A 
ENDROOT
BRANCH   5  11
HETATM   11  N2  UNL     1      25.380   1.545  51.539  1.00  0.00    -0.340 N 
HETATM   12  H15 UNL     1      24.661   0.818  51.710  1.00  0.00     0.167 HD
BRANCH  11  13
HETATM   13  C13 UNL     1      26.468   0.966  52.274  1.00  0.00     0.035 A 
HETATM   14  C14 UNL     1      27.226   1.789  53.116  1.00  0.00     0.032 A 
HETATM   15  C15 UNL     1      28.270   1.308  53.878  1.00  0.00     0.046 A 
HETATM   16  C16 UNL     1      28.610  -0.033  53.832  1.00  0.00     0.138 A 
HETATM   17  F1  UNL     1      29.626  -0.551  54.559  1.00  0.00    -0.204 F 
HETATM   18  C17 UNL     1      27.900  -0.874  53.026  1.00  0.00     0.074 A 
HETATM   19 CL1  UNL     1      28.264  -2.582  52.909  1.00  0.00    -0.081 Cl
HETATM   20  C18 UNL     1      26.879  -0.373  52.289  1.00  0.00     0.056 A 
ENDBRANCH  11  13
ENDBRANCH   5  11
BRANCH   3  21
HETATM   21  O2  UNL     1      23.236   2.623  52.403  1.00  0.00    -0.345 OA
BRANCH  21  22
HETATM   22  C5  UNL     1      22.044   1.966  52.626  1.00  0.00     0.132 C 
HETATM   23  C6  UNL     1      22.263   0.622  53.336  1.00  0.00     0.052 C 
HETATM   24  C7  UNL     1      20.934  -0.070  53.531  1.00  0.00     0.127 C 
HETATM   25  N1  UNL     1      20.201  -0.046  52.278  1.00  0.00    -0.359 N 
HETATM   26  C9  UNL     1      21.067   0.238  51.144  1.00  0.00     0.127 C 
HETATM   27  C10 UNL     1      21.393   1.715  51.260  1.00  0.00     0.052 C 
BRANCH  25  28
HETATM   28  C8  UNL     1      18.804  -0.267  52.129  1.00  0.00     0.350 C 
HETATM   29  O3  UNL     1      18.072  -1.077  52.751  1.00  0.00    -0.284 OA
ENDBRANCH  25  28
ENDBRANCH  21  22
ENDBRANCH   3  21
BRANCH   1  30
HETATM   30  O1  UNL     1      21.989   7.071  51.198  1.00  0.00    -0.356 OA
HETATM   31  C1  UNL     1      21.265   7.490  50.078  1.00  0.00     0.210 C 
ENDBRANCH   1  30
TORSDOF 6
ENDMDL
MODEL 6
REMARK VINA RESULT:      -8.1      2.266      2.928
REMARK  6 active torsions:
REMARK  status: ('A' for Active; 'I' for Inactive)
REMARK    1  A    between atoms: O1_2  and  C2_3 
REMARK    2  A    between atoms: C4_5  and  O2_6 
REMARK    3  A    between atoms: O2_6  and  C5_7 
REMARK    4  A    between atoms: N1_10  and  C8_11 
REMARK    5  A    between atoms: C12_16  and  N2_17 
REMARK    6  A    between atoms: N2_17  and  C13_18 
ROOT
HETATM    1  C2  UNL     1      20.614   1.261  50.490  1.00  0.00     0.073 A 
HETATM    2  C3  UNL     1      21.820   1.875  50.146  1.00  0.00     0.074 A 
HETATM    3  C4  UNL     1      22.992   1.690  50.841  1.00  0.00     0.088 A 
HETATM    4  C11 UNL     1      23.029   0.866  51.939  1.00  0.00     0.072 A 
HETATM    5  C12 UNL     1      24.190   0.697  52.608  1.00  0.00     0.144 A 
HETATM    6  N3  UNL     1      24.163  -0.116  53.667  1.00  0.00    -0.223 NA
HETATM    7  C19 UNL     1      23.044  -0.729  54.043  1.00  0.00     0.236 A 
HETATM    8  N4  UNL     1      21.900  -0.552  53.369  1.00  0.00    -0.241 NA
HETATM    9  C20 UNL     1      21.839   0.260  52.278  1.00  0.00     0.077 A 
HETATM   10  C21 UNL     1      20.653   0.426  51.602  1.00  0.00     0.069 A 
ENDROOT
BRANCH   5  11
HETATM   11  N2  UNL     1      25.434   1.291  52.270  1.00  0.00    -0.340 N 
HETATM   12  H15 UNL     1      25.804   2.111  51.755  1.00  0.00     0.167 HD
BRANCH  11  13
HETATM   13  C13 UNL     1      26.676   0.710  52.693  1.00  0.00     0.035 A 
HETATM   14  C14 UNL     1      27.650   1.539  53.263  1.00  0.00     0.032 A 
HETATM   15  C15 UNL     1      28.857   1.056  53.721  1.00  0.00     0.046 A 
HETATM   16  C16 UNL     1      29.152  -0.293  53.628  1.00  0.00     0.138 A 
HETATM   17  F1  UNL     1      30.323  -0.814  54.062  1.00  0.00    -0.204 F 
HETATM   18  C17 UNL     1      28.235  -1.140  53.080  1.00  0.00     0.074 A 
HETATM   19 CL1  UNL     1      28.527  -2.859  52.924  1.00  0.00    -0.081 Cl
HETATM   20  C18 UNL     1      27.056  -0.637  52.639  1.00  0.00     0.056 A 
ENDBRANCH  11  13
ENDBRANCH   5  11
BRANCH   3  21
HETATM   21  O2  UNL     1      24.073   2.351  50.391  1.00  0.00    -0.345 OA
BRANCH  21  22
HETATM   22  C5  UNL     1      24.353   3.695  50.251  1.00  0.00     0.132 C 
HETATM   23  C6  UNL     1      23.908   4.224  48.880  1.00  0.00     0.052 C 
HETATM   24  C7  UNL     1      24.261   5.689  48.765  1.00  0.00     0.127 C 
HETATM   25  N1  UNL     1      25.640   5.877  49.181  1.00  0.00    -0.359 N 
HETATM   26  C9  UNL     1      26.385   4.627  49.183  1.00  0.00     0.127 C 
HETATM   27  C10 UNL     1      25.870   3.867  50.392  1.00  0.00     0.052 C 
BRANCH  25  28
HETATM   28  C8  UNL     1      26.234   7.114  49.550  1.00  0.00     0.350 C 
HETATM   29  O3  UNL     1      27.298   7.627  49.121  1.00  0.00    -0.284 OA
ENDBRANCH  25  28
ENDBRANCH  21  22
ENDBRANCH   3  21
BRANCH   1  30
HETATM   30  O1  UNL     1      19.426   1.425  49.814  1.00  0.00    -0.356 OA
HETATM   31  C1  UNL     1      19.265   2.446  48.873  1.00  0.00     0.210 C 
ENDBRANCH   1  30
TORSDOF 6
ENDMDL
MODEL 7
REMARK VINA RESULT:      -7.5      4.035      6.633
REMARK  6 active torsions:
REMARK  status: ('A' for Active; 'I' for Inactive)
REMARK    1  A    between atoms: O1_2  and  C2_3 
REMARK    2  A    between atoms: C4_5  and  O2_6 
REMARK    3  A    between atoms: O2_6  and  C5_7 
REMARK    4  A    between atoms: N1_10  and  C8_11 
REMARK    5  A    between atoms: C12_16  and  N2_17 
REMARK    6  A    between atoms: N2_17  and  C13_18 
ROOT
HETATM    1  C2  UNL     1      26.413   0.416  53.126  1.00  0.00     0.073 A 
HETATM    2  C3  UNL     1      25.430   1.182  52.496  1.00  0.00     0.074 A 
HETATM    3  C4  UNL     1      24.089   1.080  52.782  1.00  0.00     0.088 A 
HETATM    4  C11 UNL     1      23.643   0.193  53.731  1.00  0.00     0.072 A 
HETATM    5  C12 UNL     1      22.321   0.109  53.996  1.00  0.00     0.144 A 
HETATM    6  N3  UNL     1      21.949  -0.771  54.928  1.00  0.00    -0.223 NA
HETATM    7  C19 UNL     1      22.840  -1.529  55.563  1.00  0.00     0.236 A 
HETATM    8  N4  UNL     1      24.148  -1.434  55.288  1.00  0.00    -0.241 NA
HETATM    9  C20 UNL     1      24.613  -0.562  54.352  1.00  0.00     0.077 A 
HETATM   10  C21 UNL     1      25.960  -0.482  54.088  1.00  0.00     0.069 A 
ENDROOT
BRANCH   5  11
HETATM   11  N2  UNL     1      21.303   0.889  53.387  1.00  0.00    -0.340 N 
HETATM   12  H15 UNL     1      21.126   1.867  53.094  1.00  0.00     0.167 HD
BRANCH  11  13
HETATM   13  C13 UNL     1      20.059   0.301  52.981  1.00  0.00     0.035 A 
HETATM   14  C14 UNL     1      19.328   0.910  51.954  1.00  0.00     0.032 A 
HETATM   15  C15 UNL     1      18.138   0.395  51.485  1.00  0.00     0.046 A 
HETATM   16  C16 UNL     1      17.616  -0.766  52.029  1.00  0.00     0.138 A 
HETATM   17  F1  UNL     1      16.452  -1.309  51.603  1.00  0.00    -0.204 F 
HETATM   18  C17 UNL     1      18.293  -1.396  53.032  1.00  0.00     0.074 A 
HETATM   19 CL1  UNL     1      17.703  -2.867  53.774  1.00  0.00    -0.081 Cl
HETATM   20  C18 UNL     1      19.460  -0.866  53.472  1.00  0.00     0.056 A 
ENDBRANCH  11  13
ENDBRANCH   5  11
BRANCH   3  21
HETATM   21  O2  UNL     1      23.261   1.884  52.091  1.00  0.00    -0.345 OA
BRANCH  21  22
HETATM   22  C5  UNL     1      23.340   2.441  50.831  1.00  0.00     0.132 C 
HETATM   23  C6  UNL     1      23.545   3.961  50.897  1.00  0.00     0.052 C 
HETATM   24  C7  UNL     1      23.595   4.526  49.496  1.00  0.00     0.127 C 
HETATM   25  N1  UNL     1      22.480   3.997  48.733  1.00  0.00    -0.359 N 
HETATM   26  C9  UNL     1      21.444   3.443  49.592  1.00  0.00     0.127 C 
HETATM   27  C10 UNL     1      22.021   2.139  50.110  1.00  0.00     0.052 C 
BRANCH  25  28
HETATM   28  C8  UNL     1      22.369   3.998  47.315  1.00  0.00     0.350 C 
HETATM   29  O3  UNL     1      21.616   3.299  46.591  1.00  0.00    -0.284 OA
ENDBRANCH  25  28
ENDBRANCH  21  22
ENDBRANCH   3  21
BRANCH   1  30
HETATM   30  O1  UNL     1      27.763   0.495  52.864  1.00  0.00    -0.356 OA
HETATM   31  C1  UNL     1      28.632  -0.533  53.239  1.00  0.00     0.210 C 
ENDBRANCH   1  30
TORSDOF 6
ENDMDL
MODEL 8
REMARK VINA RESULT:      -7.4      4.070      7.849
REMARK  6 active torsions:
REMARK  status: ('A' for Active; 'I' for Inactive)
REMARK    1  A    between atoms: O1_2  and  C2_3 
REMARK    2  A    between atoms: C4_5  and  O2_6 
REMARK    3  A    between atoms: O2_6  and  C5_7 
REMARK    4  A    between atoms: N1_10  and  C8_11 
REMARK    5  A    between atoms: C12_16  and  N2_17 
REMARK    6  A    between atoms: N2_17  and  C13_18 
ROOT
HETATM    1  C2  UNL     1      26.455   1.605  53.751  1.00  0.00     0.073 A 
HETATM    2  C3  UNL     1      25.063   1.679  53.685  1.00  0.00     0.074 A 
HETATM    3  C4  UNL     1      24.379   2.186  52.605  1.00  0.00     0.088 A 
HETATM    4  C11 UNL     1      25.059   2.657  51.508  1.00  0.00     0.072 A 
HETATM    5  C12 UNL     1      24.368   3.152  50.458  1.00  0.00     0.144 A 
HETATM    6  N3  UNL     1      25.084   3.596  49.422  1.00  0.00    -0.223 NA
HETATM    7  C19 UNL     1      26.414   3.552  49.427  1.00  0.00     0.236 A 
HETATM    8  N4  UNL     1      27.084   3.058  50.476  1.00  0.00    -0.241 NA
HETATM    9  C20 UNL     1      26.432   2.585  51.574  1.00  0.00     0.077 A 
HETATM   10  C21 UNL     1      27.142   2.082  52.639  1.00  0.00     0.069 A 
ENDROOT
BRANCH   5  11
HETATM   11  N2  UNL     1      22.954   3.220  50.355  1.00  0.00    -0.340 N 
HETATM   12  H15 UNL     1      22.133   2.589  50.330  1.00  0.00     0.167 HD
BRANCH  11  13
HETATM   13  C13 UNL     1      22.276   4.480  50.244  1.00  0.00     0.035 A 
HETATM   14  C14 UNL     1      22.565   5.485  51.175  1.00  0.00     0.032 A 
HETATM   15  C15 UNL     1      21.979   6.732  51.124  1.00  0.00     0.046 A 
HETATM   16  C16 UNL     1      21.065   7.036  50.129  1.00  0.00     0.138 A 
HETATM   17  F1  UNL     1      20.463   8.244  50.037  1.00  0.00    -0.204 F 
HETATM   18  C17 UNL     1      20.752   6.088  49.199  1.00  0.00     0.074 A 
HETATM   19 CL1  UNL     1      19.608   6.389  47.909  1.00  0.00    -0.081 Cl
HETATM   20  C18 UNL     1      21.344   4.871  49.274  1.00  0.00     0.056 A 
ENDBRANCH  11  13
ENDBRANCH   5  11
BRANCH   3  21
HETATM   21  O2  UNL     1      23.037   2.193  52.688  1.00  0.00    -0.345 OA
BRANCH  21  22
HETATM   22  C5  UNL     1      22.130   1.279  53.183  1.00  0.00     0.132 C 
HETATM   23  C6  UNL     1      22.499  -0.157  52.785  1.00  0.00     0.052 C 
HETATM   24  C7  UNL     1      21.462  -1.114  53.325  1.00  0.00     0.127 C 
HETATM   25  N1  UNL     1      20.140  -0.611  53.000  1.00  0.00    -0.359 N 
HETATM   26  C9  UNL     1      20.180   0.387  51.942  1.00  0.00     0.127 C 
HETATM   27  C10 UNL     1      20.756   1.629  52.596  1.00  0.00     0.052 C 
BRANCH  25  28
HETATM   28  C8  UNL     1      18.923  -1.015  53.616  1.00  0.00     0.350 C 
HETATM   29  O3  UNL     1      18.408  -2.160  53.648  1.00  0.00    -0.284 OA
ENDBRANCH  25  28
ENDBRANCH  21  22
ENDBRANCH   3  21
BRANCH   1  30
HETATM   30  O1  UNL     1      27.169   1.102  54.816  1.00  0.00    -0.356 OA
HETATM   31  C1  UNL     1      28.292   0.294  54.615  1.00  0.00     0.210 C 
ENDBRANCH   1  30
TORSDOF 6
ENDMDL
MODEL 9
REMARK VINA RESULT:      -7.3      3.196      6.434
REMARK  6 active torsions:
REMARK  status: ('A' for Active; 'I' for Inactive)
REMARK    1  A    between atoms: O1_2  and  C2_3 
REMARK    2  A    between atoms: C4_5  and  O2_6 
REMARK    3  A    between atoms: O2_6  and  C5_7 
REMARK    4  A    between atoms: N1_10  and  C8_11 
REMARK    5  A    between atoms: C12_16  and  N2_17 
REMARK    6  A    between atoms: N2_17  and  C13_18 
ROOT
HETATM    1  C2  UNL     1      23.808   7.387  49.801  1.00  0.00     0.073 A 
HETATM    2  C3  UNL     1      23.210   6.265  50.377  1.00  0.00     0.074 A 
HETATM    3  C4  UNL     1      23.810   5.029  50.431  1.00  0.00     0.088 A 
HETATM    4  C11 UNL     1      25.063   4.838  49.902  1.00  0.00     0.072 A 
HETATM    5  C12 UNL     1      25.634   3.615  49.965  1.00  0.00     0.144 A 
HETATM    6  N3  UNL     1      26.852   3.491  49.434  1.00  0.00    -0.223 NA
HETATM    7  C19 UNL     1      27.472   4.525  48.870  1.00  0.00     0.236 A 
HETATM    8  N4  UNL     1      26.893   5.731  48.816  1.00  0.00    -0.241 NA
HETATM    9  C20 UNL     1      25.651   5.944  49.333  1.00  0.00     0.077 A 
HETATM   10  C21 UNL     1      25.078   7.192  49.266  1.00  0.00     0.069 A 
ENDROOT
BRANCH   5  11
HETATM   11  N2  UNL     1      25.059   2.462  50.563  1.00  0.00    -0.340 N 
HETATM   12  H15 UNL     1      24.251   1.827  50.437  1.00  0.00     0.167 HD
BRANCH  11  13
HETATM   13  C13 UNL     1      25.655   1.847  51.714  1.00  0.00     0.035 A 
HETATM   14  C14 UNL     1      25.592   2.514  52.944  1.00  0.00     0.032 A 
HETATM   15  C15 UNL     1      26.115   1.981  54.103  1.00  0.00     0.046 A 
HETATM   16  C16 UNL     1      26.733   0.743  54.087  1.00  0.00     0.138 A 
HETATM   17  F1  UNL     1      27.261   0.178  55.198  1.00  0.00    -0.204 F 
HETATM   18  C17 UNL     1      26.818   0.055  52.913  1.00  0.00     0.074 A 
HETATM   19 CL1  UNL     1      27.583  -1.516  52.805  1.00  0.00    -0.081 Cl
HETATM   20  C18 UNL     1      26.295   0.604  51.789  1.00  0.00     0.056 A 
ENDBRANCH  11  13
ENDBRANCH   5  11
BRANCH   3  21
HETATM   21  O2  UNL     1      23.109   4.042  51.018  1.00  0.00    -0.345 OA
BRANCH  21  22
HETATM   22  C5  UNL     1      21.758   3.767  51.078  1.00  0.00     0.132 C 
HETATM   23  C6  UNL     1      21.426   2.814  52.235  1.00  0.00     0.052 C 
HETATM   24  C7  UNL     1      19.944   2.522  52.240  1.00  0.00     0.127 C 
HETATM   25  N1  UNL     1      19.527   2.170  50.895  1.00  0.00    -0.359 N 
HETATM   26  C9  UNL     1      20.654   1.801  50.053  1.00  0.00     0.127 C 
HETATM   27  C10 UNL     1      21.362   3.109  49.751  1.00  0.00     0.052 C 
BRANCH  25  28
HETATM   28  C8  UNL     1      18.189   2.172  50.414  1.00  0.00     0.350 C 
HETATM   29  O3  UNL     1      17.763   1.797  49.292  1.00  0.00    -0.284 OA
ENDBRANCH  25  28
ENDBRANCH  21  22
ENDBRANCH   3  21
BRANCH   1  30
HETATM   30  O1  UNL     1      23.235   8.638  49.733  1.00  0.00    -0.356 OA
HETATM   31  C1  UNL     1      21.923   8.808  49.283  1.00  0.00     0.210 C 
ENDBRANCH   1  30
TORSDOF 6
ENDMDL
