MODEL 1
REMARK VINA RESULT:      -8.7      0.000      0.000
REMARK  3 active torsions:
REMARK  status: ('A' for Active; 'I' for Inactive)
REMARK    1  A    between atoms: C9_12  and  C10_13 
REMARK    2  A    between atoms: C10_13  and  C11_14 
REMARK    3  A    between atoms: C11_14  and  C12_15 
ROOT
HETATM    1  C1  UNL     1      27.878  -1.427  52.910  1.00  0.00     0.048 C 
HETATM    2  C2  UNL     1      26.640  -0.576  52.907  1.00  0.00    -0.061 C 
HETATM    3  C3  UNL     1      26.591   0.336  51.964  1.00  0.00     0.009 C 
HETATM    4  C4  UNL     1      25.461   1.274  51.789  1.00  0.00     0.031 C 
HETATM    5  C5  UNL     1      24.201   1.360  52.274  1.00  0.00     0.052 C 
HETATM    6  C6  UNL     1      23.534   2.571  51.711  1.00  0.00     0.147 C 
HETATM    7  N1  UNL     1      23.434   3.732  52.285  1.00  0.00    -0.252 NA
HETATM    8  C7  UNL     1      22.761   4.840  51.640  1.00  0.00     0.234 C 
HETATM    9  N2  UNL     1      21.451   4.976  51.519  1.00  0.00    -0.235 NA
HETATM   10  C8  UNL     1      20.611   3.949  52.072  1.00  0.00     0.234 C 
HETATM   11  N3  UNL     1      19.916   2.925  52.545  1.00  0.00    -0.247 NA
HETATM   12  C9  UNL     1      20.337   1.581  52.440  1.00  0.00     0.034 C 
HETATM   13  C18 UNL     1      21.368   1.140  53.134  1.00  0.00     0.020 C 
HETATM   14  C19 UNL     1      22.284   0.001  53.498  1.00  0.00     0.158 C 
HETATM   15  N4  UNL     1      23.643   0.394  53.171  1.00  0.00    -0.352 N 
HETATM   16  C20 UNL     1      24.404  -0.472  54.033  1.00  0.00     0.092 C 
HETATM   17  C21 UNL     1      25.677  -0.917  53.971  1.00  0.00     0.024 C 
ENDROOT
BRANCH  12  18
HETATM   18  C10 UNL     1      19.925   0.397  51.702  1.00  0.00     0.063 C 
BRANCH  18  19
HETATM   19  C11 UNL     1      18.404   0.359  51.602  1.00  0.00     0.044 C 
BRANCH  19  20
HETATM   20  C12 UNL     1      17.826  -0.832  52.241  1.00  0.00    -0.058 A 
HETATM   21  C13 UNL     1      16.545  -1.299  51.935  1.00  0.00     0.007 A 
HETATM   22  C14 UNL     1      15.946  -2.394  52.466  1.00  0.00     0.001 A 
HETATM   23  C15 UNL     1      16.693  -3.116  53.410  1.00  0.00     0.000 A 
HETATM   24  C16 UNL     1      17.950  -2.652  53.708  1.00  0.00     0.001 A 
HETATM   25  C17 UNL     1      18.574  -1.547  53.181  1.00  0.00     0.007 A 
ENDBRANCH  19  20
ENDBRANCH  18  19
ENDBRANCH  12  18
TORSDOF 3
ENDMDL
MODEL 2
REMARK VINA RESULT:      -8.7      2.046      3.638
REMARK  3 active torsions:
REMARK  status: ('A' for Active; 'I' for Inactive)
REMARK    1  A    between atoms: C9_12  and  C10_13 
REMARK    2  A    between atoms: C10_13  and  C11_14 
REMARK    3  A    between atoms: C11_14  and  C12_15 
ROOT
HETATM    1  C1  UNL     1      28.018  -1.319  53.051  1.00  0.00     0.048 C 
HETATM    2  C2  UNL     1      26.764  -0.494  53.021  1.00  0.00    -0.061 C 
HETATM    3  C3  UNL     1      26.734   0.447  52.104  1.00  0.00     0.009 C 
HETATM    4  C4  UNL     1      25.592   1.366  51.910  1.00  0.00     0.031 C 
HETATM    5  C5  UNL     1      24.311   1.410  52.342  1.00  0.00     0.052 C 
HETATM    6  C6  UNL     1      23.642   2.624  51.789  1.00  0.00     0.147 C 
HETATM    7  N1  UNL     1      23.492   3.765  52.393  1.00  0.00    -0.252 NA
HETATM    8  C7  UNL     1      22.824   4.878  51.754  1.00  0.00     0.234 C 
HETATM    9  N2  UNL     1      21.517   4.991  51.581  1.00  0.00    -0.235 NA
HETATM   10  C8  UNL     1      20.677   3.929  52.065  1.00  0.00     0.234 C 
HETATM   11  N3  UNL     1      19.985   2.877  52.475  1.00  0.00    -0.247 NA
HETATM   12  C9  UNL     1      20.440   1.546  52.348  1.00  0.00     0.034 C 
HETATM   13  C18 UNL     1      21.450   1.104  53.072  1.00  0.00     0.020 C 
HETATM   14  C19 UNL     1      22.374  -0.026  53.440  1.00  0.00     0.158 C 
HETATM   15  N4  UNL     1      23.737   0.405  53.184  1.00  0.00    -0.352 N 
HETATM   16  C20 UNL     1      24.480  -0.471  54.051  1.00  0.00     0.092 C 
HETATM   17  C21 UNL     1      25.763  -0.888  54.031  1.00  0.00     0.024 C 
ENDROOT
BRANCH  12  18
HETATM   18  C10 UNL     1      20.086   0.378  51.556  1.00  0.00     0.063 C 
BRANCH  18  19
HETATM   19  C11 UNL     1      19.312   0.814  50.316  1.00  0.00     0.044 C 
BRANCH  19  20
HETATM   20  C12 UNL     1      20.166   1.485  49.326  1.00  0.00    -0.058 A 
HETATM   21  C13 UNL     1      19.764   2.644  48.654  1.00  0.00     0.007 A 
HETATM   22  C14 UNL     1      20.495   3.330  47.741  1.00  0.00     0.001 A 
HETATM   23  C15 UNL     1      21.770   2.819  47.452  1.00  0.00     0.000 A 
HETATM   24  C16 UNL     1      22.158   1.681  48.113  1.00  0.00     0.001 A 
HETATM   25  C17 UNL     1      21.435   0.972  49.041  1.00  0.00     0.007 A 
ENDBRANCH  19  20
ENDBRANCH  18  19
ENDBRANCH  12  18
TORSDOF 3
ENDMDL
MODEL 3
REMARK VINA RESULT:      -8.4      2.290      7.804
REMARK  3 active torsions:
REMARK  status: ('A' for Active; 'I' for Inactive)
REMARK    1  A    between atoms: C9_12  and  C10_13 
REMARK    2  A    between atoms: C10_13  and  C11_14 
REMARK    3  A    between atoms: C11_14  and  C12_15 
ROOT
HETATM    1  C1  UNL     1      21.495   6.610  49.385  1.00  0.00     0.048 C 
HETATM    2  C2  UNL     1      21.736   5.434  50.288  1.00  0.00    -0.061 C 
HETATM    3  C3  UNL     1      20.994   4.378  50.042  1.00  0.00     0.009 C 
HETATM    4  C4  UNL     1      21.077   3.120  50.816  1.00  0.00     0.031 C 
HETATM    5  C5  UNL     1      21.946   2.601  51.714  1.00  0.00     0.052 C 
HETATM    6  C6  UNL     1      21.465   1.257  52.150  1.00  0.00     0.147 C 
HETATM    7  N1  UNL     1      20.779   0.995  53.222  1.00  0.00    -0.252 NA
HETATM    8  C7  UNL     1      20.364  -0.354  53.544  1.00  0.00     0.234 C 
HETATM    9  N2  UNL     1      21.152  -1.305  54.020  1.00  0.00    -0.235 NA
HETATM   10  C8  UNL     1      22.535  -0.988  54.243  1.00  0.00     0.234 C 
HETATM   11  N3  UNL     1      23.807  -0.632  54.352  1.00  0.00    -0.247 NA
HETATM   12  C9  UNL     1      24.464   0.208  53.427  1.00  0.00     0.034 C 
HETATM   13  C18 UNL     1      24.163   1.489  53.345  1.00  0.00     0.020 C 
HETATM   14  C19 UNL     1      24.395   2.829  52.697  1.00  0.00     0.158 C 
HETATM   15  N4  UNL     1      23.138   3.278  52.127  1.00  0.00    -0.352 N 
HETATM   16  C20 UNL     1      23.347   4.700  52.062  1.00  0.00     0.092 C 
HETATM   17  C21 UNL     1      22.782   5.663  51.303  1.00  0.00     0.024 C 
ENDROOT
BRANCH  12  18
HETATM   18  C10 UNL     1      25.496   0.062  52.411  1.00  0.00     0.063 C 
BRANCH  18  19
HETATM   19  C11 UNL     1      26.188  -1.287  52.573  1.00  0.00     0.044 C 
BRANCH  19  20
HETATM   20  C12 UNL     1      27.595  -1.155  52.974  1.00  0.00    -0.058 A 
HETATM   21  C13 UNL     1      28.159   0.073  53.333  1.00  0.00     0.007 A 
HETATM   22  C14 UNL     1      29.441   0.278  53.728  1.00  0.00     0.001 A 
HETATM   23  C15 UNL     1      30.266  -0.856  53.776  1.00  0.00     0.000 A 
HETATM   24  C16 UNL     1      29.708  -2.059  53.421  1.00  0.00     0.001 A 
HETATM   25  C17 UNL     1      28.414  -2.287  53.020  1.00  0.00     0.007 A 
ENDBRANCH  19  20
ENDBRANCH  18  19
ENDBRANCH  12  18
TORSDOF 3
ENDMDL
MODEL 4
REMARK VINA RESULT:      -8.3      2.970      8.219
REMARK  3 active torsions:
REMARK  status: ('A' for Active; 'I' for Inactive)
REMARK    1  A    between atoms: C9_12  and  C10_13 
REMARK    2  A    between atoms: C10_13  and  C11_14 
REMARK    3  A    between atoms: C11_14  and  C12_15 
ROOT
HETATM    1  C1  UNL     1      18.631   0.202  52.329  1.00  0.00     0.048 C 
HETATM    2  C2  UNL     1      20.086   0.552  52.462  1.00  0.00    -0.061 C 
HETATM    3  C3  UNL     1      20.904  -0.474  52.533  1.00  0.00     0.009 C 
HETATM    4  C4  UNL     1      22.371  -0.344  52.668  1.00  0.00     0.031 C 
HETATM    5  C5  UNL     1      23.261   0.667  52.538  1.00  0.00     0.052 C 
HETATM    6  C6  UNL     1      24.636   0.155  52.812  1.00  0.00     0.147 C 
HETATM    7  N1  UNL     1      25.277   0.235  53.940  1.00  0.00    -0.252 NA
HETATM    8  C7  UNL     1      26.614  -0.301  54.090  1.00  0.00     0.234 C 
HETATM    9  N2  UNL     1      27.718   0.253  53.619  1.00  0.00    -0.235 NA
HETATM   10  C8  UNL     1      27.599   1.490  52.897  1.00  0.00     0.234 C 
HETATM   11  N3  UNL     1      27.392   2.588  52.185  1.00  0.00    -0.247 NA
HETATM   12  C9  UNL     1      26.284   2.764  51.327  1.00  0.00     0.034 C 
HETATM   13  C18 UNL     1      25.068   2.909  51.815  1.00  0.00     0.020 C 
HETATM   14  C19 UNL     1      23.596   3.110  51.569  1.00  0.00     0.158 C 
HETATM   15  N4  UNL     1      22.882   1.998  52.170  1.00  0.00    -0.352 N 
HETATM   16  C20 UNL     1      21.573   2.566  52.354  1.00  0.00     0.092 C 
HETATM   17  C21 UNL     1      20.353   2.002  52.484  1.00  0.00     0.024 C 
ENDROOT
BRANCH  12  18
HETATM   18  C10 UNL     1      26.057   2.838  49.892  1.00  0.00     0.063 C 
BRANCH  18  19
HETATM   19  C11 UNL     1      27.053   3.809  49.265  1.00  0.00     0.044 C 
BRANCH  19  20
HETATM   20  C12 UNL     1      26.434   5.088  48.890  1.00  0.00    -0.058 A 
HETATM   21  C13 UNL     1      25.051   5.286  48.914  1.00  0.00     0.007 A 
HETATM   22  C14 UNL     1      24.403   6.435  48.599  1.00  0.00     0.001 A 
HETATM   23  C15 UNL     1      25.209   7.518  48.214  1.00  0.00     0.000 A 
HETATM   24  C16 UNL     1      26.566   7.318  48.191  1.00  0.00     0.001 A 
HETATM   25  C17 UNL     1      27.241   6.163  48.508  1.00  0.00     0.007 A 
ENDBRANCH  19  20
ENDBRANCH  18  19
ENDBRANCH  12  18
TORSDOF 3
ENDMDL
MODEL 5
REMARK VINA RESULT:      -8.3      2.648      7.826
REMARK  3 active torsions:
REMARK  status: ('A' for Active; 'I' for Inactive)
REMARK    1  A    between atoms: C9_12  and  C10_13 
REMARK    2  A    between atoms: C10_13  and  C11_14 
REMARK    3  A    between atoms: C11_14  and  C12_15 
ROOT
HETATM    1  C1  UNL     1      21.952   4.540  45.624  1.00  0.00     0.048 C 
HETATM    2  C2  UNL     1      22.062   3.935  46.994  1.00  0.00    -0.061 C 
HETATM    3  C3  UNL     1      21.456   2.779  47.146  1.00  0.00     0.009 C 
HETATM    4  C4  UNL     1      21.445   2.020  48.416  1.00  0.00     0.031 C 
HETATM    5  C5  UNL     1      22.127   2.091  49.582  1.00  0.00     0.052 C 
HETATM    6  C6  UNL     1      21.644   1.021  50.504  1.00  0.00     0.147 C 
HETATM    7  N1  UNL     1      20.758   1.156  51.445  1.00  0.00    -0.252 NA
HETATM    8  C7  UNL     1      20.366   0.041  52.281  1.00  0.00     0.234 C 
HETATM    9  N2  UNL     1      21.087  -0.469  53.266  1.00  0.00    -0.235 NA
HETATM   10  C8  UNL     1      22.366   0.123  53.544  1.00  0.00     0.234 C 
HETATM   11  N3  UNL     1      23.559   0.681  53.686  1.00  0.00    -0.247 NA
HETATM   12  C9  UNL     1      24.350   1.118  52.601  1.00  0.00     0.034 C 
HETATM   13  C18 UNL     1      23.997   2.168  51.886  1.00  0.00     0.020 C 
HETATM   14  C19 UNL     1      24.283   3.103  50.740  1.00  0.00     0.158 C 
HETATM   15  N4  UNL     1      23.156   3.055  49.827  1.00  0.00    -0.352 N 
HETATM   16  C20 UNL     1      23.287   4.316  49.147  1.00  0.00     0.092 C 
HETATM   17  C21 UNL     1      22.845   4.746  47.946  1.00  0.00     0.024 C 
ENDROOT
BRANCH  12  18
HETATM   18  C10 UNL     1      25.586   0.700  51.955  1.00  0.00     0.063 C 
BRANCH  18  19
HETATM   19  C11 UNL     1      26.002  -0.669  52.483  1.00  0.00     0.044 C 
BRANCH  19  20
HETATM   20  C12 UNL     1      27.413  -0.710  52.893  1.00  0.00    -0.058 A 
HETATM   21  C13 UNL     1      28.117   0.437  53.269  1.00  0.00     0.007 A 
HETATM   22  C14 UNL     1      29.411   0.482  53.673  1.00  0.00     0.001 A 
HETATM   23  C15 UNL     1      30.095  -0.742  53.711  1.00  0.00     0.000 A 
HETATM   24  C16 UNL     1      29.399  -1.866  53.340  1.00  0.00     0.001 A 
HETATM   25  C17 UNL     1      28.090  -1.933  52.929  1.00  0.00     0.007 A 
ENDBRANCH  19  20
ENDBRANCH  18  19
ENDBRANCH  12  18
TORSDOF 3
ENDMDL
MODEL 6
REMARK VINA RESULT:      -8.3      3.418      7.086
REMARK  3 active torsions:
REMARK  status: ('A' for Active; 'I' for Inactive)
REMARK    1  A    between atoms: C9_12  and  C10_13 
REMARK    2  A    between atoms: C10_13  and  C11_14 
REMARK    3  A    between atoms: C11_14  and  C12_15 
ROOT
HETATM    1  C1  UNL     1      26.749   8.368  49.787  1.00  0.00     0.048 C 
HETATM    2  C2  UNL     1      25.785   7.221  49.902  1.00  0.00    -0.061 C 
HETATM    3  C3  UNL     1      25.948   6.263  49.019  1.00  0.00     0.009 C 
HETATM    4  C4  UNL     1      25.104   5.050  48.962  1.00  0.00     0.031 C 
HETATM    5  C5  UNL     1      24.201   4.469  49.785  1.00  0.00     0.052 C 
HETATM    6  C6  UNL     1      23.673   3.228  49.145  1.00  0.00     0.147 C 
HETATM    7  N1  UNL     1      22.569   3.119  48.469  1.00  0.00    -0.252 NA
HETATM    8  C7  UNL     1      22.157   1.857  47.891  1.00  0.00     0.234 C 
HETATM    9  N2  UNL     1      21.647   0.837  48.561  1.00  0.00    -0.235 NA
HETATM   10  C8  UNL     1      21.480   0.978  49.982  1.00  0.00     0.234 C 
HETATM   11  N3  UNL     1      21.427   1.165  51.292  1.00  0.00    -0.247 NA
HETATM   12  C9  UNL     1      22.418   1.858  52.022  1.00  0.00     0.034 C 
HETATM   13  C18 UNL     1      22.567   3.161  51.890  1.00  0.00     0.020 C 
HETATM   14  C19 UNL     1      23.299   4.420  52.275  1.00  0.00     0.158 C 
HETATM   15  N4  UNL     1      23.860   5.001  51.069  1.00  0.00    -0.352 N 
HETATM   16  C20 UNL     1      24.015   6.377  51.462  1.00  0.00     0.092 C 
HETATM   17  C21 UNL     1      24.814   7.363  51.004  1.00  0.00     0.024 C 
ENDROOT
BRANCH  12  18
HETATM   18  C10 UNL     1      23.450   1.519  52.989  1.00  0.00     0.063 C 
BRANCH  18  19
HETATM   19  C11 UNL     1      24.369   0.451  52.406  1.00  0.00     0.044 C 
BRANCH  19  20
HETATM   20  C12 UNL     1      25.780   0.668  52.755  1.00  0.00    -0.058 A 
HETATM   21  C13 UNL     1      26.296   1.937  53.033  1.00  0.00     0.007 A 
HETATM   22  C14 UNL     1      27.577   2.220  53.377  1.00  0.00     0.001 A 
HETATM   23  C15 UNL     1      28.456   1.129  53.456  1.00  0.00     0.000 A 
HETATM   24  C16 UNL     1      27.945  -0.114  53.181  1.00  0.00     0.001 A 
HETATM   25  C17 UNL     1      26.652  -0.422  52.832  1.00  0.00     0.007 A 
ENDBRANCH  19  20
ENDBRANCH  18  19
ENDBRANCH  12  18
TORSDOF 3
ENDMDL
MODEL 7
REMARK VINA RESULT:      -8.3      3.115      8.617
REMARK  3 active torsions:
REMARK  status: ('A' for Active; 'I' for Inactive)
REMARK    1  A    between atoms: C9_12  and  C10_13 
REMARK    2  A    between atoms: C10_13  and  C11_14 
REMARK    3  A    between atoms: C11_14  and  C12_15 
ROOT
HETATM    1  C1  UNL     1      17.405   1.275  51.368  1.00  0.00     0.048 C 
HETATM    2  C2  UNL     1      18.868   1.394  51.683  1.00  0.00    -0.061 C 
HETATM    3  C3  UNL     1      19.532   0.260  51.692  1.00  0.00     0.009 C 
HETATM    4  C4  UNL     1      20.979   0.161  51.980  1.00  0.00     0.031 C 
HETATM    5  C5  UNL     1      22.003   1.041  52.071  1.00  0.00     0.052 C 
HETATM    6  C6  UNL     1      23.260   0.308  52.402  1.00  0.00     0.147 C 
HETATM    7  N1  UNL     1      23.776   0.158  53.585  1.00  0.00    -0.252 NA
HETATM    8  C7  UNL     1      25.006  -0.578  53.787  1.00  0.00     0.234 C 
HETATM    9  N2  UNL     1      26.219  -0.136  53.500  1.00  0.00    -0.235 NA
HETATM   10  C8  UNL     1      26.344   1.183  52.942  1.00  0.00     0.234 C 
HETATM   11  N3  UNL     1      26.363   2.376  52.368  1.00  0.00    -0.247 NA
HETATM   12  C9  UNL     1      25.390   2.812  51.442  1.00  0.00     0.034 C 
HETATM   13  C18 UNL     1      24.156   3.070  51.829  1.00  0.00     0.020 C 
HETATM   14  C19 UNL     1      22.760   3.509  51.474  1.00  0.00     0.158 C 
HETATM   15  N4  UNL     1      21.844   2.447  51.851  1.00  0.00    -0.352 N 
HETATM   16  C20 UNL     1      20.608   3.171  51.987  1.00  0.00     0.092 C 
HETATM   17  C21 UNL     1      19.319   2.778  51.925  1.00  0.00     0.024 C 
ENDROOT
BRANCH  12  18
HETATM   18  C10 UNL     1      25.336   3.089  50.015  1.00  0.00     0.063 C 
BRANCH  18  19
HETATM   19  C11 UNL     1      26.745   3.346  49.489  1.00  0.00     0.044 C 
BRANCH  19  20
HETATM   20  C12 UNL     1      26.919   4.717  48.990  1.00  0.00    -0.058 A 
HETATM   21  C13 UNL     1      28.128   5.172  48.456  1.00  0.00     0.007 A 
HETATM   22  C14 UNL     1      28.366   6.413  47.962  1.00  0.00     0.001 A 
HETATM   23  C15 UNL     1      27.291   7.314  47.997  1.00  0.00     0.000 A 
HETATM   24  C16 UNL     1      26.106   6.863  48.523  1.00  0.00     0.001 A 
HETATM   25  C17 UNL     1      25.845   5.611  49.027  1.00  0.00     0.007 A 
ENDBRANCH  19  20
ENDBRANCH  18  19
ENDBRANCH  12  18
TORSDOF 3
ENDMDL
MODEL 8
REMARK VINA RESULT:      -8.1      2.152      6.610
REMARK  3 active torsions:
REMARK  status: ('A' for Active; 'I' for Inactive)
REMARK    1  A    between atoms: C9_12  and  C10_13 
REMARK    2  A    between atoms: C10_13  and  C11_14 
REMARK    3  A    between atoms: C11_14  and  C12_15 
ROOT
HETATM    1  C1  UNL     1      18.928   0.195  52.225  1.00  0.00     0.048 C 
HETATM    2  C2  UNL     1      19.940   1.177  51.709  1.00  0.00    -0.061 C 
HETATM    3  C3  UNL     1      20.328   2.087  52.573  1.00  0.00     0.009 C 
HETATM    4  C4  UNL     1      21.315   3.144  52.263  1.00  0.00     0.031 C 
HETATM    5  C5  UNL     1      22.199   3.368  51.263  1.00  0.00     0.052 C 
HETATM    6  C6  UNL     1      22.928   4.644  51.522  1.00  0.00     0.147 C 
HETATM    7  N1  UNL     1      22.641   5.811  51.027  1.00  0.00    -0.252 NA
HETATM    8  C7  UNL     1      23.424   6.984  51.352  1.00  0.00     0.234 C 
HETATM    9  N2  UNL     1      24.623   7.263  50.870  1.00  0.00    -0.235 NA
HETATM   10  C8  UNL     1      25.212   6.336  49.944  1.00  0.00     0.234 C 
HETATM   11  N3  UNL     1      25.709   5.395  49.154  1.00  0.00    -0.247 NA
HETATM   12  C9  UNL     1      25.515   4.013  49.369  1.00  0.00     0.034 C 
HETATM   13  C18 UNL     1      24.330   3.462  49.198  1.00  0.00     0.020 C 
HETATM   14  C19 UNL     1      23.464   2.230  49.232  1.00  0.00     0.158 C 
HETATM   15  N4  UNL     1      22.375   2.471  50.161  1.00  0.00    -0.352 N 
HETATM   16  C20 UNL     1      21.391   1.529  49.696  1.00  0.00     0.092 C 
HETATM   17  C21 UNL     1      20.338   0.946  50.307  1.00  0.00     0.024 C 
ENDROOT
BRANCH  12  18
HETATM   18  C10 UNL     1      26.332   2.880  49.777  1.00  0.00     0.063 C 
BRANCH  18  19
HETATM   19  C11 UNL     1      26.543   2.917  51.287  1.00  0.00     0.044 C 
BRANCH  19  20
HETATM   20  C12 UNL     1      26.073   1.694  51.952  1.00  0.00    -0.058 A 
HETATM   21  C13 UNL     1      24.870   1.643  52.663  1.00  0.00     0.007 A 
HETATM   22  C14 UNL     1      24.359   0.554  53.291  1.00  0.00     0.001 A 
HETATM   23  C15 UNL     1      25.119  -0.623  53.212  1.00  0.00     0.000 A 
HETATM   24  C16 UNL     1      26.299  -0.568  52.514  1.00  0.00     0.001 A 
HETATM   25  C17 UNL     1      26.833   0.524  51.871  1.00  0.00     0.007 A 
ENDBRANCH  19  20
ENDBRANCH  18  19
ENDBRANCH  12  18
TORSDOF 3
ENDMDL
MODEL 9
REMARK VINA RESULT:      -8.1      1.991      4.746
REMARK  3 active torsions:
REMARK  status: ('A' for Active; 'I' for Inactive)
REMARK    1  A    between atoms: C9_12  and  C10_13 
REMARK    2  A    between atoms: C10_13  and  C11_14 
REMARK    3  A    between atoms: C11_14  and  C12_15 
ROOT
HETATM    1  C1  UNL     1      23.373   6.225  47.954  1.00  0.00     0.048 C 
HETATM    2  C2  UNL     1      23.612   5.058  48.868  1.00  0.00    -0.061 C 
HETATM    3  C3  UNL     1      24.347   5.316  49.926  1.00  0.00     0.009 C 
HETATM    4  C4  UNL     1      24.698   4.306  50.947  1.00  0.00     0.031 C 
HETATM    5  C5  UNL     1      24.271   3.058  51.249  1.00  0.00     0.052 C 
HETATM    6  C6  UNL     1      25.039   2.541  52.420  1.00  0.00     0.147 C 
HETATM    7  N1  UNL     1      26.084   1.770  52.377  1.00  0.00    -0.252 NA
HETATM    8  C7  UNL     1      26.750   1.330  53.585  1.00  0.00     0.234 C 
HETATM    9  N2  UNL     1      26.305   0.396  54.409  1.00  0.00    -0.235 NA
HETATM   10  C8  UNL     1      25.060  -0.248  54.092  1.00  0.00     0.234 C 
HETATM   11  N3  UNL     1      23.873  -0.737  53.763  1.00  0.00    -0.247 NA
HETATM   12  C9  UNL     1      22.834   0.042  53.209  1.00  0.00     0.034 C 
HETATM   13  C18 UNL     1      22.925   0.515  51.982  1.00  0.00     0.020 C 
HETATM   14  C19 UNL     1      22.315   1.314  50.860  1.00  0.00     0.158 C 
HETATM   15  N4  UNL     1      23.226   2.395  50.529  1.00  0.00    -0.352 N 
HETATM   16  C20 UNL     1      22.832   2.697  49.178  1.00  0.00     0.092 C 
HETATM   17  C21 UNL     1      22.969   3.807  48.423  1.00  0.00     0.024 C 
ENDROOT
BRANCH  12  18
HETATM   18  C10 UNL     1      21.538   0.542  53.643  1.00  0.00     0.063 C 
BRANCH  18  19
HETATM   19  C11 UNL     1      20.651  -0.627  54.058  1.00  0.00     0.044 C 
BRANCH  19  20
HETATM   20  C12 UNL     1      19.397  -0.682  53.295  1.00  0.00    -0.058 A 
HETATM   21  C13 UNL     1      19.138   0.169  52.217  1.00  0.00     0.007 A 
HETATM   22  C14 UNL     1      18.017   0.174  51.454  1.00  0.00     0.001 A 
HETATM   23  C15 UNL     1      17.032  -0.768  51.790  1.00  0.00     0.000 A 
HETATM   24  C16 UNL     1      17.290  -1.601  52.850  1.00  0.00     0.001 A 
HETATM   25  C17 UNL     1      18.418  -1.622  53.634  1.00  0.00     0.007 A 
ENDBRANCH  19  20
ENDBRANCH  18  19
ENDBRANCH  12  18
TORSDOF 3
ENDMDL
