MODEL 1
REMARK VINA RESULT:      -8.7      0.000      0.000
REMARK  7 active torsions:
REMARK  status: ('A' for Active; 'I' for Inactive)
REMARK    1  A    between atoms: C2_2  and  N1_3 
REMARK    2  A    between atoms: C5_6  and  C6_7 
REMARK    3  A    between atoms: C6_7  and  C7_9 
REMARK    4  A    between atoms: C7_9  and  S1_10 
REMARK    5  A    between atoms: C8_11  and  C9_12 
REMARK    6  A    between atoms: C12_17  and  N4_18 
REMARK    7  A    between atoms: N4_18  and  C13_19 
ROOT
HETATM    1  C9  UNL     1      22.167  -0.311  52.881  1.00  0.00     0.029 A 
HETATM    2  C10 UNL     1      21.326  -0.940  53.797  1.00  0.00     0.133 A 
HETATM    3  N2  UNL     1      21.722  -1.448  54.998  1.00  0.00    -0.253 NA
HETATM    4  C11 UNL     1      23.048  -1.312  55.286  1.00  0.00     0.234 A 
HETATM    5  N3  UNL     1      23.914  -0.719  54.453  1.00  0.00    -0.224 NA
HETATM    6  C12 UNL     1      23.489  -0.222  53.262  1.00  0.00     0.141 A 
ENDROOT
BRANCH   1   7
HETATM    7  C8  UNL     1      21.636   0.234  51.644  1.00  0.00     0.039 C 
HETATM    8  C7  UNL     1      21.324   1.366  51.096  1.00  0.00     0.049 C 
BRANCH   8   9
HETATM    9  C6  UNL     1      21.456   2.670  51.711  1.00  0.00     0.194 C 
HETATM   10  O1  UNL     1      20.662   2.859  52.679  1.00  0.00    -0.286 OA
BRANCH   9  11
HETATM   11  C5  UNL     1      22.370   3.737  51.341  1.00  0.00    -0.008 C 
HETATM   12  C4  UNL     1      23.655   3.394  51.121  1.00  0.00    -0.013 C 
HETATM   13  C3  UNL     1      24.422   4.622  50.755  1.00  0.00     0.058 C 
HETATM   14  C2  UNL     1      23.630   5.654  51.555  1.00  0.00     0.026 C 
HETATM   15  C1  UNL     1      23.954   7.048  51.165  1.00  0.00     0.038 C 
HETATM   16  C19 UNL     1      22.227   5.202  51.139  1.00  0.00     0.072 C 
BRANCH  14  17
HETATM   17  N1  UNL     1      23.810   5.337  52.940  1.00  0.00    -0.421 N 
HETATM   18  H4  UNL     1      24.137   4.392  53.157  1.00  0.00     0.150 HD
HETATM   19  H5  UNL     1      24.247   6.106  53.491  1.00  0.00     0.150 HD
ENDBRANCH  14  17
ENDBRANCH   9  11
ENDBRANCH   8   9
BRANCH   8  20
HETATM   20  S1  UNL     1      20.671   1.339  49.429  1.00  0.00    -0.139 SA
HETATM   21  H9  UNL     1      21.765   1.463  48.554  1.00  0.00     0.107 HD
ENDBRANCH   8  20
ENDBRANCH   1   7
BRANCH   6  22
HETATM   22  N4  UNL     1      24.448   0.388  52.418  1.00  0.00    -0.340 N 
HETATM   23  H13 UNL     1      24.225   0.965  51.588  1.00  0.00     0.167 HD
BRANCH  22  24
HETATM   24  C13 UNL     1      25.812   0.192  52.734  1.00  0.00     0.035 A 
HETATM   25  C14 UNL     1      26.408  -1.075  52.684  1.00  0.00     0.032 A 
HETATM   26  C15 UNL     1      27.735  -1.259  52.985  1.00  0.00     0.046 A 
HETATM   27  C16 UNL     1      28.550  -0.216  53.349  1.00  0.00     0.138 A 
HETATM   28  F1  UNL     1      29.857  -0.324  53.655  1.00  0.00    -0.204 F 
HETATM   29  C17 UNL     1      28.002   1.067  53.414  1.00  0.00     0.074 A 
HETATM   30 CL1  UNL     1      28.931   2.498  53.869  1.00  0.00    -0.081 Cl
HETATM   31  C18 UNL     1      26.660   1.214  53.104  1.00  0.00     0.056 A 
ENDBRANCH  22  24
ENDBRANCH   6  22
TORSDOF 7
ENDMDL
MODEL 2
REMARK VINA RESULT:      -8.4      3.911      5.484
REMARK  7 active torsions:
REMARK  status: ('A' for Active; 'I' for Inactive)
REMARK    1  A    between atoms: C2_2  and  N1_3 
REMARK    2  A    between atoms: C5_6  and  C6_7 
REMARK    3  A    between atoms: C6_7  and  C7_9 
REMARK    4  A    between atoms: C7_9  and  S1_10 
REMARK    5  A    between atoms: C8_11  and  C9_12 
REMARK    6  A    between atoms: C12_17  and  N4_18 
REMARK    7  A    between atoms: N4_18  and  C13_19 
ROOT
HETATM    1  C9  UNL     1      24.603   2.309  52.998  1.00  0.00     0.029 A 
HETATM    2  C10 UNL     1      25.650   2.501  53.899  1.00  0.00     0.133 A 
HETATM    3  N2  UNL     1      26.462   1.515  54.373  1.00  0.00    -0.253 NA
HETATM    4  C11 UNL     1      26.196   0.261  53.908  1.00  0.00     0.234 A 
HETATM    5  N3  UNL     1      25.207   0.002  53.043  1.00  0.00    -0.224 NA
HETATM    6  C12 UNL     1      24.415   1.006  52.588  1.00  0.00     0.141 A 
ENDROOT
BRANCH   1   7
HETATM    7  C8  UNL     1      23.823   3.437  52.522  1.00  0.00     0.039 C 
HETATM    8  C7  UNL     1      23.579   4.106  51.440  1.00  0.00     0.049 C 
BRANCH   8   9
HETATM    9  C6  UNL     1      24.146   3.841  50.134  1.00  0.00     0.194 C 
HETATM   10  O1  UNL     1      23.732   2.765  49.609  1.00  0.00    -0.286 OA
BRANCH   9  11
HETATM   11  C5  UNL     1      25.101   4.652  49.400  1.00  0.00    -0.008 C 
HETATM   12  C4  UNL     1      26.399   4.302  49.491  1.00  0.00    -0.013 C 
HETATM   13  C3  UNL     1      27.209   5.252  48.670  1.00  0.00     0.058 C 
HETATM   14  C2  UNL     1      26.346   6.501  48.816  1.00  0.00     0.026 C 
HETATM   15  C1  UNL     1      26.719   7.568  47.856  1.00  0.00     0.038 C 
HETATM   16  C19 UNL     1      24.990   5.849  48.526  1.00  0.00     0.072 C 
BRANCH  14  17
HETATM   17  N1  UNL     1      26.377   6.872  50.200  1.00  0.00    -0.421 N 
HETATM   18  H4  UNL     1      25.493   6.811  50.712  1.00  0.00     0.150 HD
HETATM   19  H5  UNL     1      27.219   6.526  50.706  1.00  0.00     0.150 HD
ENDBRANCH  14  17
ENDBRANCH   9  11
ENDBRANCH   8   9
BRANCH   8  20
HETATM   20  S1  UNL     1      22.439   5.483  51.544  1.00  0.00    -0.139 SA
HETATM   21  H9  UNL     1      22.890   6.463  50.642  1.00  0.00     0.107 HD
ENDBRANCH   8  20
ENDBRANCH   1   7
BRANCH   6  22
HETATM   22  N4  UNL     1      23.380   0.676  51.679  1.00  0.00    -0.340 N 
HETATM   23  H13 UNL     1      23.466   0.702  50.648  1.00  0.00     0.167 HD
BRANCH  22  24
HETATM   24  C13 UNL     1      22.137   0.282  52.224  1.00  0.00     0.035 A 
HETATM   25  C14 UNL     1      22.022  -0.203  53.532  1.00  0.00     0.032 A 
HETATM   26  C15 UNL     1      20.811  -0.578  54.060  1.00  0.00     0.046 A 
HETATM   27  C16 UNL     1      19.647  -0.497  53.336  1.00  0.00     0.138 A 
HETATM   28  F1  UNL     1      18.427  -0.845  53.789  1.00  0.00    -0.204 F 
HETATM   29  C17 UNL     1      19.709  -0.021  52.025  1.00  0.00     0.074 A 
HETATM   30 CL1  UNL     1      18.294   0.134  50.980  1.00  0.00    -0.081 Cl
HETATM   31  C18 UNL     1      20.948   0.348  51.528  1.00  0.00     0.056 A 
ENDBRANCH  22  24
ENDBRANCH   6  22
TORSDOF 7
ENDMDL
MODEL 3
REMARK VINA RESULT:      -8.2      3.254      4.857
REMARK  7 active torsions:
REMARK  status: ('A' for Active; 'I' for Inactive)
REMARK    1  A    between atoms: C2_2  and  N1_3 
REMARK    2  A    between atoms: C5_6  and  C6_7 
REMARK    3  A    between atoms: C6_7  and  C7_9 
REMARK    4  A    between atoms: C7_9  and  S1_10 
REMARK    5  A    between atoms: C8_11  and  C9_12 
REMARK    6  A    between atoms: C12_17  and  N4_18 
REMARK    7  A    between atoms: N4_18  and  C13_19 
ROOT
HETATM    1  C9  UNL     1      27.401   1.496  52.874  1.00  0.00     0.029 A 
HETATM    2  C10 UNL     1      28.403   2.172  53.569  1.00  0.00     0.133 A 
HETATM    3  N2  UNL     1      29.105   1.661  54.619  1.00  0.00    -0.253 NA
HETATM    4  C11 UNL     1      28.772   0.390  54.986  1.00  0.00     0.234 A 
HETATM    5  N3  UNL     1      27.820  -0.319  54.365  1.00  0.00    -0.224 NA
HETATM    6  C12 UNL     1      27.137   0.219  53.321  1.00  0.00     0.141 A 
ENDROOT
BRANCH   1   7
HETATM    7  C8  UNL     1      26.741   2.118  51.740  1.00  0.00     0.039 C 
HETATM    8  C7  UNL     1      25.686   2.810  51.447  1.00  0.00     0.049 C 
BRANCH   8   9
HETATM    9  C6  UNL     1      24.667   3.241  52.381  1.00  0.00     0.194 C 
HETATM   10  O1  UNL     1      24.861   2.837  53.566  1.00  0.00    -0.286 OA
BRANCH   9  11
HETATM   11  C5  UNL     1      23.495   4.054  52.104  1.00  0.00    -0.008 C 
HETATM   12  C4  UNL     1      22.305   3.423  52.081  1.00  0.00    -0.013 C 
HETATM   13  C3  UNL     1      21.239   4.427  51.784  1.00  0.00     0.058 C 
HETATM   14  C2  UNL     1      22.043   5.392  50.918  1.00  0.00     0.026 C 
HETATM   15  C1  UNL     1      21.344   6.682  50.702  1.00  0.00     0.038 C 
HETATM   16  C19 UNL     1      23.278   5.496  51.819  1.00  0.00     0.072 C 
BRANCH  14  17
HETATM   17  N1  UNL     1      22.414   4.679  49.731  1.00  0.00    -0.421 N 
HETATM   18  H4  UNL     1      22.981   3.837  49.859  1.00  0.00     0.150 HD
HETATM   19  H5  UNL     1      21.647   4.608  49.031  1.00  0.00     0.150 HD
ENDBRANCH  14  17
ENDBRANCH   9  11
ENDBRANCH   8   9
BRANCH   8  20
HETATM   20  S1  UNL     1      25.447   3.291  49.738  1.00  0.00    -0.139 SA
HETATM   21  H9  UNL     1      24.120   3.739  49.615  1.00  0.00     0.107 HD
ENDBRANCH   8  20
ENDBRANCH   1   7
BRANCH   6  22
HETATM   22  N4  UNL     1      26.137  -0.571  52.705  1.00  0.00    -0.340 N 
HETATM   23  H13 UNL     1      26.258  -1.100  51.823  1.00  0.00     0.167 HD
BRANCH  22  24
HETATM   24  C13 UNL     1      24.878  -0.642  53.344  1.00  0.00     0.035 A 
HETATM   25  C14 UNL     1      24.747  -1.037  54.681  1.00  0.00     0.032 A 
HETATM   26  C15 UNL     1      23.522  -1.096  55.299  1.00  0.00     0.046 A 
HETATM   27  C16 UNL     1      22.360  -0.773  54.643  1.00  0.00     0.138 A 
HETATM   28  F1  UNL     1      21.128  -0.808  55.186  1.00  0.00    -0.204 F 
HETATM   29  C17 UNL     1      22.437  -0.375  53.307  1.00  0.00     0.074 A 
HETATM   30 CL1  UNL     1      21.026   0.067  52.342  1.00  0.00    -0.081 Cl
HETATM   31  C18 UNL     1      23.690  -0.326  52.717  1.00  0.00     0.056 A 
ENDBRANCH  22  24
ENDBRANCH   6  22
TORSDOF 7
ENDMDL
MODEL 4
REMARK VINA RESULT:      -8.1      1.550      1.945
REMARK  7 active torsions:
REMARK  status: ('A' for Active; 'I' for Inactive)
REMARK    1  A    between atoms: C2_2  and  N1_3 
REMARK    2  A    between atoms: C5_6  and  C6_7 
REMARK    3  A    between atoms: C6_7  and  C7_9 
REMARK    4  A    between atoms: C7_9  and  S1_10 
REMARK    5  A    between atoms: C8_11  and  C9_12 
REMARK    6  A    between atoms: C12_17  and  N4_18 
REMARK    7  A    between atoms: N4_18  and  C13_19 
ROOT
HETATM    1  C9  UNL     1      22.427   0.079  52.590  1.00  0.00     0.029 A 
HETATM    2  C10 UNL     1      21.463  -0.277  53.531  1.00  0.00     0.133 A 
HETATM    3  N2  UNL     1      21.731  -0.775  54.771  1.00  0.00    -0.253 NA
HETATM    4  C11 UNL     1      23.052  -0.923  55.073  1.00  0.00     0.234 A 
HETATM    5  N3  UNL     1      24.032  -0.602  54.217  1.00  0.00    -0.224 NA
HETATM    6  C12 UNL     1      23.734  -0.107  52.988  1.00  0.00     0.141 A 
ENDROOT
BRANCH   1   7
HETATM    7  C8  UNL     1      22.036   0.643  51.309  1.00  0.00     0.039 C 
HETATM    8  C7  UNL     1      22.181   1.713  50.596  1.00  0.00     0.049 C 
BRANCH   8   9
HETATM    9  C6  UNL     1      22.943   2.886  50.972  1.00  0.00     0.194 C 
HETATM   10  O1  UNL     1      22.684   3.308  52.138  1.00  0.00    -0.286 OA
BRANCH   9  11
HETATM   11  C5  UNL     1      23.931   3.596  50.177  1.00  0.00    -0.008 C 
HETATM   12  C4  UNL     1      25.208   3.179  50.275  1.00  0.00    -0.013 C 
HETATM   13  C3  UNL     1      26.057   4.029  49.387  1.00  0.00     0.058 C 
HETATM   14  C2  UNL     1      25.266   5.332  49.464  1.00  0.00     0.026 C 
HETATM   15  C1  UNL     1      25.683   6.315  48.435  1.00  0.00     0.038 C 
HETATM   16  C19 UNL     1      23.873   4.740  49.231  1.00  0.00     0.072 C 
BRANCH  14  17
HETATM   17  N1  UNL     1      25.339   5.785  50.822  1.00  0.00    -0.421 N 
HETATM   18  H4  UNL     1      24.465   5.782  51.354  1.00  0.00     0.150 HD
HETATM   19  H5  UNL     1      26.181   5.446  51.331  1.00  0.00     0.150 HD
ENDBRANCH  14  17
ENDBRANCH   9  11
ENDBRANCH   8   9
BRANCH   8  20
HETATM   20  S1  UNL     1      21.380   1.770  48.995  1.00  0.00    -0.139 SA
HETATM   21  H9  UNL     1      20.012   1.524  49.207  1.00  0.00     0.107 HD
ENDBRANCH   8  20
ENDBRANCH   1   7
BRANCH   6  22
HETATM   22  N4  UNL     1      24.808   0.210  52.122  1.00  0.00    -0.340 N 
HETATM   23  H13 UNL     1      24.750   0.229  51.088  1.00  0.00     0.167 HD
BRANCH  22  24
HETATM   24  C13 UNL     1      26.053   0.520  52.715  1.00  0.00     0.035 A 
HETATM   25  C14 UNL     1      26.337   1.797  53.214  1.00  0.00     0.032 A 
HETATM   26  C15 UNL     1      27.545   2.092  53.796  1.00  0.00     0.046 A 
HETATM   27  C16 UNL     1      28.539   1.154  53.922  1.00  0.00     0.138 A 
HETATM   28  F1  UNL     1      29.745   1.373  54.482  1.00  0.00    -0.204 F 
HETATM   29  C17 UNL     1      28.305  -0.135  53.440  1.00  0.00     0.074 A 
HETATM   30 CL1  UNL     1      29.493  -1.438  53.533  1.00  0.00    -0.081 Cl
HETATM   31  C18 UNL     1      27.075  -0.395  52.859  1.00  0.00     0.056 A 
ENDBRANCH  22  24
ENDBRANCH   6  22
TORSDOF 7
ENDMDL
MODEL 5
REMARK VINA RESULT:      -7.9      3.677      6.779
REMARK  7 active torsions:
REMARK  status: ('A' for Active; 'I' for Inactive)
REMARK    1  A    between atoms: C2_2  and  N1_3 
REMARK    2  A    between atoms: C5_6  and  C6_7 
REMARK    3  A    between atoms: C6_7  and  C7_9 
REMARK    4  A    between atoms: C7_9  and  S1_10 
REMARK    5  A    between atoms: C8_11  and  C9_12 
REMARK    6  A    between atoms: C12_17  and  N4_18 
REMARK    7  A    between atoms: N4_18  and  C13_19 
ROOT
HETATM    1  C9  UNL     1      22.508   2.558  51.239  1.00  0.00     0.029 A 
HETATM    2  C10 UNL     1      21.744   1.476  50.805  1.00  0.00     0.133 A 
HETATM    3  N2  UNL     1      20.460   1.225  51.185  1.00  0.00    -0.253 NA
HETATM    4  C11 UNL     1      19.919   2.123  52.057  1.00  0.00     0.234 A 
HETATM    5  N3  UNL     1      20.594   3.185  52.517  1.00  0.00    -0.224 NA
HETATM    6  C12 UNL     1      21.874   3.408  52.119  1.00  0.00     0.141 A 
ENDROOT
BRANCH   1   7
HETATM    7  C8  UNL     1      23.857   2.757  50.739  1.00  0.00     0.039 C 
HETATM    8  C7  UNL     1      25.093   2.605  51.093  1.00  0.00     0.049 C 
BRANCH   8   9
HETATM    9  C6  UNL     1      25.553   2.076  52.360  1.00  0.00     0.194 C 
HETATM   10  O1  UNL     1      25.033   2.643  53.367  1.00  0.00    -0.286 OA
BRANCH   9  11
HETATM   11  C5  UNL     1      26.510   1.006  52.581  1.00  0.00    -0.008 C 
HETATM   12  C4  UNL     1      26.041  -0.256  52.525  1.00  0.00    -0.013 C 
HETATM   13  C3  UNL     1      27.173  -1.199  52.775  1.00  0.00     0.058 C 
HETATM   14  C2  UNL     1      28.018  -0.328  53.701  1.00  0.00     0.026 C 
HETATM   15  C1  UNL     1      29.387  -0.864  53.896  1.00  0.00     0.038 C 
HETATM   16  C19 UNL     1      27.966   0.961  52.875  1.00  0.00     0.072 C 
BRANCH  14  17
HETATM   17  N1  UNL     1      27.253  -0.125  54.896  1.00  0.00    -0.421 N 
HETATM   18  H4  UNL     1      26.502   0.568  54.849  1.00  0.00     0.150 HD
HETATM   19  H5  UNL     1      27.026  -1.007  55.401  1.00  0.00     0.150 HD
ENDBRANCH  14  17
ENDBRANCH   9  11
ENDBRANCH   8   9
BRANCH   8  20
HETATM   20  S1  UNL     1      26.365   3.081  49.926  1.00  0.00    -0.139 SA
HETATM   21  H9  UNL     1      25.807   2.978  48.639  1.00  0.00     0.107 HD
ENDBRANCH   8  20
ENDBRANCH   1   7
BRANCH   6  22
HETATM   22  N4  UNL     1      22.542   4.542  52.640  1.00  0.00    -0.340 N 
HETATM   23  H13 UNL     1      22.917   4.619  53.603  1.00  0.00     0.167 HD
BRANCH  22  24
HETATM   24  C13 UNL     1      22.708   5.652  51.781  1.00  0.00     0.035 A 
HETATM   25  C14 UNL     1      21.617   6.300  51.189  1.00  0.00     0.032 A 
HETATM   26  C15 UNL     1      21.783   7.382  50.361  1.00  0.00     0.046 A 
HETATM   27  C16 UNL     1      23.024   7.889  50.067  1.00  0.00     0.138 A 
HETATM   28  F1  UNL     1      23.260   8.946  49.266  1.00  0.00    -0.204 F 
HETATM   29  C17 UNL     1      24.145   7.278  50.632  1.00  0.00     0.074 A 
HETATM   30 CL1  UNL     1      25.800   7.822  50.340  1.00  0.00    -0.081 Cl
HETATM   31  C18 UNL     1      23.939   6.189  51.463  1.00  0.00     0.056 A 
ENDBRANCH  22  24
ENDBRANCH   6  22
TORSDOF 7
ENDMDL
MODEL 6
REMARK VINA RESULT:      -7.9      2.894      4.793
REMARK  7 active torsions:
REMARK  status: ('A' for Active; 'I' for Inactive)
REMARK    1  A    between atoms: C2_2  and  N1_3 
REMARK    2  A    between atoms: C5_6  and  C6_7 
REMARK    3  A    between atoms: C6_7  and  C7_9 
REMARK    4  A    between atoms: C7_9  and  S1_10 
REMARK    5  A    between atoms: C8_11  and  C9_12 
REMARK    6  A    between atoms: C12_17  and  N4_18 
REMARK    7  A    between atoms: N4_18  and  C13_19 
ROOT
HETATM    1  C9  UNL     1      23.476   2.129  51.528  1.00  0.00     0.029 A 
HETATM    2  C10 UNL     1      22.973   2.316  50.242  1.00  0.00     0.133 A 
HETATM    3  N2  UNL     1      23.623   2.968  49.237  1.00  0.00    -0.253 NA
HETATM    4  C11 UNL     1      24.855   3.458  49.555  1.00  0.00     0.234 A 
HETATM    5  N3  UNL     1      25.402   3.316  50.770  1.00  0.00    -0.224 NA
HETATM    6  C12 UNL     1      24.728   2.662  51.752  1.00  0.00     0.141 A 
ENDROOT
BRANCH   1   7
HETATM    7  C8  UNL     1      22.718   1.383  52.516  1.00  0.00     0.039 C 
HETATM    8  C7  UNL     1      21.517   1.273  52.989  1.00  0.00     0.049 C 
BRANCH   8   9
HETATM    9  C6  UNL     1      20.363   2.034  52.558  1.00  0.00     0.194 C 
HETATM   10  O1  UNL     1      20.372   3.238  52.951  1.00  0.00    -0.286 OA
BRANCH   9  11
HETATM   11  C5  UNL     1      19.244   1.571  51.755  1.00  0.00    -0.008 C 
HETATM   12  C4  UNL     1      19.228   0.265  51.423  1.00  0.00    -0.013 C 
HETATM   13  C3  UNL     1      18.006  -0.005  50.607  1.00  0.00     0.058 C 
HETATM   14  C2  UNL     1      17.859   1.354  49.927  1.00  0.00     0.026 C 
HETATM   15  C1  UNL     1      16.542   1.521  49.266  1.00  0.00     0.038 C 
HETATM   16  C19 UNL     1      18.045   2.227  51.172  1.00  0.00     0.072 C 
BRANCH  14  17
HETATM   17  N1  UNL     1      19.005   1.526  49.084  1.00  0.00    -0.421 N 
HETATM   18  H4  UNL     1      19.187   0.788  48.400  1.00  0.00     0.150 HD
HETATM   19  H5  UNL     1      19.129   2.502  48.744  1.00  0.00     0.150 HD
ENDBRANCH  14  17
ENDBRANCH   9  11
ENDBRANCH   8   9
BRANCH   8  20
HETATM   20  S1  UNL     1      21.235   0.077  54.292  1.00  0.00    -0.139 SA
HETATM   21  H9  UNL     1      19.847  -0.136  54.366  1.00  0.00     0.107 HD
ENDBRANCH   8  20
ENDBRANCH   1   7
BRANCH   6  22
HETATM   22  N4  UNL     1      25.349   2.547  53.018  1.00  0.00    -0.340 N 
HETATM   23  H13 UNL     1      25.053   3.053  53.872  1.00  0.00     0.167 HD
BRANCH  22  24
HETATM   24  C13 UNL     1      26.457   1.675  53.123  1.00  0.00     0.035 A 
HETATM   25  C14 UNL     1      27.721   2.129  53.517  1.00  0.00     0.032 A 
HETATM   26  C15 UNL     1      28.793   1.277  53.625  1.00  0.00     0.046 A 
HETATM   27  C16 UNL     1      28.685  -0.064  53.353  1.00  0.00     0.138 A 
HETATM   28  F1  UNL     1      29.692  -0.955  53.439  1.00  0.00    -0.204 F 
HETATM   29  C17 UNL     1      27.445  -0.566  52.955  1.00  0.00     0.074 A 
HETATM   30 CL1  UNL     1      27.163  -2.267  52.573  1.00  0.00    -0.081 Cl
HETATM   31  C18 UNL     1      26.387   0.323  52.858  1.00  0.00     0.056 A 
ENDBRANCH  22  24
ENDBRANCH   6  22
TORSDOF 7
ENDMDL
MODEL 7
REMARK VINA RESULT:      -7.9      2.100      2.521
REMARK  7 active torsions:
REMARK  status: ('A' for Active; 'I' for Inactive)
REMARK    1  A    between atoms: C2_2  and  N1_3 
REMARK    2  A    between atoms: C5_6  and  C6_7 
REMARK    3  A    between atoms: C6_7  and  C7_9 
REMARK    4  A    between atoms: C7_9  and  S1_10 
REMARK    5  A    between atoms: C8_11  and  C9_12 
REMARK    6  A    between atoms: C12_17  and  N4_18 
REMARK    7  A    between atoms: N4_18  and  C13_19 
ROOT
HETATM    1  C9  UNL     1      22.615   1.738  52.661  1.00  0.00     0.029 A 
HETATM    2  C10 UNL     1      21.519   0.908  52.889  1.00  0.00     0.133 A 
HETATM    3  N2  UNL     1      21.593  -0.372  53.349  1.00  0.00    -0.253 NA
HETATM    4  C11 UNL     1      22.851  -0.839  53.591  1.00  0.00     0.234 A 
HETATM    5  N3  UNL     1      23.950  -0.098  53.394  1.00  0.00    -0.224 NA
HETATM    6  C12 UNL     1      23.844   1.175  52.934  1.00  0.00     0.141 A 
ENDROOT
BRANCH   1   7
HETATM    7  C8  UNL     1      22.425   3.104  52.208  1.00  0.00     0.039 C 
HETATM    8  C7  UNL     1      22.715   3.884  51.215  1.00  0.00     0.049 C 
BRANCH   8   9
HETATM    9  C6  UNL     1      23.470   3.511  50.037  1.00  0.00     0.194 C 
HETATM   10  O1  UNL     1      23.055   2.450  49.482  1.00  0.00    -0.286 OA
BRANCH   9  11
HETATM   11  C5  UNL     1      24.606   4.204  49.454  1.00  0.00    -0.008 C 
HETATM   12  C4  UNL     1      25.829   3.707  49.722  1.00  0.00    -0.013 C 
HETATM   13  C3  UNL     1      26.850   4.554  49.035  1.00  0.00     0.058 C 
HETATM   14  C2  UNL     1      26.123   5.896  49.073  1.00  0.00     0.026 C 
HETATM   15  C1  UNL     1      26.748   6.908  48.187  1.00  0.00     0.038 C 
HETATM   16  C19 UNL     1      24.757   5.402  48.587  1.00  0.00     0.072 C 
BRANCH  14  17
HETATM   17  N1  UNL     1      26.001   6.266  50.452  1.00  0.00    -0.421 N 
HETATM   18  H4  UNL     1      26.105   7.259  50.672  1.00  0.00     0.150 HD
HETATM   19  H5  UNL     1      25.235   5.768  50.951  1.00  0.00     0.150 HD
ENDBRANCH  14  17
ENDBRANCH   9  11
ENDBRANCH   8   9
BRANCH   8  20
HETATM   20  S1  UNL     1      22.139   5.579  51.283  1.00  0.00    -0.139 SA
HETATM   21  H9  UNL     1      21.869   5.871  52.632  1.00  0.00     0.107 HD
ENDBRANCH   8  20
ENDBRANCH   1   7
BRANCH   6  22
HETATM   22  N4  UNL     1      25.038   1.911  52.738  1.00  0.00    -0.340 N 
HETATM   23  H13 UNL     1      25.082   2.897  52.425  1.00  0.00     0.167 HD
BRANCH  22  24
HETATM   24  C13 UNL     1      26.260   1.246  52.987  1.00  0.00     0.035 A 
HETATM   25  C14 UNL     1      26.491  -0.065  52.553  1.00  0.00     0.032 A 
HETATM   26  C15 UNL     1      27.683  -0.704  52.791  1.00  0.00     0.046 A 
HETATM   27  C16 UNL     1      28.713  -0.095  53.465  1.00  0.00     0.138 A 
HETATM   28  F1  UNL     1      29.906  -0.660  53.731  1.00  0.00    -0.204 F 
HETATM   29  C17 UNL     1      28.531   1.213  53.919  1.00  0.00     0.074 A 
HETATM   30 CL1  UNL     1      29.767   2.116  54.799  1.00  0.00    -0.081 Cl
HETATM   31  C18 UNL     1      27.316   1.825  53.660  1.00  0.00     0.056 A 
ENDBRANCH  22  24
ENDBRANCH   6  22
TORSDOF 7
ENDMDL
MODEL 8
REMARK VINA RESULT:      -7.8      3.837      5.362
REMARK  7 active torsions:
REMARK  status: ('A' for Active; 'I' for Inactive)
REMARK    1  A    between atoms: C2_2  and  N1_3 
REMARK    2  A    between atoms: C5_6  and  C6_7 
REMARK    3  A    between atoms: C6_7  and  C7_9 
REMARK    4  A    between atoms: C7_9  and  S1_10 
REMARK    5  A    between atoms: C8_11  and  C9_12 
REMARK    6  A    between atoms: C12_17  and  N4_18 
REMARK    7  A    between atoms: N4_18  and  C13_19 
ROOT
HETATM    1  C9  UNL     1      22.854   3.598  49.431  1.00  0.00     0.029 A 
HETATM    2  C10 UNL     1      22.715   3.435  48.054  1.00  0.00     0.133 A 
HETATM    3  N2  UNL     1      22.179   2.338  47.449  1.00  0.00    -0.253 NA
HETATM    4  C11 UNL     1      21.762   1.349  48.288  1.00  0.00     0.234 A 
HETATM    5  N3  UNL     1      21.865   1.436  49.622  1.00  0.00    -0.224 NA
HETATM    6  C12 UNL     1      22.403   2.543  50.196  1.00  0.00     0.141 A 
ENDROOT
BRANCH   1   7
HETATM    7  C8  UNL     1      23.401   4.827  49.978  1.00  0.00     0.039 C 
HETATM    8  C7  UNL     1      24.519   5.475  50.073  1.00  0.00     0.049 C 
BRANCH   8   9
HETATM    9  C6  UNL     1      25.795   5.048  49.538  1.00  0.00     0.194 C 
HETATM   10  O1  UNL     1      26.105   3.860  49.850  1.00  0.00    -0.286 OA
BRANCH   9  11
HETATM   11  C5  UNL     1      26.714   5.816  48.716  1.00  0.00    -0.008 C 
HETATM   12  C4  UNL     1      27.987   5.378  48.649  1.00  0.00    -0.013 C 
HETATM   13  C3  UNL     1      28.761   6.295  47.760  1.00  0.00     0.058 C 
HETATM   14  C2  UNL     1      28.008   7.595  48.031  1.00  0.00     0.026 C 
HETATM   15  C1  UNL     1      28.342   8.661  47.056  1.00  0.00     0.038 C 
HETATM   16  C19 UNL     1      26.587   7.042  47.885  1.00  0.00     0.072 C 
BRANCH  14  17
HETATM   17  N1  UNL     1      28.221   7.923  49.409  1.00  0.00    -0.421 N 
HETATM   18  H4  UNL     1      28.918   7.367  49.911  1.00  0.00     0.150 HD
HETATM   19  H5  UNL     1      28.236   8.947  49.598  1.00  0.00     0.150 HD
ENDBRANCH  14  17
ENDBRANCH   9  11
ENDBRANCH   8   9
BRANCH   8  20
HETATM   20  S1  UNL     1      24.508   7.044  50.938  1.00  0.00    -0.139 SA
HETATM   21  H9  UNL     1      24.379   8.052  49.965  1.00  0.00     0.107 HD
ENDBRANCH   8  20
ENDBRANCH   1   7
BRANCH   6  22
HETATM   22  N4  UNL     1      22.494   2.580  51.608  1.00  0.00    -0.340 N 
HETATM   23  H13 UNL     1      22.024   3.276  52.214  1.00  0.00     0.167 HD
BRANCH  22  24
HETATM   24  C13 UNL     1      23.287   1.593  52.235  1.00  0.00     0.035 A 
HETATM   25  C14 UNL     1      22.731   0.620  53.075  1.00  0.00     0.032 A 
HETATM   26  C15 UNL     1      23.506  -0.341  53.677  1.00  0.00     0.046 A 
HETATM   27  C16 UNL     1      24.864  -0.403  53.489  1.00  0.00     0.138 A 
HETATM   28  F1  UNL     1      25.683  -1.317  54.046  1.00  0.00    -0.204 F 
HETATM   29  C17 UNL     1      25.467   0.546  52.661  1.00  0.00     0.074 A 
HETATM   30 CL1  UNL     1      27.201   0.587  52.332  1.00  0.00    -0.081 Cl
HETATM   31  C18 UNL     1      24.654   1.500  52.071  1.00  0.00     0.056 A 
ENDBRANCH  22  24
ENDBRANCH   6  22
TORSDOF 7
ENDMDL
MODEL 9
REMARK VINA RESULT:      -7.8      2.854      3.948
REMARK  7 active torsions:
REMARK  status: ('A' for Active; 'I' for Inactive)
REMARK    1  A    between atoms: C2_2  and  N1_3 
REMARK    2  A    between atoms: C5_6  and  C6_7 
REMARK    3  A    between atoms: C6_7  and  C7_9 
REMARK    4  A    between atoms: C7_9  and  S1_10 
REMARK    5  A    between atoms: C8_11  and  C9_12 
REMARK    6  A    between atoms: C12_17  and  N4_18 
REMARK    7  A    between atoms: N4_18  and  C13_19 
ROOT
HETATM    1  C9  UNL     1      24.439   2.691  51.022  1.00  0.00     0.029 A 
HETATM    2  C10 UNL     1      23.245   2.258  50.447  1.00  0.00     0.133 A 
HETATM    3  N2  UNL     1      22.248   1.612  51.113  1.00  0.00    -0.253 NA
HETATM    4  C11 UNL     1      22.475   1.389  52.439  1.00  0.00     0.234 A 
HETATM    5  N3  UNL     1      23.598   1.776  53.058  1.00  0.00    -0.224 NA
HETATM    6  C12 UNL     1      24.575   2.419  52.366  1.00  0.00     0.141 A 
ENDROOT
BRANCH   1   7
HETATM    7  C8  UNL     1      25.421   3.410  50.230  1.00  0.00     0.039 C 
HETATM    8  C7  UNL     1      25.715   4.609  49.840  1.00  0.00     0.049 C 
BRANCH   8   9
HETATM    9  C6  UNL     1      24.977   5.811  50.166  1.00  0.00     0.194 C 
HETATM   10  O1  UNL     1      25.712   6.773  50.539  1.00  0.00    -0.286 OA
BRANCH   9  11
HETATM   11  C5  UNL     1      23.539   6.013  50.110  1.00  0.00    -0.008 C 
HETATM   12  C4  UNL     1      23.035   7.030  50.836  1.00  0.00    -0.013 C 
HETATM   13  C3  UNL     1      21.554   7.068  50.643  1.00  0.00     0.058 C 
HETATM   14  C2  UNL     1      21.297   5.580  50.418  1.00  0.00     0.026 C 
HETATM   15  C1  UNL     1      19.939   5.310  49.887  1.00  0.00     0.038 C 
HETATM   16  C19 UNL     1      22.422   5.328  49.409  1.00  0.00     0.072 C 
BRANCH  14  17
HETATM   17  N1  UNL     1      21.633   4.909  51.639  1.00  0.00    -0.421 N 
HETATM   18  H4  UNL     1      22.111   5.464  52.352  1.00  0.00     0.150 HD
HETATM   19  H5  UNL     1      20.884   4.274  51.986  1.00  0.00     0.150 HD
ENDBRANCH  14  17
ENDBRANCH   9  11
ENDBRANCH   8   9
BRANCH   8  20
HETATM   20  S1  UNL     1      27.161   4.824  48.805  1.00  0.00    -0.139 SA
HETATM   21  H9  UNL     1      28.278   4.872  49.659  1.00  0.00     0.107 HD
ENDBRANCH   8  20
ENDBRANCH   1   7
BRANCH   6  22
HETATM   22  N4  UNL     1      25.744   2.799  53.068  1.00  0.00    -0.340 N 
HETATM   23  H13 UNL     1      25.898   3.725  53.505  1.00  0.00     0.167 HD
BRANCH  22  24
HETATM   24  C13 UNL     1      26.777   1.842  53.178  1.00  0.00     0.035 A 
HETATM   25  C14 UNL     1      28.072   2.193  53.581  1.00  0.00     0.032 A 
HETATM   26  C15 UNL     1      29.071   1.258  53.694  1.00  0.00     0.046 A 
HETATM   27  C16 UNL     1      28.858  -0.070  53.419  1.00  0.00     0.138 A 
HETATM   28  F1  UNL     1      29.790  -1.040  53.509  1.00  0.00    -0.204 F 
HETATM   29  C17 UNL     1      27.584  -0.471  53.012  1.00  0.00     0.074 A 
HETATM   30 CL1  UNL     1      27.169  -2.143  52.625  1.00  0.00    -0.081 Cl
HETATM   31  C18 UNL     1      26.602   0.500  52.910  1.00  0.00     0.056 A 
ENDBRANCH  22  24
ENDBRANCH   6  22
TORSDOF 7
ENDMDL
