MODEL 1
REMARK VINA RESULT:      -7.7      0.000      0.000
REMARK  2 active torsions:
REMARK  status: ('A' for Active; 'I' for Inactive)
REMARK    1  A    between atoms: O1_2  and  C2_3 
REMARK    2  A    between atoms: N4_17  and  C12_18 
ROOT
HETATM    1  C2  UNL     1      21.808   3.371  51.368  1.00  0.00     0.125 C 
HETATM    2  C3  UNL     1      22.812   3.183  50.493  1.00  0.00     0.039 C 
HETATM    3  C4  UNL     1      23.042   2.296  49.360  1.00  0.00     0.000 C 
HETATM    4  C5  UNL     1      22.067   1.767  48.637  1.00  0.00    -0.007 C 
HETATM    5  C6  UNL     1      20.613   1.872  48.711  1.00  0.00     0.155 C 
HETATM    6  N1  UNL     1      20.123   2.263  50.019  1.00  0.00    -0.329 N 
HETATM    7  C7  UNL     1      18.705   2.235  49.743  1.00  0.00     0.131 C 
HETATM    8  C8  UNL     1      18.014   1.802  50.786  1.00  0.00     0.130 C 
HETATM    9  N2  UNL     1      16.626   2.162  50.914  1.00  0.00    -0.232 NA
HETATM   10  C9  UNL     1      16.392   3.176  51.710  1.00  0.00     0.236 C 
HETATM   11  N3  UNL     1      17.803   3.205  51.901  1.00  0.00    -0.230 NA
HETATM   12  C10 UNL     1      18.529   4.071  51.277  1.00  0.00     0.258 C 
HETATM   13  O2  UNL     1      19.566   3.484  51.935  1.00  0.00    -0.288 OA
HETATM   14  C11 UNL     1      20.556   2.637  51.383  1.00  0.00     0.288 C 
HETATM   15  N4  UNL     1      20.503   1.424  52.143  1.00  0.00    -0.257 N 
HETATM   16  S1  UNL     1      18.837   0.785  51.997  1.00  0.00     0.014 SA
ENDROOT
BRANCH  15  17
HETATM   17  C12 UNL     1      21.377   0.642  52.946  1.00  0.00     0.047 A 
HETATM   18  C13 UNL     1      20.914  -0.033  54.057  1.00  0.00     0.030 A 
HETATM   19  C14 UNL     1      21.741  -0.790  54.848  1.00  0.00     0.004 A 
HETATM   20  C15 UNL     1      23.081  -0.906  54.558  1.00  0.00     0.019 A 
HETATM   21  C16 UNL     1      23.590  -0.254  53.466  1.00  0.00     0.013 A 
HETATM   22 BR1  UNL     1      25.447  -0.424  53.078  1.00  0.00    -0.051 Br
HETATM   23  C17 UNL     1      22.727   0.484  52.714  1.00  0.00     0.049 A 
ENDBRANCH  15  17
BRANCH   1  24
HETATM   24  O1  UNL     1      21.929   4.353  52.374  1.00  0.00    -0.353 OA
HETATM   25  C1  UNL     1      23.131   4.937  52.764  1.00  0.00     0.209 C 
ENDBRANCH   1  24
TORSDOF 2
ENDMDL
MODEL 2
REMARK VINA RESULT:      -7.2      2.860      4.580
REMARK  2 active torsions:
REMARK  status: ('A' for Active; 'I' for Inactive)
REMARK    1  A    between atoms: O1_2  and  C2_3 
REMARK    2  A    between atoms: N4_17  and  C12_18 
ROOT
HETATM    1  C2  UNL     1      21.812   2.118  49.675  1.00  0.00     0.125 C 
HETATM    2  C3  UNL     1      20.674   1.437  49.894  1.00  0.00     0.039 C 
HETATM    3  C4  UNL     1      19.603   1.505  50.880  1.00  0.00     0.000 C 
HETATM    4  C5  UNL     1      19.286   2.607  51.539  1.00  0.00    -0.007 C 
HETATM    5  C6  UNL     1      19.827   3.964  51.515  1.00  0.00     0.155 C 
HETATM    6  N1  UNL     1      21.187   4.040  51.018  1.00  0.00    -0.329 N 
HETATM    7  C7  UNL     1      21.397   5.463  51.159  1.00  0.00     0.131 C 
HETATM    8  C8  UNL     1      22.640   5.738  51.520  1.00  0.00     0.130 C 
HETATM    9  N2  UNL     1      23.189   7.038  51.232  1.00  0.00    -0.232 NA
HETATM   10  C9  UNL     1      23.933   7.094  50.156  1.00  0.00     0.236 C 
HETATM   11  N3  UNL     1      23.646   5.705  50.023  1.00  0.00    -0.230 NA
HETATM   12  C10 UNL     1      22.751   5.301  49.186  1.00  0.00     0.258 C 
HETATM   13  O2  UNL     1      23.075   4.058  49.637  1.00  0.00    -0.288 OA
HETATM   14  C11 UNL     1      22.298   3.226  50.477  1.00  0.00     0.288 C 
HETATM   15  N4  UNL     1      23.127   2.922  51.605  1.00  0.00    -0.257 N 
HETATM   16  S1  UNL     1      23.590   4.480  52.353  1.00  0.00     0.014 SA
ENDROOT
BRANCH  15  17
HETATM   17  C12 UNL     1      23.657   1.768  52.243  1.00  0.00     0.047 A 
HETATM   18  C13 UNL     1      24.971   1.389  52.058  1.00  0.00     0.030 A 
HETATM   19  C14 UNL     1      25.503   0.278  52.662  1.00  0.00     0.004 A 
HETATM   20  C15 UNL     1      24.735  -0.511  53.487  1.00  0.00     0.019 A 
HETATM   21  C16 UNL     1      23.424  -0.178  53.704  1.00  0.00     0.013 A 
HETATM   22 BR1  UNL     1      22.373  -1.279  54.848  1.00  0.00    -0.051 Br
HETATM   23  C17 UNL     1      22.945   0.935  53.080  1.00  0.00     0.049 A 
ENDBRANCH  15  17
BRANCH   1  24
HETATM   24  O1  UNL     1      22.640   1.769  48.588  1.00  0.00    -0.353 OA
HETATM   25  C1  UNL     1      22.363   2.070  47.257  1.00  0.00     0.209 C 
ENDBRANCH   1  24
TORSDOF 2
ENDMDL
MODEL 3
REMARK VINA RESULT:      -7.2      4.673      6.920
REMARK  2 active torsions:
REMARK  status: ('A' for Active; 'I' for Inactive)
REMARK    1  A    between atoms: O1_2  and  C2_3 
REMARK    2  A    between atoms: N4_17  and  C12_18 
ROOT
HETATM    1  C2  UNL     1      23.287   5.625  49.910  1.00  0.00     0.125 C 
HETATM    2  C3  UNL     1      22.601   5.764  48.761  1.00  0.00     0.039 C 
HETATM    3  C4  UNL     1      22.370   4.929  47.589  1.00  0.00     0.000 C 
HETATM    4  C5  UNL     1      22.424   3.607  47.612  1.00  0.00    -0.007 C 
HETATM    5  C6  UNL     1      22.699   2.647  48.678  1.00  0.00     0.155 C 
HETATM    6  N1  UNL     1      23.444   3.207  49.788  1.00  0.00    -0.329 N 
HETATM    7  C7  UNL     1      23.556   2.019  50.603  1.00  0.00     0.131 C 
HETATM    8  C8  UNL     1      24.723   1.965  51.228  1.00  0.00     0.130 C 
HETATM    9  N2  UNL     1      24.846   1.182  52.429  1.00  0.00    -0.232 NA
HETATM   10  C9  UNL     1      24.754   1.866  53.543  1.00  0.00     0.236 C 
HETATM   11  N3  UNL     1      24.583   3.000  52.699  1.00  0.00    -0.230 NA
HETATM   12  C10 UNL     1      23.406   3.489  52.492  1.00  0.00     0.258 C 
HETATM   13  O2  UNL     1      24.058   4.391  51.710  1.00  0.00    -0.288 OA
HETATM   14  C11 UNL     1      24.054   4.455  50.297  1.00  0.00     0.288 C 
HETATM   15  N4  UNL     1      25.428   4.395  49.896  1.00  0.00    -0.257 N 
HETATM   16  S1  UNL     1      26.101   2.872  50.551  1.00  0.00     0.014 SA
ENDROOT
BRANCH  15  17
HETATM   17  C12 UNL     1      26.348   5.192  49.162  1.00  0.00     0.047 A 
HETATM   18  C13 UNL     1      27.634   4.754  48.917  1.00  0.00     0.030 A 
HETATM   19  C14 UNL     1      28.540   5.507  48.214  1.00  0.00     0.004 A 
HETATM   20  C15 UNL     1      28.194   6.744  47.719  1.00  0.00     0.019 A 
HETATM   21  C16 UNL     1      26.929   7.224  47.935  1.00  0.00     0.013 A 
HETATM   22 BR1  UNL     1      26.466   8.937  47.244  1.00  0.00    -0.051 Br
HETATM   23  C17 UNL     1      26.069   6.437  48.639  1.00  0.00     0.049 A 
ENDBRANCH  15  17
BRANCH   1  24
HETATM   24  O1  UNL     1      23.292   6.674  50.853  1.00  0.00    -0.353 OA
HETATM   25  C1  UNL     1      23.295   8.027  50.528  1.00  0.00     0.209 C 
ENDBRANCH   1  24
TORSDOF 2
ENDMDL
MODEL 4
REMARK VINA RESULT:      -7.1     11.949     14.084
REMARK  2 active torsions:
REMARK  status: ('A' for Active; 'I' for Inactive)
REMARK    1  A    between atoms: O1_2  and  C2_3 
REMARK    2  A    between atoms: N4_17  and  C12_18 
ROOT
HETATM    1  C2  UNL     1      33.087   7.832  46.008  1.00  0.00     0.125 C 
HETATM    2  C3  UNL     1      33.940   8.829  46.307  1.00  0.00     0.039 C 
HETATM    3  C4  UNL     1      34.843   9.118  47.413  1.00  0.00     0.000 C 
HETATM    4  C5  UNL     1      35.374   8.184  48.185  1.00  0.00    -0.007 C 
HETATM    5  C6  UNL     1      35.259   6.728  48.199  1.00  0.00     0.155 C 
HETATM    6  N1  UNL     1      34.058   6.234  47.555  1.00  0.00    -0.329 N 
HETATM    7  C7  UNL     1      34.252   4.819  47.776  1.00  0.00     0.131 C 
HETATM    8  C8  UNL     1      33.105   4.200  48.009  1.00  0.00     0.130 C 
HETATM    9  N2  UNL     1      33.000   2.787  47.757  1.00  0.00    -0.232 NA
HETATM   10  C9  UNL     1      32.454   2.473  46.608  1.00  0.00     0.236 C 
HETATM   11  N3  UNL     1      32.342   3.878  46.406  1.00  0.00    -0.230 NA
HETATM   12  C10 UNL     1      33.185   4.499  45.652  1.00  0.00     0.258 C 
HETATM   13  O2  UNL     1      32.458   5.605  45.968  1.00  0.00    -0.288 OA
HETATM   14  C11 UNL     1      32.841   6.660  46.829  1.00  0.00     0.288 C 
HETATM   15  N4  UNL     1      31.817   6.747  47.825  1.00  0.00    -0.257 N 
HETATM   16  S1  UNL     1      31.729   5.150  48.629  1.00  0.00     0.014 SA
ENDROOT
BRANCH  15  17
HETATM   17  C12 UNL     1      30.894   7.714  48.310  1.00  0.00     0.047 A 
HETATM   18  C13 UNL     1      31.319   8.795  49.055  1.00  0.00     0.030 A 
HETATM   19  C14 UNL     1      30.447   9.739  49.535  1.00  0.00     0.004 A 
HETATM   20  C15 UNL     1      29.096   9.640  49.288  1.00  0.00     0.019 A 
HETATM   21  C16 UNL     1      28.624   8.584  48.553  1.00  0.00     0.013 A 
HETATM   22 BR1  UNL     1      26.753   8.462  48.219  1.00  0.00    -0.051 Br
HETATM   23  C17 UNL     1      29.532   7.676  48.100  1.00  0.00     0.049 A 
ENDBRANCH  15  17
BRANCH   1  24
HETATM   24  O1  UNL     1      32.347   7.880  44.808  1.00  0.00    -0.353 OA
HETATM   25  C1  UNL     1      31.166   8.597  44.639  1.00  0.00     0.209 C 
ENDBRANCH   1  24
TORSDOF 2
ENDMDL
MODEL 5
REMARK VINA RESULT:      -6.9      0.985      1.099
REMARK  2 active torsions:
REMARK  status: ('A' for Active; 'I' for Inactive)
REMARK    1  A    between atoms: O1_2  and  C2_3 
REMARK    2  A    between atoms: N4_17  and  C12_18 
ROOT
HETATM    1  C2  UNL     1      21.737   3.940  50.849  1.00  0.00     0.125 C 
HETATM    2  C3  UNL     1      22.710   4.108  49.936  1.00  0.00     0.039 C 
HETATM    3  C4  UNL     1      23.099   3.434  48.704  1.00  0.00     0.000 C 
HETATM    4  C5  UNL     1      22.255   2.751  47.948  1.00  0.00    -0.007 C 
HETATM    5  C6  UNL     1      20.827   2.470  48.066  1.00  0.00     0.155 C 
HETATM    6  N1  UNL     1      20.321   2.583  49.420  1.00  0.00    -0.329 N 
HETATM    7  C7  UNL     1      18.943   2.222  49.174  1.00  0.00     0.131 C 
HETATM    8  C8  UNL     1      18.438   1.518  50.176  1.00  0.00     0.130 C 
HETATM    9  N2  UNL     1      17.013   1.495  50.375  1.00  0.00    -0.232 NA
HETATM   10  C9  UNL     1      16.571   2.326  51.286  1.00  0.00     0.236 C 
HETATM   11  N3  UNL     1      17.936   2.696  51.448  1.00  0.00    -0.230 NA
HETATM   12  C10 UNL     1      18.388   3.779  50.911  1.00  0.00     0.258 C 
HETATM   13  O2  UNL     1      19.571   3.413  51.474  1.00  0.00    -0.288 OA
HETATM   14  C11 UNL     1      20.713   2.911  50.808  1.00  0.00     0.288 C 
HETATM   15  N4  UNL     1      21.007   1.652  51.425  1.00  0.00    -0.257 N 
HETATM   16  S1  UNL     1      19.552   0.626  51.245  1.00  0.00     0.014 SA
ENDROOT
BRANCH  15  17
HETATM   17  C12 UNL     1      22.090   1.042  52.115  1.00  0.00     0.047 A 
HETATM   18  C13 UNL     1      21.870   0.152  53.146  1.00  0.00     0.030 A 
HETATM   19  C14 UNL     1      22.900  -0.446  53.827  1.00  0.00     0.004 A 
HETATM   20  C15 UNL     1      24.209  -0.176  53.502  1.00  0.00     0.019 A 
HETATM   21  C16 UNL     1      24.482   0.701  52.485  1.00  0.00     0.013 A 
HETATM   22 BR1  UNL     1      26.299   1.064  52.047  1.00  0.00    -0.051 Br
HETATM   23  C17 UNL     1      23.423   1.268  51.841  1.00  0.00     0.049 A 
ENDBRANCH  15  17
BRANCH   1  24
HETATM   24  O1  UNL     1      21.657   4.809  51.957  1.00  0.00    -0.353 OA
HETATM   25  C1  UNL     1      22.740   5.176  52.750  1.00  0.00     0.209 C 
ENDBRANCH   1  24
TORSDOF 2
ENDMDL
MODEL 6
REMARK VINA RESULT:      -6.9     11.614     14.098
REMARK  2 active torsions:
REMARK  status: ('A' for Active; 'I' for Inactive)
REMARK    1  A    between atoms: O1_2  and  C2_3 
REMARK    2  A    between atoms: N4_17  and  C12_18 
ROOT
HETATM    1  C2  UNL     1      32.256   7.467  45.204  1.00  0.00     0.125 C 
HETATM    2  C3  UNL     1      32.273   8.811  45.151  1.00  0.00     0.039 C 
HETATM    3  C4  UNL     1      32.617   9.877  46.083  1.00  0.00     0.000 C 
HETATM    4  C5  UNL     1      33.464   9.722  47.088  1.00  0.00    -0.007 C 
HETATM    5  C6  UNL     1      34.246   8.581  47.556  1.00  0.00     0.155 C 
HETATM    6  N1  UNL     1      33.714   7.300  47.136  1.00  0.00    -0.329 N 
HETATM    7  C7  UNL     1      34.679   6.437  47.778  1.00  0.00     0.131 C 
HETATM    8  C8  UNL     1      34.116   5.327  48.230  1.00  0.00     0.130 C 
HETATM    9  N2  UNL     1      34.926   4.154  48.432  1.00  0.00    -0.232 NA
HETATM   10  C9  UNL     1      34.882   3.281  47.455  1.00  0.00     0.236 C 
HETATM   11  N3  UNL     1      33.984   4.194  46.832  1.00  0.00    -0.230 NA
HETATM   12  C10 UNL     1      34.397   4.979  45.895  1.00  0.00     0.258 C 
HETATM   13  O2  UNL     1      33.110   5.423  45.876  1.00  0.00    -0.288 OA
HETATM   14  C11 UNL     1      32.630   6.665  46.355  1.00  0.00     0.288 C 
HETATM   15  N4  UNL     1      31.609   6.351  47.309  1.00  0.00    -0.257 N 
HETATM   16  S1  UNL     1      32.366   5.330  48.571  1.00  0.00     0.014 SA
ENDROOT
BRANCH  15  17
HETATM   17  C12 UNL     1      30.226   6.615  47.500  1.00  0.00     0.047 A 
HETATM   18  C13 UNL     1      29.667   7.814  47.107  1.00  0.00     0.030 A 
HETATM   19  C14 UNL     1      28.335   8.091  47.285  1.00  0.00     0.004 A 
HETATM   20  C15 UNL     1      27.496   7.171  47.870  1.00  0.00     0.019 A 
HETATM   21  C16 UNL     1      28.002   5.965  48.278  1.00  0.00     0.013 A 
HETATM   22 BR1  UNL     1      26.828   4.702  49.086  1.00  0.00    -0.051 Br
HETATM   23  C17 UNL     1      29.331   5.740  48.079  1.00  0.00     0.049 A 
ENDBRANCH  15  17
BRANCH   1  24
HETATM   24  O1  UNL     1      31.852   6.726  44.074  1.00  0.00    -0.353 OA
HETATM   25  C1  UNL     1      32.253   6.997  42.768  1.00  0.00     0.209 C 
ENDBRANCH   1  24
TORSDOF 2
ENDMDL
MODEL 7
REMARK VINA RESULT:      -6.6      3.454      5.604
REMARK  2 active torsions:
REMARK  status: ('A' for Active; 'I' for Inactive)
REMARK    1  A    between atoms: O1_2  and  C2_3 
REMARK    2  A    between atoms: N4_17  and  C12_18 
ROOT
HETATM    1  C2  UNL     1      23.443   2.932  49.267  1.00  0.00     0.125 C 
HETATM    2  C3  UNL     1      24.775   3.112  49.327  1.00  0.00     0.039 C 
HETATM    3  C4  UNL     1      25.755   3.227  50.399  1.00  0.00     0.000 C 
HETATM    4  C5  UNL     1      25.588   2.698  51.600  1.00  0.00    -0.007 C 
HETATM    5  C6  UNL     1      24.507   1.917  52.195  1.00  0.00     0.155 C 
HETATM    6  N1  UNL     1      23.228   2.095  51.535  1.00  0.00    -0.329 N 
HETATM    7  C7  UNL     1      22.423   1.236  52.372  1.00  0.00     0.131 C 
HETATM    8  C8  UNL     1      21.204   1.725  52.542  1.00  0.00     0.130 C 
HETATM    9  N2  UNL     1      20.128   0.835  52.891  1.00  0.00    -0.232 NA
HETATM   10  C9  UNL     1      19.381   0.454  51.884  1.00  0.00     0.236 C 
HETATM   11  N3  UNL     1      20.242   1.263  51.088  1.00  0.00    -0.230 NA
HETATM   12  C10 UNL     1      21.181   0.723  50.386  1.00  0.00     0.258 C 
HETATM   13  O2  UNL     1      21.458   2.001  50.009  1.00  0.00    -0.288 OA
HETATM   14  C11 UNL     1      22.561   2.789  50.411  1.00  0.00     0.288 C 
HETATM   15  N4  UNL     1      22.007   3.981  50.980  1.00  0.00    -0.257 N 
HETATM   16  S1  UNL     1      20.945   3.476  52.329  1.00  0.00     0.014 SA
ENDROOT
BRANCH  15  17
HETATM   17  C12 UNL     1      22.069   5.384  50.758  1.00  0.00     0.047 A 
HETATM   18  C13 UNL     1      23.222   6.097  51.014  1.00  0.00     0.030 A 
HETATM   19  C14 UNL     1      23.303   7.451  50.810  1.00  0.00     0.004 A 
HETATM   20  C15 UNL     1      22.222   8.158  50.335  1.00  0.00     0.019 A 
HETATM   21  C16 UNL     1      21.054   7.496  50.064  1.00  0.00     0.013 A 
HETATM   22 BR1  UNL     1      19.567   8.488  49.407  1.00  0.00    -0.051 Br
HETATM   23  C17 UNL     1      21.026   6.152  50.284  1.00  0.00     0.049 A 
ENDBRANCH  15  17
BRANCH   1  24
HETATM   24  O1  UNL     1      22.800   2.867  48.014  1.00  0.00    -0.353 OA
HETATM   25  C1  UNL     1      22.264   3.964  47.345  1.00  0.00     0.209 C 
ENDBRANCH   1  24
TORSDOF 2
ENDMDL
MODEL 8
REMARK VINA RESULT:      -6.6      3.254      5.161
REMARK  2 active torsions:
REMARK  status: ('A' for Active; 'I' for Inactive)
REMARK    1  A    between atoms: O1_2  and  C2_3 
REMARK    2  A    between atoms: N4_17  and  C12_18 
ROOT
HETATM    1  C2  UNL     1      21.396   3.567  48.872  1.00  0.00     0.125 C 
HETATM    2  C3  UNL     1      20.060   3.626  48.727  1.00  0.00     0.039 C 
HETATM    3  C4  UNL     1      18.993   4.429  49.309  1.00  0.00     0.000 C 
HETATM    4  C5  UNL     1      19.178   5.644  49.800  1.00  0.00    -0.007 C 
HETATM    5  C6  UNL     1      20.360   6.495  49.916  1.00  0.00     0.155 C 
HETATM    6  N1  UNL     1      21.610   5.761  49.887  1.00  0.00    -0.329 N 
HETATM    7  C7  UNL     1      22.523   6.869  50.050  1.00  0.00     0.131 C 
HETATM    8  C8  UNL     1      23.569   6.534  50.789  1.00  0.00     0.130 C 
HETATM    9  N2  UNL     1      24.794   7.280  50.660  1.00  0.00    -0.232 NA
HETATM   10  C9  UNL     1      25.694   6.729  49.883  1.00  0.00     0.236 C 
HETATM   11  N3  UNL     1      24.736   5.691  49.701  1.00  0.00    -0.230 NA
HETATM   12  C10 UNL     1      24.018   5.645  48.630  1.00  0.00     0.258 C 
HETATM   13  O2  UNL     1      23.476   4.532  49.195  1.00  0.00    -0.288 OA
HETATM   14  C11 UNL     1      22.185   4.404  49.759  1.00  0.00     0.288 C 
HETATM   15  N4  UNL     1      22.386   3.950  51.102  1.00  0.00    -0.257 N 
HETATM   16  S1  UNL     1      23.418   5.163  51.919  1.00  0.00     0.014 SA
ENDROOT
BRANCH  15  17
HETATM   17  C12 UNL     1      22.008   2.842  51.909  1.00  0.00     0.047 A 
HETATM   18  C13 UNL     1      20.707   2.684  52.341  1.00  0.00     0.030 A 
HETATM   19  C14 UNL     1      20.321   1.625  53.122  1.00  0.00     0.004 A 
HETATM   20  C15 UNL     1      21.230   0.668  53.511  1.00  0.00     0.019 A 
HETATM   21  C16 UNL     1      22.535   0.779  53.109  1.00  0.00     0.013 A 
HETATM   22 BR1  UNL     1      23.782  -0.553  53.654  1.00  0.00    -0.051 Br
HETATM   23  C17 UNL     1      22.866   1.850  52.334  1.00  0.00     0.049 A 
ENDBRANCH  15  17
BRANCH   1  24
HETATM   24  O1  UNL     1      22.142   2.633  48.123  1.00  0.00    -0.353 OA
HETATM   25  C1  UNL     1      21.996   1.252  48.215  1.00  0.00     0.209 C 
ENDBRANCH   1  24
TORSDOF 2
ENDMDL
MODEL 9
REMARK VINA RESULT:      -6.5      3.440      4.614
REMARK  2 active torsions:
REMARK  status: ('A' for Active; 'I' for Inactive)
REMARK    1  A    between atoms: O1_2  and  C2_3 
REMARK    2  A    between atoms: N4_17  and  C12_18 
ROOT
HETATM    1  C2  UNL     1      22.645   5.948  50.351  1.00  0.00     0.125 C 
HETATM    2  C3  UNL     1      23.552   6.934  50.230  1.00  0.00     0.039 C 
HETATM    3  C4  UNL     1      24.443   7.392  49.173  1.00  0.00     0.000 C 
HETATM    4  C5  UNL     1      24.209   7.200  47.885  1.00  0.00    -0.007 C 
HETATM    5  C6  UNL     1      23.119   6.547  47.165  1.00  0.00     0.155 C 
HETATM    6  N1  UNL     1      22.386   5.585  47.966  1.00  0.00    -0.329 N 
HETATM    7  C7  UNL     1      21.446   5.133  46.966  1.00  0.00     0.131 C 
HETATM    8  C8  UNL     1      21.186   3.840  47.091  1.00  0.00     0.130 C 
HETATM    9  N2  UNL     1      19.955   3.312  46.565  1.00  0.00    -0.232 NA
HETATM   10  C9  UNL     1      18.998   3.163  47.447  1.00  0.00     0.236 C 
HETATM   11  N3  UNL     1      19.940   3.674  48.385  1.00  0.00    -0.230 NA
HETATM   12  C10 UNL     1      19.878   4.906  48.767  1.00  0.00     0.258 C 
HETATM   13  O2  UNL     1      20.960   4.589  49.530  1.00  0.00    -0.288 OA
HETATM   14  C11 UNL     1      22.300   4.989  49.317  1.00  0.00     0.288 C 
HETATM   15  N4  UNL     1      23.065   3.780  49.246  1.00  0.00    -0.257 N 
HETATM   16  S1  UNL     1      22.379   2.801  47.914  1.00  0.00     0.014 SA
ENDROOT
BRANCH  15  17
HETATM   17  C12 UNL     1      24.160   3.183  49.928  1.00  0.00     0.047 A 
HETATM   18  C13 UNL     1      25.463   3.504  49.604  1.00  0.00     0.030 A 
HETATM   19  C14 UNL     1      26.535   2.938  50.246  1.00  0.00     0.004 A 
HETATM   20  C15 UNL     1      26.348   2.016  51.251  1.00  0.00     0.019 A 
HETATM   21  C16 UNL     1      25.074   1.664  51.610  1.00  0.00     0.013 A 
HETATM   22 BR1  UNL     1      24.831   0.388  53.003  1.00  0.00    -0.051 Br
HETATM   23  C17 UNL     1      24.045   2.255  50.941  1.00  0.00     0.049 A 
ENDBRANCH  15  17
BRANCH   1  24
HETATM   24  O1  UNL     1      21.940   5.790  51.563  1.00  0.00    -0.353 OA
HETATM   25  C1  UNL     1      22.362   4.991  52.622  1.00  0.00     0.209 C 
ENDBRANCH   1  24
TORSDOF 2
ENDMDL
