MODEL 1
REMARK VINA RESULT:      -8.1      0.000      0.000
REMARK  8 active torsions:
REMARK  status: ('A' for Active; 'I' for Inactive)
REMARK    1  A    between atoms: C5_5  and  C6_6 
REMARK       I    between atoms: C6_6  and  N1_8 
REMARK    2  A    between atoms: N1_8  and  C7_9 
REMARK    3  A    between atoms: C7_9  and  C8_10 
REMARK    4  A    between atoms: C8_10  and  O2_11 
REMARK    5  A    between atoms: C10_13  and  N2_14 
REMARK    6  A    between atoms: C12_17  and  O3_18 
REMARK    7  A    between atoms: O3_18  and  C13_19 
REMARK    8  A    between atoms: C13_19  and  C14_20 
ROOT
HETATM    1  N2  UNL     1      22.853   2.932  51.859  1.00  0.00    -0.271 N 
HETATM    2  C11 UNL     1      22.568   4.138  52.384  1.00  0.00     0.221 A 
HETATM    3  N3  UNL     1      22.246   5.213  51.641  1.00  0.00    -0.218 NA
HETATM    4  C12 UNL     1      22.193   5.142  50.320  1.00  0.00     0.193 A 
HETATM    5  C20 UNL     1      22.482   3.911  49.721  1.00  0.00     0.155 A 
HETATM    6 CL1  UNL     1      22.460   3.631  47.994  1.00  0.00    -0.074 Cl
HETATM    7  C21 UNL     1      22.811   2.813  50.504  1.00  0.00     0.279 A 
HETATM    8  O4  UNL     1      23.078   1.678  49.989  1.00  0.00    -0.266 OA
ENDROOT
BRANCH   1   9
HETATM    9  C10 UNL     1      23.196   1.777  52.613  1.00  0.00     0.050 A 
HETATM   10  C2  UNL     1      22.088   1.047  53.015  1.00  0.00    -0.035 A 
HETATM   11  C1  UNL     1      20.675   1.431  52.693  1.00  0.00     0.050 C 
HETATM   12  C3  UNL     1      22.256  -0.112  53.761  1.00  0.00     0.010 A 
HETATM   13  C4  UNL     1      23.557  -0.463  54.056  1.00  0.00     0.017 A 
HETATM   14  C5  UNL     1      24.668   0.253  53.662  1.00  0.00     0.034 A 
HETATM   15  C9  UNL     1      24.466   1.390  52.929  1.00  0.00     0.047 A 
BRANCH  14  16
HETATM   16  C6  UNL     1      26.039  -0.127  53.979  1.00  0.00     0.251 C 
HETATM   17  O1  UNL     1      26.497  -1.273  53.704  1.00  0.00    -0.268 OA
HETATM   18  N1  UNL     1      26.986   0.719  54.613  1.00  0.00    -0.355 N 
HETATM   19  H6  UNL     1      26.660   1.697  54.870  1.00  0.00     0.162 HD
BRANCH  18  20
HETATM   20  C7  UNL     1      28.319   0.279  54.896  1.00  0.00     0.148 C 
BRANCH  20  21
HETATM   21  C8  UNL     1      29.287   1.061  54.015  1.00  0.00     0.183 C 
BRANCH  21  22
HETATM   22  O2  UNL     1      29.417   2.335  54.580  1.00  0.00    -0.399 OA
HETATM   23  H11 UNL     1      30.375   2.538  54.729  1.00  0.00     0.209 HD
ENDBRANCH  21  22
ENDBRANCH  20  21
ENDBRANCH  18  20
ENDBRANCH  14  16
ENDBRANCH   1   9
BRANCH   4  24
HETATM   24  O3  UNL     1      21.890   6.109  49.398  1.00  0.00    -0.328 OA
BRANCH  24  25
HETATM   25  C13 UNL     1      22.332   7.432  49.380  1.00  0.00     0.219 C 
BRANCH  25  26
HETATM   26  C14 UNL     1      23.814   7.373  49.126  1.00  0.00     0.004 A 
HETATM   27  C15 UNL     1      24.469   6.995  47.973  1.00  0.00     0.012 A 
HETATM   28  C16 UNL     1      25.841   7.015  47.958  1.00  0.00     0.001 A 
HETATM   29  C17 UNL     1      26.564   7.398  49.051  1.00  0.00     0.003 A 
HETATM   30  C18 UNL     1      25.927   7.784  50.228  1.00  0.00     0.043 A 
HETATM   31  C19 UNL     1      24.535   7.764  50.243  1.00  0.00     0.124 A 
HETATM   32  F1  UNL     1      24.006   8.156  51.432  1.00  0.00    -0.205 F 
ENDBRANCH  25  26
ENDBRANCH  24  25
ENDBRANCH   4  24
TORSDOF 8
ENDMDL
MODEL 2
REMARK VINA RESULT:      -8.1      3.635      7.590
REMARK  8 active torsions:
REMARK  status: ('A' for Active; 'I' for Inactive)
REMARK    1  A    between atoms: C5_5  and  C6_6 
REMARK       I    between atoms: C6_6  and  N1_8 
REMARK    2  A    between atoms: N1_8  and  C7_9 
REMARK    3  A    between atoms: C7_9  and  C8_10 
REMARK    4  A    between atoms: C8_10  and  O2_11 
REMARK    5  A    between atoms: C10_13  and  N2_14 
REMARK    6  A    between atoms: C12_17  and  O3_18 
REMARK    7  A    between atoms: O3_18  and  C13_19 
REMARK    8  A    between atoms: C13_19  and  C14_20 
ROOT
HETATM    1  N2  UNL     1      24.353   4.687  49.471  1.00  0.00    -0.271 N 
HETATM    2  C11 UNL     1      23.815   3.603  48.882  1.00  0.00     0.221 A 
HETATM    3  N3  UNL     1      22.903   2.812  49.476  1.00  0.00    -0.218 NA
HETATM    4  C12 UNL     1      22.476   3.061  50.705  1.00  0.00     0.193 A 
HETATM    5  C20 UNL     1      23.004   4.176  51.364  1.00  0.00     0.155 A 
HETATM    6 CL1  UNL     1      22.557   4.659  52.986  1.00  0.00    -0.074 Cl
HETATM    7  C21 UNL     1      23.943   4.981  50.735  1.00  0.00     0.279 A 
HETATM    8  O4  UNL     1      24.442   6.004  51.309  1.00  0.00    -0.266 OA
ENDROOT
BRANCH   1   9
HETATM    9  C10 UNL     1      25.317   5.543  48.874  1.00  0.00     0.050 A 
HETATM   10  C2  UNL     1      24.749   6.646  48.254  1.00  0.00    -0.035 A 
HETATM   11  C1  UNL     1      23.273   6.912  48.215  1.00  0.00     0.050 C 
HETATM   12  C3  UNL     1      25.559   7.580  47.624  1.00  0.00     0.010 A 
HETATM   13  C4  UNL     1      26.916   7.333  47.661  1.00  0.00     0.017 A 
HETATM   14  C5  UNL     1      27.494   6.241  48.273  1.00  0.00     0.034 A 
HETATM   15  C9  UNL     1      26.667   5.341  48.885  1.00  0.00     0.047 A 
BRANCH  14  16
HETATM   16  C6  UNL     1      28.930   5.990  48.307  1.00  0.00     0.251 C 
HETATM   17  O1  UNL     1      29.414   4.838  48.115  1.00  0.00    -0.268 OA
HETATM   18  N1  UNL     1      29.917   6.980  48.552  1.00  0.00    -0.355 N 
HETATM   19  H6  UNL     1      29.572   7.971  48.721  1.00  0.00     0.162 HD
BRANCH  18  20
HETATM   20  C7  UNL     1      31.314   6.663  48.572  1.00  0.00     0.148 C 
BRANCH  20  21
HETATM   21  C8  UNL     1      31.784   6.627  50.020  1.00  0.00     0.183 C 
BRANCH  21  22
HETATM   22  O2  UNL     1      31.392   5.391  50.548  1.00  0.00    -0.399 OA
HETATM   23  H11 UNL     1      30.673   5.525  51.215  1.00  0.00     0.209 HD
ENDBRANCH  21  22
ENDBRANCH  20  21
ENDBRANCH  18  20
ENDBRANCH  14  16
ENDBRANCH   1   9
BRANCH   4  24
HETATM   24  O3  UNL     1      21.565   2.385  51.474  1.00  0.00    -0.328 OA
BRANCH  24  25
HETATM   25  C13 UNL     1      21.105   1.080  51.295  1.00  0.00     0.219 C 
BRANCH  25  26
HETATM   26  C14 UNL     1      21.641   0.287  52.455  1.00  0.00     0.004 A 
HETATM   27  C15 UNL     1      22.946   0.178  52.887  1.00  0.00     0.012 A 
HETATM   28  C16 UNL     1      23.214  -0.608  53.979  1.00  0.00     0.001 A 
HETATM   29  C17 UNL     1      22.227  -1.278  54.640  1.00  0.00     0.003 A 
HETATM   30  C18 UNL     1      20.900  -1.185  54.225  1.00  0.00     0.043 A 
HETATM   31  C19 UNL     1      20.628  -0.387  53.117  1.00  0.00     0.124 A 
HETATM   32  F1  UNL     1      19.309  -0.360  52.788  1.00  0.00    -0.205 F 
ENDBRANCH  25  26
ENDBRANCH  24  25
ENDBRANCH   4  24
TORSDOF 8
ENDMDL
MODEL 3
REMARK VINA RESULT:      -7.9      1.517      1.764
REMARK  8 active torsions:
REMARK  status: ('A' for Active; 'I' for Inactive)
REMARK    1  A    between atoms: C5_5  and  C6_6 
REMARK       I    between atoms: C6_6  and  N1_8 
REMARK    2  A    between atoms: N1_8  and  C7_9 
REMARK    3  A    between atoms: C7_9  and  C8_10 
REMARK    4  A    between atoms: C8_10  and  O2_11 
REMARK    5  A    between atoms: C10_13  and  N2_14 
REMARK    6  A    between atoms: C12_17  and  O3_18 
REMARK    7  A    between atoms: O3_18  and  C13_19 
REMARK    8  A    between atoms: C13_19  and  C14_20 
ROOT
HETATM    1  N2  UNL     1      23.111   2.565  50.855  1.00  0.00    -0.271 N 
HETATM    2  C11 UNL     1      23.360   2.516  49.533  1.00  0.00     0.221 A 
HETATM    3  N3  UNL     1      23.175   3.559  48.704  1.00  0.00    -0.218 NA
HETATM    4  C12 UNL     1      22.725   4.721  49.154  1.00  0.00     0.193 A 
HETATM    5  C20 UNL     1      22.449   4.827  50.521  1.00  0.00     0.155 A 
HETATM    6 CL1  UNL     1      21.850   6.280  51.290  1.00  0.00    -0.074 Cl
HETATM    7  C21 UNL     1      22.647   3.740  51.360  1.00  0.00     0.279 A 
HETATM    8  O4  UNL     1      22.405   3.805  52.611  1.00  0.00    -0.266 OA
ENDROOT
BRANCH   1   9
HETATM    9  C10 UNL     1      23.295   1.484  51.759  1.00  0.00     0.050 A 
HETATM   10  C2  UNL     1      22.190   0.649  51.834  1.00  0.00    -0.035 A 
HETATM   11  C1  UNL     1      20.931   0.861  51.047  1.00  0.00     0.050 C 
HETATM   12  C3  UNL     1      22.213  -0.455  52.674  1.00  0.00     0.010 A 
HETATM   13  C4  UNL     1      23.372  -0.647  53.395  1.00  0.00     0.017 A 
HETATM   14  C5  UNL     1      24.478   0.173  53.330  1.00  0.00     0.034 A 
HETATM   15  C9  UNL     1      24.422   1.253  52.493  1.00  0.00     0.047 A 
BRANCH  14  16
HETATM   16  C6  UNL     1      25.699  -0.039  54.098  1.00  0.00     0.251 C 
HETATM   17  O1  UNL     1      25.775  -0.914  55.008  1.00  0.00    -0.268 OA
HETATM   18  N1  UNL     1      26.904   0.689  53.917  1.00  0.00    -0.355 N 
HETATM   19  H6  UNL     1      26.903   1.440  53.165  1.00  0.00     0.162 HD
BRANCH  18  20
HETATM   20  C7  UNL     1      28.069   0.427  54.708  1.00  0.00     0.148 C 
BRANCH  20  21
HETATM   21  C8  UNL     1      29.272   1.072  54.032  1.00  0.00     0.183 C 
BRANCH  21  22
HETATM   22  O2  UNL     1      29.464   2.318  54.640  1.00  0.00    -0.399 OA
HETATM   23  H11 UNL     1      30.004   2.209  55.463  1.00  0.00     0.209 HD
ENDBRANCH  21  22
ENDBRANCH  20  21
ENDBRANCH  18  20
ENDBRANCH  14  16
ENDBRANCH   1   9
BRANCH   4  24
HETATM   24  O3  UNL     1      22.473   5.887  48.480  1.00  0.00    -0.328 OA
BRANCH  24  25
HETATM   25  C13 UNL     1      23.311   6.545  47.580  1.00  0.00     0.219 C 
BRANCH  25  26
HETATM   26  C14 UNL     1      24.494   7.017  48.379  1.00  0.00     0.004 A 
HETATM   27  C15 UNL     1      25.770   6.494  48.410  1.00  0.00     0.012 A 
HETATM   28  C16 UNL     1      26.705   7.087  49.220  1.00  0.00     0.001 A 
HETATM   29  C17 UNL     1      26.403   8.173  49.989  1.00  0.00     0.003 A 
HETATM   30  C18 UNL     1      25.122   8.721  49.976  1.00  0.00     0.043 A 
HETATM   31  C19 UNL     1      24.173   8.120  49.155  1.00  0.00     0.124 A 
HETATM   32  F1  UNL     1      22.956   8.723  49.211  1.00  0.00    -0.205 F 
ENDBRANCH  25  26
ENDBRANCH  24  25
ENDBRANCH   4  24
TORSDOF 8
ENDMDL
MODEL 4
REMARK VINA RESULT:      -7.5      2.952      3.677
REMARK  8 active torsions:
REMARK  status: ('A' for Active; 'I' for Inactive)
REMARK    1  A    between atoms: C5_5  and  C6_6 
REMARK       I    between atoms: C6_6  and  N1_8 
REMARK    2  A    between atoms: N1_8  and  C7_9 
REMARK    3  A    between atoms: C7_9  and  C8_10 
REMARK    4  A    between atoms: C8_10  and  O2_11 
REMARK    5  A    between atoms: C10_13  and  N2_14 
REMARK    6  A    between atoms: C12_17  and  O3_18 
REMARK    7  A    between atoms: O3_18  and  C13_19 
REMARK    8  A    between atoms: C13_19  and  C14_20 
ROOT
HETATM    1  N2  UNL     1      22.918   2.041  51.188  1.00  0.00    -0.271 N 
HETATM    2  C11 UNL     1      22.529   1.675  49.953  1.00  0.00     0.221 A 
HETATM    3  N3  UNL     1      22.160   2.551  49.001  1.00  0.00    -0.218 NA
HETATM    4  C12 UNL     1      22.158   3.855  49.234  1.00  0.00     0.193 A 
HETATM    5  C20 UNL     1      22.553   4.291  50.503  1.00  0.00     0.155 A 
HETATM    6 CL1  UNL     1      22.613   5.971  50.988  1.00  0.00    -0.074 Cl
HETATM    7  C21 UNL     1      22.931   3.372  51.471  1.00  0.00     0.279 A 
HETATM    8  O4  UNL     1      23.297   3.738  52.637  1.00  0.00    -0.266 OA
ENDROOT
BRANCH   1   9
HETATM    9  C10 UNL     1      23.314   1.143  52.216  1.00  0.00     0.050 A 
HETATM   10  C2  UNL     1      22.237   0.541  52.850  1.00  0.00    -0.035 A 
HETATM   11  C1  UNL     1      20.805   0.805  52.494  1.00  0.00     0.050 C 
HETATM   12  C3  UNL     1      22.459  -0.365  53.879  1.00  0.00     0.010 A 
HETATM   13  C4  UNL     1      23.777  -0.606  54.205  1.00  0.00     0.017 A 
HETATM   14  C5  UNL     1      24.856  -0.015  53.583  1.00  0.00     0.034 A 
HETATM   15  C9  UNL     1      24.603   0.873  52.574  1.00  0.00     0.047 A 
BRANCH  14  16
HETATM   16  C6  UNL     1      26.246  -0.278  53.935  1.00  0.00     0.251 C 
HETATM   17  O1  UNL     1      26.819  -1.366  53.639  1.00  0.00    -0.268 OA
HETATM   18  N1  UNL     1      27.089   0.630  54.629  1.00  0.00    -0.355 N 
HETATM   19  H6  UNL     1      26.664   1.563  54.907  1.00  0.00     0.162 HD
BRANCH  18  20
HETATM   20  C7  UNL     1      28.448   0.305  54.944  1.00  0.00     0.148 C 
BRANCH  20  21
HETATM   21  C8  UNL     1      29.358   1.345  54.301  1.00  0.00     0.183 C 
BRANCH  21  22
HETATM   22  O2  UNL     1      28.648   2.551  54.275  1.00  0.00    -0.399 OA
HETATM   23  H11 UNL     1      28.764   3.026  55.136  1.00  0.00     0.209 HD
ENDBRANCH  21  22
ENDBRANCH  20  21
ENDBRANCH  18  20
ENDBRANCH  14  16
ENDBRANCH   1   9
BRANCH   4  24
HETATM   24  O3  UNL     1      21.821   4.896  48.408  1.00  0.00    -0.328 OA
BRANCH  24  25
HETATM   25  C13 UNL     1      22.557   5.402  47.337  1.00  0.00     0.219 C 
BRANCH  25  26
HETATM   26  C14 UNL     1      21.627   5.402  46.155  1.00  0.00     0.004 A 
HETATM   27  C15 UNL     1      20.821   6.425  45.700  1.00  0.00     0.012 A 
HETATM   28  C16 UNL     1      20.044   6.207  44.592  1.00  0.00     0.001 A 
HETATM   29  C17 UNL     1      20.050   5.010  43.935  1.00  0.00     0.003 A 
HETATM   30  C18 UNL     1      20.854   3.961  44.374  1.00  0.00     0.043 A 
HETATM   31  C19 UNL     1      21.643   4.182  45.499  1.00  0.00     0.124 A 
HETATM   32  F1  UNL     1      22.391   3.102  45.849  1.00  0.00    -0.205 F 
ENDBRANCH  25  26
ENDBRANCH  24  25
ENDBRANCH   4  24
TORSDOF 8
ENDMDL
MODEL 5
REMARK VINA RESULT:      -7.4      3.419      5.897
REMARK  8 active torsions:
REMARK  status: ('A' for Active; 'I' for Inactive)
REMARK    1  A    between atoms: C5_5  and  C6_6 
REMARK       I    between atoms: C6_6  and  N1_8 
REMARK    2  A    between atoms: N1_8  and  C7_9 
REMARK    3  A    between atoms: C7_9  and  C8_10 
REMARK    4  A    between atoms: C8_10  and  O2_11 
REMARK    5  A    between atoms: C10_13  and  N2_14 
REMARK    6  A    between atoms: C12_17  and  O3_18 
REMARK    7  A    between atoms: O3_18  and  C13_19 
REMARK    8  A    between atoms: C13_19  and  C14_20 
ROOT
HETATM    1  N2  UNL     1      22.356   1.451  52.050  1.00  0.00    -0.271 N 
HETATM    2  C11 UNL     1      23.081   2.372  52.712  1.00  0.00     0.221 A 
HETATM    3  N3  UNL     1      23.802   3.329  52.099  1.00  0.00    -0.218 NA
HETATM    4  C12 UNL     1      23.840   3.417  50.778  1.00  0.00     0.193 A 
HETATM    5  C20 UNL     1      23.104   2.483  50.041  1.00  0.00     0.155 A 
HETATM    6 CL1  UNL     1      23.037   2.447  48.292  1.00  0.00    -0.074 Cl
HETATM    7  C21 UNL     1      22.366   1.505  50.691  1.00  0.00     0.279 A 
HETATM    8  O4  UNL     1      21.685   0.640  50.047  1.00  0.00    -0.266 OA
ENDROOT
BRANCH   1   9
HETATM    9  C10 UNL     1      21.583   0.428  52.665  1.00  0.00     0.050 A 
HETATM   10  C2  UNL     1      22.344  -0.421  53.455  1.00  0.00    -0.035 A 
HETATM   11  C1  UNL     1      23.825  -0.281  53.643  1.00  0.00     0.050 C 
HETATM   12  C3  UNL     1      21.734  -1.473  54.125  1.00  0.00     0.010 A 
HETATM   13  C4  UNL     1      20.372  -1.599  53.950  1.00  0.00     0.017 A 
HETATM   14  C5  UNL     1      19.604  -0.762  53.168  1.00  0.00     0.034 A 
HETATM   15  C9  UNL     1      20.236   0.264  52.522  1.00  0.00     0.047 A 
BRANCH  14  16
HETATM   16  C6  UNL     1      18.164  -0.904  52.991  1.00  0.00     0.251 C 
HETATM   17  O1  UNL     1      17.432  -1.452  53.864  1.00  0.00    -0.268 OA
HETATM   18  N1  UNL     1      17.443  -0.458  51.852  1.00  0.00    -0.355 N 
HETATM   19  H6  UNL     1      18.004   0.011  51.082  1.00  0.00     0.162 HD
BRANCH  18  20
HETATM   20  C7  UNL     1      16.025  -0.631  51.743  1.00  0.00     0.148 C 
BRANCH  20  21
HETATM   21  C8  UNL     1      15.339   0.590  52.341  1.00  0.00     0.183 C 
BRANCH  21  22
HETATM   22  O2  UNL     1      14.814   0.201  53.580  1.00  0.00    -0.399 OA
HETATM   23  H11 UNL     1      14.380   0.976  54.017  1.00  0.00     0.209 HD
ENDBRANCH  21  22
ENDBRANCH  20  21
ENDBRANCH  18  20
ENDBRANCH  14  16
ENDBRANCH   1   9
BRANCH   4  24
HETATM   24  O3  UNL     1      24.505   4.306  49.974  1.00  0.00    -0.328 OA
BRANCH  24  25
HETATM   25  C13 UNL     1      25.854   4.282  49.617  1.00  0.00     0.219 C 
BRANCH  25  26
HETATM   26  C14 UNL     1      26.114   5.570  48.885  1.00  0.00     0.004 A 
HETATM   27  C15 UNL     1      25.227   6.588  48.604  1.00  0.00     0.012 A 
HETATM   28  C16 UNL     1      25.682   7.685  47.918  1.00  0.00     0.001 A 
HETATM   29  C17 UNL     1      26.980   7.789  47.510  1.00  0.00     0.003 A 
HETATM   30  C18 UNL     1      27.896   6.775  47.780  1.00  0.00     0.043 A 
HETATM   31  C19 UNL     1      27.435   5.661  48.477  1.00  0.00     0.124 A 
HETATM   32  F1  UNL     1      28.399   4.728  48.692  1.00  0.00    -0.205 F 
ENDBRANCH  25  26
ENDBRANCH  24  25
ENDBRANCH   4  24
TORSDOF 8
ENDMDL
MODEL 6
REMARK VINA RESULT:      -7.4      3.500      7.841
REMARK  8 active torsions:
REMARK  status: ('A' for Active; 'I' for Inactive)
REMARK    1  A    between atoms: C5_5  and  C6_6 
REMARK       I    between atoms: C6_6  and  N1_8 
REMARK    2  A    between atoms: N1_8  and  C7_9 
REMARK    3  A    between atoms: C7_9  and  C8_10 
REMARK    4  A    between atoms: C8_10  and  O2_11 
REMARK    5  A    between atoms: C10_13  and  N2_14 
REMARK    6  A    between atoms: C12_17  and  O3_18 
REMARK    7  A    between atoms: O3_18  and  C13_19 
REMARK    8  A    between atoms: C13_19  and  C14_20 
ROOT
HETATM    1  N2  UNL     1      24.278   4.763  50.141  1.00  0.00    -0.271 N 
HETATM    2  C11 UNL     1      24.398   4.101  51.307  1.00  0.00     0.221 A 
HETATM    3  N3  UNL     1      23.841   2.898  51.538  1.00  0.00    -0.218 NA
HETATM    4  C12 UNL     1      23.124   2.285  50.609  1.00  0.00     0.193 A 
HETATM    5  C20 UNL     1      22.966   2.929  49.377  1.00  0.00     0.155 A 
HETATM    6 CL1  UNL     1      22.055   2.271  48.036  1.00  0.00    -0.074 Cl
HETATM    7  C21 UNL     1      23.549   4.169  49.157  1.00  0.00     0.279 A 
HETATM    8  O4  UNL     1      23.424   4.781  48.045  1.00  0.00    -0.266 OA
ENDROOT
BRANCH   1   9
HETATM    9  C10 UNL     1      24.852   6.033  49.862  1.00  0.00     0.050 A 
HETATM   10  C2  UNL     1      24.018   7.088  50.200  1.00  0.00    -0.035 A 
HETATM   11  C1  UNL     1      22.653   6.914  50.795  1.00  0.00     0.050 C 
HETATM   12  C3  UNL     1      24.436   8.394  49.989  1.00  0.00     0.010 A 
HETATM   13  C4  UNL     1      25.692   8.551  49.442  1.00  0.00     0.017 A 
HETATM   14  C5  UNL     1      26.532   7.512  49.102  1.00  0.00     0.034 A 
HETATM   15  C9  UNL     1      26.089   6.237  49.323  1.00  0.00     0.047 A 
BRANCH  14  16
HETATM   16  C6  UNL     1      27.858   7.689  48.524  1.00  0.00     0.251 C 
HETATM   17  O1  UNL     1      28.069   7.581  47.282  1.00  0.00    -0.268 OA
HETATM   18  N1  UNL     1      29.029   7.994  49.267  1.00  0.00    -0.355 N 
HETATM   19  H6  UNL     1      28.917   8.097  50.319  1.00  0.00     0.162 HD
BRANCH  18  20
HETATM   20  C7  UNL     1      30.303   8.154  48.633  1.00  0.00     0.148 C 
BRANCH  20  21
HETATM   21  C8  UNL     1      30.889   9.497  49.052  1.00  0.00     0.183 C 
BRANCH  21  22
HETATM   22  O2  UNL     1      30.358   9.802  50.311  1.00  0.00    -0.399 OA
HETATM   23  H11 UNL     1      30.950   9.443  51.019  1.00  0.00     0.209 HD
ENDBRANCH  21  22
ENDBRANCH  20  21
ENDBRANCH  18  20
ENDBRANCH  14  16
ENDBRANCH   1   9
BRANCH   4  24
HETATM   24  O3  UNL     1      22.483   1.074  50.648  1.00  0.00    -0.328 OA
BRANCH  24  25
HETATM   25  C13 UNL     1      21.316   0.755  51.344  1.00  0.00     0.219 C 
BRANCH  25  26
HETATM   26  C14 UNL     1      21.756   0.008  52.573  1.00  0.00     0.004 A 
HETATM   27  C15 UNL     1      23.029  -0.117  53.089  1.00  0.00     0.012 A 
HETATM   28  C16 UNL     1      23.206  -0.852  54.234  1.00  0.00     0.001 A 
HETATM   29  C17 UNL     1      22.159  -1.457  54.867  1.00  0.00     0.003 A 
HETATM   30  C18 UNL     1      20.863  -1.346  54.367  1.00  0.00     0.043 A 
HETATM   31  C19 UNL     1      20.683  -0.600  53.205  1.00  0.00     0.124 A 
HETATM   32  F1  UNL     1      19.388  -0.551  52.796  1.00  0.00    -0.205 F 
ENDBRANCH  25  26
ENDBRANCH  24  25
ENDBRANCH   4  24
TORSDOF 8
ENDMDL
MODEL 7
REMARK VINA RESULT:      -7.4      3.981      6.551
REMARK  8 active torsions:
REMARK  status: ('A' for Active; 'I' for Inactive)
REMARK    1  A    between atoms: C5_5  and  C6_6 
REMARK       I    between atoms: C6_6  and  N1_8 
REMARK    2  A    between atoms: N1_8  and  C7_9 
REMARK    3  A    between atoms: C7_9  and  C8_10 
REMARK    4  A    between atoms: C8_10  and  O2_11 
REMARK    5  A    between atoms: C10_13  and  N2_14 
REMARK    6  A    between atoms: C12_17  and  O3_18 
REMARK    7  A    between atoms: O3_18  and  C13_19 
REMARK    8  A    between atoms: C13_19  and  C14_20 
ROOT
HETATM    1  N2  UNL     1      22.128   2.846  51.590  1.00  0.00    -0.271 N 
HETATM    2  C11 UNL     1      21.431   3.953  51.906  1.00  0.00     0.221 A 
HETATM    3  N3  UNL     1      20.095   3.969  52.069  1.00  0.00    -0.218 NA
HETATM    4  C12 UNL     1      19.375   2.867  51.922  1.00  0.00     0.193 A 
HETATM    5  C20 UNL     1      20.049   1.687  51.592  1.00  0.00     0.155 A 
HETATM    6 CL1  UNL     1      19.262   0.141  51.359  1.00  0.00    -0.074 Cl
HETATM    7  C21 UNL     1      21.427   1.691  51.430  1.00  0.00     0.279 A 
HETATM    8  O4  UNL     1      22.070   0.631  51.130  1.00  0.00    -0.266 OA
ENDROOT
BRANCH   1   9
HETATM    9  C10 UNL     1      23.537   2.794  51.412  1.00  0.00     0.050 A 
HETATM   10  C2  UNL     1      23.928   3.097  50.116  1.00  0.00    -0.035 A 
HETATM   11  C1  UNL     1      22.970   3.443  49.015  1.00  0.00     0.050 C 
HETATM   12  C3  UNL     1      25.275   3.090  49.780  1.00  0.00     0.010 A 
HETATM   13  C4  UNL     1      26.153   2.771  50.795  1.00  0.00     0.017 A 
HETATM   14  C5  UNL     1      25.779   2.468  52.086  1.00  0.00     0.034 A 
HETATM   15  C9  UNL     1      24.444   2.484  52.383  1.00  0.00     0.047 A 
BRANCH  14  16
HETATM   16  C6  UNL     1      26.716   2.133  53.151  1.00  0.00     0.251 C 
HETATM   17  O1  UNL     1      26.372   2.117  54.368  1.00  0.00    -0.268 OA
HETATM   18  N1  UNL     1      28.081   1.798  52.949  1.00  0.00    -0.355 N 
HETATM   19  H6  UNL     1      28.432   1.795  51.946  1.00  0.00     0.162 HD
BRANCH  18  20
HETATM   20  C7  UNL     1      28.948   1.479  54.044  1.00  0.00     0.148 C 
BRANCH  20  21
HETATM   21  C8  UNL     1      29.051  -0.037  54.158  1.00  0.00     0.183 C 
BRANCH  21  22
HETATM   22  O2  UNL     1      28.028  -0.454  55.017  1.00  0.00    -0.399 OA
HETATM   23  H11 UNL     1      27.376  -1.008  54.517  1.00  0.00     0.209 HD
ENDBRANCH  21  22
ENDBRANCH  20  21
ENDBRANCH  18  20
ENDBRANCH  14  16
ENDBRANCH   1   9
BRANCH   4  24
HETATM   24  O3  UNL     1      18.023   2.678  52.042  1.00  0.00    -0.328 OA
BRANCH  24  25
HETATM   25  C13 UNL     1      17.033   3.015  51.119  1.00  0.00     0.219 C 
BRANCH  25  26
HETATM   26  C14 UNL     1      15.721   2.836  51.831  1.00  0.00     0.004 A 
HETATM   27  C15 UNL     1      14.864   1.756  51.788  1.00  0.00     0.012 A 
HETATM   28  C16 UNL     1      13.708   1.803  52.524  1.00  0.00     0.001 A 
HETATM   29  C17 UNL     1      13.389   2.887  53.290  1.00  0.00     0.003 A 
HETATM   30  C18 UNL     1      14.237   3.991  53.352  1.00  0.00     0.043 A 
HETATM   31  C19 UNL     1      15.411   3.943  52.605  1.00  0.00     0.124 A 
HETATM   32  F1  UNL     1      16.170   5.063  52.729  1.00  0.00    -0.205 F 
ENDBRANCH  25  26
ENDBRANCH  24  25
ENDBRANCH   4  24
TORSDOF 8
ENDMDL
MODEL 8
REMARK VINA RESULT:      -7.4      3.788      8.707
REMARK  8 active torsions:
REMARK  status: ('A' for Active; 'I' for Inactive)
REMARK    1  A    between atoms: C5_5  and  C6_6 
REMARK       I    between atoms: C6_6  and  N1_8 
REMARK    2  A    between atoms: N1_8  and  C7_9 
REMARK    3  A    between atoms: C7_9  and  C8_10 
REMARK    4  A    between atoms: C8_10  and  O2_11 
REMARK    5  A    between atoms: C10_13  and  N2_14 
REMARK    6  A    between atoms: C12_17  and  O3_18 
REMARK    7  A    between atoms: O3_18  and  C13_19 
REMARK    8  A    between atoms: C13_19  and  C14_20 
ROOT
HETATM    1  N2  UNL     1      23.844   3.157  50.277  1.00  0.00    -0.271 N 
HETATM    2  C11 UNL     1      25.153   2.878  50.416  1.00  0.00     0.221 A 
HETATM    3  N3  UNL     1      25.639   2.051  51.360  1.00  0.00    -0.218 NA
HETATM    4  C12 UNL     1      24.835   1.452  52.226  1.00  0.00     0.193 A 
HETATM    5  C20 UNL     1      23.464   1.708  52.127  1.00  0.00     0.155 A 
HETATM    6 CL1  UNL     1      22.257   1.007  53.182  1.00  0.00    -0.074 Cl
HETATM    7  C21 UNL     1      22.982   2.563  51.146  1.00  0.00     0.279 A 
HETATM    8  O4  UNL     1      21.737   2.816  51.029  1.00  0.00    -0.266 OA
ENDROOT
BRANCH   1   9
HETATM    9  C10 UNL     1      23.297   4.024  49.293  1.00  0.00     0.050 A 
HETATM   10  C2  UNL     1      23.466   5.366  49.602  1.00  0.00    -0.035 A 
HETATM   11  C1  UNL     1      24.152   5.855  50.841  1.00  0.00     0.050 C 
HETATM   12  C3  UNL     1      22.986   6.340  48.737  1.00  0.00     0.010 A 
HETATM   13  C4  UNL     1      22.355   5.887  47.598  1.00  0.00     0.017 A 
HETATM   14  C5  UNL     1      22.180   4.557  47.278  1.00  0.00     0.034 A 
HETATM   15  C9  UNL     1      22.665   3.623  48.152  1.00  0.00     0.047 A 
BRANCH  14  16
HETATM   16  C6  UNL     1      21.512   4.089  46.070  1.00  0.00     0.251 C 
HETATM   17  O1  UNL     1      22.142   3.522  45.132  1.00  0.00    -0.268 OA
HETATM   18  N1  UNL     1      20.120   4.212  45.817  1.00  0.00    -0.355 N 
HETATM   19  H6  UNL     1      19.536   4.682  46.570  1.00  0.00     0.162 HD
BRANCH  18  20
HETATM   20  C7  UNL     1      19.529   3.730  44.606  1.00  0.00     0.148 C 
BRANCH  20  21
HETATM   21  C8  UNL     1      18.328   2.863  44.962  1.00  0.00     0.183 C 
BRANCH  21  22
HETATM   22  O2  UNL     1      18.306   2.745  46.357  1.00  0.00    -0.399 OA
HETATM   23  H11 UNL     1      17.491   2.260  46.639  1.00  0.00     0.209 HD
ENDBRANCH  21  22
ENDBRANCH  20  21
ENDBRANCH  18  20
ENDBRANCH  14  16
ENDBRANCH   1   9
BRANCH   4  24
HETATM   24  O3  UNL     1      25.131   0.588  53.247  1.00  0.00    -0.328 OA
BRANCH  24  25
HETATM   25  C13 UNL     1      25.580  -0.729  53.141  1.00  0.00     0.219 C 
BRANCH  25  26
HETATM   26  C14 UNL     1      27.057  -0.689  53.425  1.00  0.00     0.004 A 
HETATM   27  C15 UNL     1      27.774   0.281  54.094  1.00  0.00     0.012 A 
HETATM   28  C16 UNL     1      29.127   0.115  54.241  1.00  0.00     0.001 A 
HETATM   29  C17 UNL     1      29.774  -0.979  53.743  1.00  0.00     0.003 A 
HETATM   30  C18 UNL     1      29.074  -1.973  53.063  1.00  0.00     0.043 A 
HETATM   31  C19 UNL     1      27.700  -1.805  52.914  1.00  0.00     0.124 A 
HETATM   32  F1  UNL     1      27.106  -2.824  52.238  1.00  0.00    -0.205 F 
ENDBRANCH  25  26
ENDBRANCH  24  25
ENDBRANCH   4  24
TORSDOF 8
ENDMDL
MODEL 9
REMARK VINA RESULT:      -7.4      3.871      8.041
REMARK  8 active torsions:
REMARK  status: ('A' for Active; 'I' for Inactive)
REMARK    1  A    between atoms: C5_5  and  C6_6 
REMARK       I    between atoms: C6_6  and  N1_8 
REMARK    2  A    between atoms: N1_8  and  C7_9 
REMARK    3  A    between atoms: C7_9  and  C8_10 
REMARK    4  A    between atoms: C8_10  and  O2_11 
REMARK    5  A    between atoms: C10_13  and  N2_14 
REMARK    6  A    between atoms: C12_17  and  O3_18 
REMARK    7  A    between atoms: O3_18  and  C13_19 
REMARK    8  A    between atoms: C13_19  and  C14_20 
ROOT
HETATM    1  N2  UNL     1      25.361   5.702  49.805  1.00  0.00    -0.271 N 
HETATM    2  C11 UNL     1      24.357   5.785  50.698  1.00  0.00     0.221 A 
HETATM    3  N3  UNL     1      23.959   4.752  51.464  1.00  0.00    -0.218 NA
HETATM    4  C12 UNL     1      24.546   3.569  51.377  1.00  0.00     0.193 A 
HETATM    5  C20 UNL     1      25.596   3.427  50.464  1.00  0.00     0.155 A 
HETATM    6 CL1  UNL     1      26.486   1.942  50.215  1.00  0.00    -0.074 Cl
HETATM    7  C21 UNL     1      25.993   4.504  49.683  1.00  0.00     0.279 A 
HETATM    8  O4  UNL     1      26.947   4.407  48.842  1.00  0.00    -0.266 OA
ENDROOT
BRANCH   1   9
HETATM    9  C10 UNL     1      25.807   6.771  48.981  1.00  0.00     0.050 A 
HETATM   10  C2  UNL     1      24.897   7.103  47.988  1.00  0.00    -0.035 A 
HETATM   11  C1  UNL     1      23.581   6.411  47.799  1.00  0.00     0.050 C 
HETATM   12  C3  UNL     1      25.187   8.130  47.101  1.00  0.00     0.010 A 
HETATM   13  C4  UNL     1      26.398   8.765  47.277  1.00  0.00     0.017 A 
HETATM   14  C5  UNL     1      27.312   8.445  48.260  1.00  0.00     0.034 A 
HETATM   15  C9  UNL     1      26.995   7.429  49.118  1.00  0.00     0.047 A 
BRANCH  14  16
HETATM   16  C6  UNL     1      28.589   9.124  48.438  1.00  0.00     0.251 C 
HETATM   17  O1  UNL     1      28.930  10.110  47.724  1.00  0.00    -0.268 OA
HETATM   18  N1  UNL     1      29.567   8.765  49.403  1.00  0.00    -0.355 N 
HETATM   19  H6  UNL     1      29.338   7.941  50.034  1.00  0.00     0.162 HD
BRANCH  18  20
HETATM   20  C7  UNL     1      30.804   9.476  49.523  1.00  0.00     0.148 C 
BRANCH  20  21
HETATM   21  C8  UNL     1      31.951   8.477  49.431  1.00  0.00     0.183 C 
BRANCH  21  22
HETATM   22  O2  UNL     1      31.566   7.343  50.156  1.00  0.00    -0.399 OA
HETATM   23  H11 UNL     1      32.368   6.897  50.529  1.00  0.00     0.209 HD
ENDBRANCH  21  22
ENDBRANCH  20  21
ENDBRANCH  18  20
ENDBRANCH  14  16
ENDBRANCH   1   9
BRANCH   4  24
HETATM   24  O3  UNL     1      24.291   2.408  52.060  1.00  0.00    -0.328 OA
BRANCH  24  25
HETATM   25  C13 UNL     1      24.546   2.141  53.405  1.00  0.00     0.219 C 
BRANCH  25  26
HETATM   26  C14 UNL     1      25.825   1.350  53.438  1.00  0.00     0.004 A 
HETATM   27  C15 UNL     1      27.106   1.804  53.677  1.00  0.00     0.012 A 
HETATM   28  C16 UNL     1      28.137   0.900  53.660  1.00  0.00     0.001 A 
HETATM   29  C17 UNL     1      27.926  -0.425  53.412  1.00  0.00     0.003 A 
HETATM   30  C18 UNL     1      26.643  -0.909  53.167  1.00  0.00     0.043 A 
HETATM   31  C19 UNL     1      25.596   0.007  53.185  1.00  0.00     0.124 A 
HETATM   32  F1  UNL     1      24.385  -0.558  52.935  1.00  0.00    -0.205 F 
ENDBRANCH  25  26
ENDBRANCH  24  25
ENDBRANCH   4  24
TORSDOF 8
ENDMDL
