MODEL 1
REMARK VINA RESULT:      -8.6      0.000      0.000
REMARK  4 active torsions:
REMARK  status: ('A' for Active; 'I' for Inactive)
REMARK       I    between atoms: C2_2  and  N1_4 
REMARK    1  A    between atoms: N1_4  and  C3_5 
REMARK    2  A    between atoms: C8_10  and  N2_11 
REMARK    3  A    between atoms: N2_11  and  C9_12 
REMARK    4  A    between atoms: C11_16  and  C12_17 
ROOT
HETATM    1  N2  UNL     1      22.712   1.119  51.754  1.00  0.00    -0.188 N 
HETATM    2  H10 UNL     1      22.151   0.554  51.043  1.00  0.00     0.184 HD
ENDROOT
BRANCH   1   3
HETATM    3  C8  UNL     1      23.273   0.366  52.816  1.00  0.00     0.057 A 
HETATM    4  C6  UNL     1      22.493  -0.143  53.851  1.00  0.00    -0.035 A 
HETATM    5  C5  UNL     1      22.999  -0.879  54.893  1.00  0.00     0.011 A 
HETATM    6  C7  UNL     1      21.014   0.141  53.807  1.00  0.00     0.050 C 
HETATM    7  C4  UNL     1      24.348  -1.157  54.962  1.00  0.00     0.030 A 
HETATM    8  C3  UNL     1      25.173  -0.679  53.964  1.00  0.00     0.036 A 
HETATM    9  C17 UNL     1      24.604   0.052  52.951  1.00  0.00     0.060 A 
BRANCH   8  10
HETATM   10  N1  UNL     1      26.541  -0.973  54.056  1.00  0.00    -0.327 N 
HETATM   11  C2  UNL     1      27.217   0.175  54.598  1.00  0.00     0.218 C 
HETATM   12  C1  UNL     1      28.688   0.324  54.877  1.00  0.00     0.117 C 
HETATM   13  O1  UNL     1      26.640   1.248  54.922  1.00  0.00    -0.274 OA
HETATM   14  H4  UNL     1      27.211  -1.767  53.854  1.00  0.00     0.169 HD
ENDBRANCH   8  10
ENDBRANCH   1   3
BRANCH   1  15
HETATM   15  C9  UNL     1      22.853   2.524  51.584  1.00  0.00     0.724 A 
HETATM   16  N3  UNL     1      21.937   3.230  52.096  1.00  0.00    -0.095 NA
HETATM   17  C10 UNL     1      21.722   4.626  52.143  1.00  0.00     0.249 A 
HETATM   18  S1  UNL     1      23.049   5.488  51.281  1.00  0.00    -0.086 SA
HETATM   19  C11 UNL     1      24.180   4.260  50.670  1.00  0.00     0.125 A 
HETATM   20  N5  UNL     1      23.985   2.998  50.867  1.00  0.00    -0.055 NA
BRANCH  19  21
HETATM   21  C12 UNL     1      25.373   4.619  49.923  1.00  0.00     0.018 A 
HETATM   22  C13 UNL     1      25.495   5.881  49.383  1.00  0.00     0.017 A 
HETATM   23  C14 UNL     1      26.654   6.179  48.677  1.00  0.00     0.020 A 
HETATM   24  C15 UNL     1      27.648   5.215  48.531  1.00  0.00     0.116 A 
HETATM   25  N4  UNL     1      27.510   3.984  49.069  1.00  0.00    -0.272 NA
HETATM   26  C16 UNL     1      26.391   3.687  49.754  1.00  0.00     0.130 A 
ENDBRANCH  19  21
ENDBRANCH   1  15
TORSDOF 4
ENDMDL
MODEL 2
REMARK VINA RESULT:      -8.4      1.415      1.685
REMARK  4 active torsions:
REMARK  status: ('A' for Active; 'I' for Inactive)
REMARK       I    between atoms: C2_2  and  N1_4 
REMARK    1  A    between atoms: N1_4  and  C3_5 
REMARK    2  A    between atoms: C8_10  and  N2_11 
REMARK    3  A    between atoms: N2_11  and  C9_12 
REMARK    4  A    between atoms: C11_16  and  C12_17 
ROOT
HETATM    1  N2  UNL     1      23.729   1.368  51.629  1.00  0.00    -0.188 N 
HETATM    2  H10 UNL     1      23.295   0.732  50.891  1.00  0.00     0.184 HD
ENDROOT
BRANCH   1   3
HETATM    3  C8  UNL     1      24.361   0.697  52.707  1.00  0.00     0.057 A 
HETATM    4  C6  UNL     1      23.664  -0.159  53.554  1.00  0.00    -0.035 A 
HETATM    5  C5  UNL     1      24.242  -0.828  54.603  1.00  0.00     0.011 A 
HETATM    6  C7  UNL     1      22.193  -0.348  53.289  1.00  0.00     0.050 C 
HETATM    7  C4  UNL     1      25.585  -0.678  54.873  1.00  0.00     0.030 A 
HETATM    8  C3  UNL     1      26.331   0.158  54.067  1.00  0.00     0.036 A 
HETATM    9  C17 UNL     1      25.692   0.799  53.035  1.00  0.00     0.060 A 
BRANCH   8  10
HETATM   10  N1  UNL     1      27.695   0.296  54.360  1.00  0.00    -0.327 N 
HETATM   11  C2  UNL     1      28.408  -0.778  53.722  1.00  0.00     0.218 C 
HETATM   12  C1  UNL     1      29.889  -1.041  53.755  1.00  0.00     0.117 C 
HETATM   13  O1  UNL     1      27.860  -1.675  53.025  1.00  0.00    -0.274 OA
HETATM   14  H4  UNL     1      28.345   0.938  54.896  1.00  0.00     0.169 HD
ENDBRANCH   8  10
ENDBRANCH   1   3
BRANCH   1  15
HETATM   15  C9  UNL     1      23.648   2.779  51.480  1.00  0.00     0.724 A 
HETATM   16  N3  UNL     1      22.658   3.332  52.040  1.00  0.00    -0.095 NA
HETATM   17  C10 UNL     1      22.235   4.679  52.120  1.00  0.00     0.249 A 
HETATM   18  S1  UNL     1      23.381   5.742  51.224  1.00  0.00    -0.086 SA
HETATM   19  C11 UNL     1      24.659   4.708  50.548  1.00  0.00     0.125 A 
HETATM   20  N5  UNL     1      24.665   3.430  50.729  1.00  0.00    -0.055 NA
BRANCH  19  21
HETATM   21  C12 UNL     1      25.752   5.254  49.763  1.00  0.00     0.018 A 
HETATM   22  C13 UNL     1      26.746   4.424  49.292  1.00  0.00     0.017 A 
HETATM   23  C14 UNL     1      27.771   4.992  48.546  1.00  0.00     0.020 A 
HETATM   24  C15 UNL     1      27.773   6.362  48.294  1.00  0.00     0.116 A 
HETATM   25  N4  UNL     1      26.790   7.158  48.764  1.00  0.00    -0.272 NA
HETATM   26  C16 UNL     1      25.794   6.617  49.487  1.00  0.00     0.130 A 
ENDBRANCH  19  21
ENDBRANCH   1  15
TORSDOF 4
ENDMDL
MODEL 3
REMARK VINA RESULT:      -8.1      1.809      2.123
REMARK  4 active torsions:
REMARK  status: ('A' for Active; 'I' for Inactive)
REMARK       I    between atoms: C2_2  and  N1_4 
REMARK    1  A    between atoms: N1_4  and  C3_5 
REMARK    2  A    between atoms: C8_10  and  N2_11 
REMARK    3  A    between atoms: N2_11  and  C9_12 
REMARK    4  A    between atoms: C11_16  and  C12_17 
ROOT
HETATM    1  N2  UNL     1      22.529   3.532  52.369  1.00  0.00    -0.188 N 
HETATM    2  H10 UNL     1      21.560   3.438  52.805  1.00  0.00     0.184 HD
ENDROOT
BRANCH   1   3
HETATM    3  C8  UNL     1      23.434   2.484  52.677  1.00  0.00     0.057 A 
HETATM    4  C6  UNL     1      23.199   1.169  52.285  1.00  0.00    -0.035 A 
HETATM    5  C5  UNL     1      24.052   0.130  52.560  1.00  0.00     0.011 A 
HETATM    6  C7  UNL     1      21.933   0.891  51.518  1.00  0.00     0.050 C 
HETATM    7  C4  UNL     1      25.219   0.351  53.260  1.00  0.00     0.030 A 
HETATM    8  C3  UNL     1      25.508   1.635  53.675  1.00  0.00     0.036 A 
HETATM    9  C17 UNL     1      24.613   2.629  53.368  1.00  0.00     0.060 A 
BRANCH   8  10
HETATM   10  N1  UNL     1      26.701   1.835  54.385  1.00  0.00    -0.327 N 
HETATM   11  C2  UNL     1      27.735   2.180  53.447  1.00  0.00     0.218 C 
HETATM   12  C1  UNL     1      29.178   2.485  53.747  1.00  0.00     0.117 C 
HETATM   13  O1  UNL     1      27.559   2.275  52.202  1.00  0.00    -0.274 OA
HETATM   14  H4  UNL     1      27.062   1.812  55.380  1.00  0.00     0.169 HD
ENDBRANCH   8  10
ENDBRANCH   1   3
BRANCH   1  15
HETATM   15  C9  UNL     1      22.826   4.651  51.544  1.00  0.00     0.724 A 
HETATM   16  N3  UNL     1      21.924   5.534  51.477  1.00  0.00    -0.095 NA
HETATM   17  C10 UNL     1      21.839   6.762  50.781  1.00  0.00     0.249 A 
HETATM   18  S1  UNL     1      23.345   7.041  49.831  1.00  0.00    -0.086 SA
HETATM   19  C11 UNL     1      24.422   5.655  50.110  1.00  0.00     0.125 A 
HETATM   20  N5  UNL     1      24.083   4.674  50.878  1.00  0.00    -0.055 NA
BRANCH  19  21
HETATM   21  C12 UNL     1      25.731   5.564  49.488  1.00  0.00     0.018 A 
HETATM   22  C13 UNL     1      26.276   6.663  48.861  1.00  0.00     0.017 A 
HETATM   23  C14 UNL     1      27.531   6.528  48.279  1.00  0.00     0.020 A 
HETATM   24  C15 UNL     1      28.198   5.307  48.340  1.00  0.00     0.116 A 
HETATM   25  N4  UNL     1      27.648   4.242  48.960  1.00  0.00    -0.272 NA
HETATM   26  C16 UNL     1      26.434   4.363  49.525  1.00  0.00     0.130 A 
ENDBRANCH  19  21
ENDBRANCH   1  15
TORSDOF 4
ENDMDL
MODEL 4
REMARK VINA RESULT:      -7.9      1.555      2.237
REMARK  4 active torsions:
REMARK  status: ('A' for Active; 'I' for Inactive)
REMARK       I    between atoms: C2_2  and  N1_4 
REMARK    1  A    between atoms: N1_4  and  C3_5 
REMARK    2  A    between atoms: C8_10  and  N2_11 
REMARK    3  A    between atoms: N2_11  and  C9_12 
REMARK    4  A    between atoms: C11_16  and  C12_17 
ROOT
HETATM    1  N2  UNL     1      23.726   2.606  50.350  1.00  0.00    -0.188 N 
HETATM    2  H10 UNL     1      23.213   2.178  49.517  1.00  0.00     0.184 HD
ENDROOT
BRANCH   1   3
HETATM    3  C8  UNL     1      24.063   1.695  51.383  1.00  0.00     0.057 A 
HETATM    4  C6  UNL     1      23.097   1.114  52.198  1.00  0.00    -0.035 A 
HETATM    5  C5  UNL     1      23.384   0.226  53.204  1.00  0.00     0.011 A 
HETATM    6  C7  UNL     1      21.660   1.493  51.947  1.00  0.00     0.050 C 
HETATM    7  C4  UNL     1      24.687  -0.143  53.460  1.00  0.00     0.030 A 
HETATM    8  C3  UNL     1      25.691   0.400  52.684  1.00  0.00     0.036 A 
HETATM    9  C17 UNL     1      25.337   1.283  51.694  1.00  0.00     0.060 A 
BRANCH   8  10
HETATM   10  N1  UNL     1      27.010   0.011  52.962  1.00  0.00    -0.327 N 
HETATM   11  C2  UNL     1      27.530   0.872  53.991  1.00  0.00     0.218 C 
HETATM   12  C1  UNL     1      28.900   0.832  54.612  1.00  0.00     0.117 C 
HETATM   13  O1  UNL     1      26.877   1.809  54.526  1.00  0.00    -0.274 OA
HETATM   14  H4  UNL     1      27.722  -0.709  52.653  1.00  0.00     0.169 HD
ENDBRANCH   8  10
ENDBRANCH   1   3
BRANCH   1  15
HETATM   15  C9  UNL     1      24.025   3.996  50.356  1.00  0.00     0.724 A 
HETATM   16  N3  UNL     1      23.171   4.735  50.924  1.00  0.00    -0.095 NA
HETATM   17  C10 UNL     1      23.106   6.132  51.133  1.00  0.00     0.249 A 
HETATM   18  S1  UNL     1      24.554   6.934  50.420  1.00  0.00    -0.086 SA
HETATM   19  C11 UNL     1      25.570   5.666  49.697  1.00  0.00     0.125 A 
HETATM   20  N5  UNL     1      25.231   4.421  49.733  1.00  0.00    -0.055 NA
BRANCH  19  21
HETATM   21  C12 UNL     1      26.824   5.975  49.033  1.00  0.00     0.018 A 
HETATM   22  C13 UNL     1      27.704   4.963  48.714  1.00  0.00     0.017 A 
HETATM   23  C14 UNL     1      28.891   5.307  48.080  1.00  0.00     0.020 A 
HETATM   24  C15 UNL     1      29.163   6.641  47.786  1.00  0.00     0.116 A 
HETATM   25  N4  UNL     1      28.288   7.617  48.107  1.00  0.00    -0.272 NA
HETATM   26  C16 UNL     1      27.137   7.294  48.721  1.00  0.00     0.130 A 
ENDBRANCH  19  21
ENDBRANCH   1  15
TORSDOF 4
ENDMDL
MODEL 5
REMARK VINA RESULT:      -7.8      2.677      7.074
REMARK  4 active torsions:
REMARK  status: ('A' for Active; 'I' for Inactive)
REMARK       I    between atoms: C2_2  and  N1_4 
REMARK    1  A    between atoms: N1_4  and  C3_5 
REMARK    2  A    between atoms: C8_10  and  N2_11 
REMARK    3  A    between atoms: N2_11  and  C9_12 
REMARK    4  A    between atoms: C11_16  and  C12_17 
ROOT
HETATM    1  N2  UNL     1      26.897   3.038  51.211  1.00  0.00    -0.188 N 
HETATM    2  H10 UNL     1      27.739   3.572  50.832  1.00  0.00     0.184 HD
ENDROOT
BRANCH   1   3
HETATM    3  C8  UNL     1      25.666   3.317  50.566  1.00  0.00     0.057 A 
HETATM    4  C6  UNL     1      25.569   4.237  49.527  1.00  0.00    -0.035 A 
HETATM    5  C5  UNL     1      24.397   4.530  48.877  1.00  0.00     0.011 A 
HETATM    6  C7  UNL     1      26.833   4.942  49.107  1.00  0.00     0.050 C 
HETATM    7  C4  UNL     1      23.223   3.903  49.236  1.00  0.00     0.030 A 
HETATM    8  C3  UNL     1      23.255   2.979  50.260  1.00  0.00     0.036 A 
HETATM    9  C17 UNL     1      24.459   2.732  50.870  1.00  0.00     0.060 A 
BRANCH   8  10
HETATM   10  N1  UNL     1      22.048   2.354  50.609  1.00  0.00    -0.327 N 
HETATM   11  C2  UNL     1      21.497   3.035  51.750  1.00  0.00     0.218 C 
HETATM   12  C1  UNL     1      20.216   2.720  52.473  1.00  0.00     0.117 C 
HETATM   13  O1  UNL     1      22.040   4.024  52.314  1.00  0.00    -0.274 OA
HETATM   14  H4  UNL     1      21.434   1.552  50.293  1.00  0.00     0.169 HD
ENDBRANCH   8  10
ENDBRANCH   1   3
BRANCH   1  15
HETATM   15  C9  UNL     1      27.068   2.121  52.284  1.00  0.00     0.724 A 
HETATM   16  N3  UNL     1      28.244   2.027  52.739  1.00  0.00    -0.095 NA
HETATM   17  C10 UNL     1      28.807   1.247  53.776  1.00  0.00     0.249 A 
HETATM   18  S1  UNL     1      27.538   0.218  54.537  1.00  0.00    -0.086 SA
HETATM   19  C11 UNL     1      26.003   0.554  53.706  1.00  0.00     0.125 A 
HETATM   20  N5  UNL     1      25.926   1.405  52.738  1.00  0.00    -0.055 NA
BRANCH  19  21
HETATM   21  C12 UNL     1      24.768  -0.113  54.078  1.00  0.00     0.018 A 
HETATM   22  C13 UNL     1      23.642   0.033  53.298  1.00  0.00     0.017 A 
HETATM   23  C14 UNL     1      22.484  -0.624  53.694  1.00  0.00     0.020 A 
HETATM   24  C15 UNL     1      22.484  -1.401  54.850  1.00  0.00     0.116 A 
HETATM   25  N4  UNL     1      23.598  -1.532  55.601  1.00  0.00    -0.272 NA
HETATM   26  C16 UNL     1      24.724  -0.899  55.225  1.00  0.00     0.130 A 
ENDBRANCH  19  21
ENDBRANCH   1  15
TORSDOF 4
ENDMDL
MODEL 6
REMARK VINA RESULT:      -7.8      2.605      6.194
REMARK  4 active torsions:
REMARK  status: ('A' for Active; 'I' for Inactive)
REMARK       I    between atoms: C2_2  and  N1_4 
REMARK    1  A    between atoms: N1_4  and  C3_5 
REMARK    2  A    between atoms: C8_10  and  N2_11 
REMARK    3  A    between atoms: N2_11  and  C9_12 
REMARK    4  A    between atoms: C11_16  and  C12_17 
ROOT
HETATM    1  N2  UNL     1      22.170   1.173  51.875  1.00  0.00    -0.188 N 
HETATM    2  H10 UNL     1      21.594   0.701  51.111  1.00  0.00     0.184 HD
ENDROOT
BRANCH   1   3
HETATM    3  C8  UNL     1      22.345   2.572  51.721  1.00  0.00     0.057 A 
HETATM    4  C6  UNL     1      21.282   3.464  51.823  1.00  0.00    -0.035 A 
HETATM    5  C5  UNL     1      21.414   4.823  51.685  1.00  0.00     0.011 A 
HETATM    6  C7  UNL     1      19.919   2.887  52.101  1.00  0.00     0.050 C 
HETATM    7  C4  UNL     1      22.647   5.383  51.431  1.00  0.00     0.030 A 
HETATM    8  C3  UNL     1      23.741   4.549  51.319  1.00  0.00     0.036 A 
HETATM    9  C17 UNL     1      23.542   3.199  51.467  1.00  0.00     0.060 A 
BRANCH   8  10
HETATM   10  N1  UNL     1      24.986   5.141  51.060  1.00  0.00    -0.327 N 
HETATM   11  C2  UNL     1      25.217   5.108  49.640  1.00  0.00     0.218 C 
HETATM   12  C1  UNL     1      26.417   5.629  48.896  1.00  0.00     0.117 C 
HETATM   13  O1  UNL     1      24.411   4.619  48.803  1.00  0.00    -0.274 OA
HETATM   14  H4  UNL     1      25.787   5.596  51.580  1.00  0.00     0.169 HD
ENDBRANCH   8  10
ENDBRANCH   1   3
BRANCH   1  15
HETATM   15  C9  UNL     1      22.691   0.397  52.946  1.00  0.00     0.724 A 
HETATM   16  N3  UNL     1      21.831  -0.094  53.733  1.00  0.00    -0.095 NA
HETATM   17  C10 UNL     1      21.944  -0.901  54.888  1.00  0.00     0.249 A 
HETATM   18  S1  UNL     1      23.678  -1.245  55.236  1.00  0.00    -0.086 SA
HETATM   19  C11 UNL     1      24.649  -0.439  53.984  1.00  0.00     0.125 A 
HETATM   20  N5  UNL     1      24.102   0.249  53.038  1.00  0.00    -0.055 NA
BRANCH  19  21
HETATM   21  C12 UNL     1      26.099  -0.517  53.969  1.00  0.00     0.018 A 
HETATM   22  C13 UNL     1      26.746  -1.160  52.937  1.00  0.00     0.017 A 
HETATM   23  C14 UNL     1      28.134  -1.210  52.966  1.00  0.00     0.020 A 
HETATM   24  C15 UNL     1      28.830  -0.620  54.019  1.00  0.00     0.116 A 
HETATM   25  N4  UNL     1      28.178   0.006  55.021  1.00  0.00    -0.272 NA
HETATM   26  C16 UNL     1      26.834   0.059  55.001  1.00  0.00     0.130 A 
ENDBRANCH  19  21
ENDBRANCH   1  15
TORSDOF 4
ENDMDL
MODEL 7
REMARK VINA RESULT:      -7.7      3.288      6.407
REMARK  4 active torsions:
REMARK  status: ('A' for Active; 'I' for Inactive)
REMARK       I    between atoms: C2_2  and  N1_4 
REMARK    1  A    between atoms: N1_4  and  C3_5 
REMARK    2  A    between atoms: C8_10  and  N2_11 
REMARK    3  A    between atoms: N2_11  and  C9_12 
REMARK    4  A    between atoms: C11_16  and  C12_17 
ROOT
HETATM    1  N2  UNL     1      22.735   0.898  53.566  1.00  0.00    -0.188 N 
HETATM    2  H10 UNL     1      22.709   0.798  54.628  1.00  0.00     0.184 HD
ENDROOT
BRANCH   1   3
HETATM    3  C8  UNL     1      21.487   0.732  52.914  1.00  0.00     0.057 A 
HETATM    4  C6  UNL     1      20.615  -0.301  53.242  1.00  0.00    -0.035 A 
HETATM    5  C5  UNL     1      19.398  -0.491  52.637  1.00  0.00     0.011 A 
HETATM    6  C7  UNL     1      21.048  -1.255  54.325  1.00  0.00     0.050 C 
HETATM    7  C4  UNL     1      18.971   0.364  51.643  1.00  0.00     0.030 A 
HETATM    8  C3  UNL     1      19.793   1.409  51.273  1.00  0.00     0.036 A 
HETATM    9  C17 UNL     1      20.998   1.542  51.917  1.00  0.00     0.060 A 
BRANCH   8  10
HETATM   10  N1  UNL     1      19.338   2.265  50.259  1.00  0.00    -0.327 N 
HETATM   11  C2  UNL     1      18.712   3.405  50.874  1.00  0.00     0.218 C 
HETATM   12  C1  UNL     1      18.080   4.584  50.186  1.00  0.00     0.117 C 
HETATM   13  O1  UNL     1      18.608   3.568  52.120  1.00  0.00    -0.274 OA
HETATM   14  H4  UNL     1      19.318   2.326  49.203  1.00  0.00     0.169 HD
ENDBRANCH   8  10
ENDBRANCH   1   3
BRANCH   1  15
HETATM   15  C9  UNL     1      23.966   1.183  52.914  1.00  0.00     0.724 A 
HETATM   16  N3  UNL     1      23.984   2.241  52.222  1.00  0.00    -0.095 NA
HETATM   17  C10 UNL     1      24.992   2.854  51.442  1.00  0.00     0.249 A 
HETATM   18  S1  UNL     1      26.502   1.873  51.498  1.00  0.00    -0.086 SA
HETATM   19  C11 UNL     1      26.189   0.461  52.531  1.00  0.00     0.125 A 
HETATM   20  N5  UNL     1      25.042   0.271  53.093  1.00  0.00    -0.055 NA
BRANCH  19  21
HETATM   21  C12 UNL     1      27.208  -0.541  52.790  1.00  0.00     0.018 A 
HETATM   22  C13 UNL     1      28.435  -0.164  53.291  1.00  0.00     0.017 A 
HETATM   23  C14 UNL     1      29.379  -1.158  53.523  1.00  0.00     0.020 A 
HETATM   24  C15 UNL     1      29.070  -2.488  53.248  1.00  0.00     0.116 A 
HETATM   25  N4  UNL     1      27.862  -2.837  52.758  1.00  0.00    -0.272 NA
HETATM   26  C16 UNL     1      26.943  -1.882  52.530  1.00  0.00     0.130 A 
ENDBRANCH  19  21
ENDBRANCH   1  15
TORSDOF 4
ENDMDL
MODEL 8
REMARK VINA RESULT:      -7.7      2.769      6.522
REMARK  4 active torsions:
REMARK  status: ('A' for Active; 'I' for Inactive)
REMARK       I    between atoms: C2_2  and  N1_4 
REMARK    1  A    between atoms: N1_4  and  C3_5 
REMARK    2  A    between atoms: C8_10  and  N2_11 
REMARK    3  A    between atoms: N2_11  and  C9_12 
REMARK    4  A    between atoms: C11_16  and  C12_17 
ROOT
HETATM    1  N2  UNL     1      22.950   3.850  52.003  1.00  0.00    -0.188 N 
HETATM    2  H10 UNL     1      22.206   4.412  52.522  1.00  0.00     0.184 HD
ENDROOT
BRANCH   1   3
HETATM    3  C8  UNL     1      23.506   4.490  50.867  1.00  0.00     0.057 A 
HETATM    4  C6  UNL     1      22.885   4.453  49.622  1.00  0.00    -0.035 A 
HETATM    5  C5  UNL     1      23.390   5.064  48.501  1.00  0.00     0.011 A 
HETATM    6  C7  UNL     1      21.587   3.696  49.518  1.00  0.00     0.050 C 
HETATM    7  C4  UNL     1      24.575   5.765  48.562  1.00  0.00     0.030 A 
HETATM    8  C3  UNL     1      25.238   5.838  49.770  1.00  0.00     0.036 A 
HETATM    9  C17 UNL     1      24.680   5.205  50.853  1.00  0.00     0.060 A 
BRANCH   8  10
HETATM   10  N1  UNL     1      26.442   6.557  49.808  1.00  0.00    -0.327 N 
HETATM   11  C2  UNL     1      26.142   7.930  50.115  1.00  0.00     0.218 C 
HETATM   12  C1  UNL     1      27.114   9.069  50.261  1.00  0.00     0.117 C 
HETATM   13  O1  UNL     1      24.978   8.373  50.309  1.00  0.00    -0.274 OA
HETATM   14  H4  UNL     1      27.481   6.398  49.684  1.00  0.00     0.169 HD
ENDBRANCH   8  10
ENDBRANCH   1   3
BRANCH   1  15
HETATM   15  C9  UNL     1      23.314   2.559  52.474  1.00  0.00     0.724 A 
HETATM   16  N3  UNL     1      22.389   1.698  52.477  1.00  0.00    -0.095 NA
HETATM   17  C10 UNL     1      22.351   0.337  52.861  1.00  0.00     0.249 A 
HETATM   18  S1  UNL     1      23.973  -0.185  53.449  1.00  0.00    -0.086 SA
HETATM   19  C11 UNL     1      25.063   1.214  53.335  1.00  0.00     0.125 A 
HETATM   20  N5  UNL     1      24.658   2.357  52.893  1.00  0.00    -0.055 NA
BRANCH  19  21
HETATM   21  C12 UNL     1      26.458   1.133  53.732  1.00  0.00     0.018 A 
HETATM   22  C13 UNL     1      27.351   2.098  53.320  1.00  0.00     0.017 A 
HETATM   23  C14 UNL     1      28.675   1.979  53.725  1.00  0.00     0.020 A 
HETATM   24  C15 UNL     1      29.064   0.906  54.522  1.00  0.00     0.116 A 
HETATM   25  N4  UNL     1      28.175  -0.030  54.916  1.00  0.00    -0.272 NA
HETATM   26  C16 UNL     1      26.892   0.078  54.528  1.00  0.00     0.130 A 
ENDBRANCH  19  21
ENDBRANCH   1  15
TORSDOF 4
ENDMDL
MODEL 9
REMARK VINA RESULT:      -7.6      3.078      7.302
REMARK  4 active torsions:
REMARK  status: ('A' for Active; 'I' for Inactive)
REMARK       I    between atoms: C2_2  and  N1_4 
REMARK    1  A    between atoms: N1_4  and  C3_5 
REMARK    2  A    between atoms: C8_10  and  N2_11 
REMARK    3  A    between atoms: N2_11  and  C9_12 
REMARK    4  A    between atoms: C11_16  and  C12_17 
ROOT
HETATM    1  N2  UNL     1      24.812   2.993  49.956  1.00  0.00    -0.188 N 
HETATM    2  H10 UNL     1      24.855   2.599  48.966  1.00  0.00     0.184 HD
ENDROOT
BRANCH   1   3
HETATM    3  C8  UNL     1      24.840   4.408  50.044  1.00  0.00     0.057 A 
HETATM    4  C6  UNL     1      25.935   5.152  49.616  1.00  0.00    -0.035 A 
HETATM    5  C5  UNL     1      25.998   6.521  49.681  1.00  0.00     0.011 A 
HETATM    6  C7  UNL     1      27.109   4.394  49.053  1.00  0.00     0.050 C 
HETATM    7  C4  UNL     1      24.941   7.245  50.191  1.00  0.00     0.030 A 
HETATM    8  C3  UNL     1      23.825   6.564  50.632  1.00  0.00     0.036 A 
HETATM    9  C17 UNL     1      23.827   5.194  50.540  1.00  0.00     0.060 A 
BRANCH   8  10
HETATM   10  N1  UNL     1      22.763   7.321  51.147  1.00  0.00    -0.327 N 
HETATM   11  C2  UNL     1      21.841   7.597  50.077  1.00  0.00     0.218 C 
HETATM   12  C1  UNL     1      20.556   8.375  50.154  1.00  0.00     0.117 C 
HETATM   13  O1  UNL     1      22.000   7.206  48.888  1.00  0.00    -0.274 OA
HETATM   14  H4  UNL     1      22.440   7.740  52.063  1.00  0.00     0.169 HD
ENDBRANCH   8  10
ENDBRANCH   1   3
BRANCH   1  15
HETATM   15  C9  UNL     1      24.725   2.107  51.065  1.00  0.00     0.724 A 
HETATM   16  N3  UNL     1      23.562   1.918  51.523  1.00  0.00    -0.095 NA
HETATM   17  C10 UNL     1      23.072   1.129  52.589  1.00  0.00     0.249 A 
HETATM   18  S1  UNL     1      24.433   0.267  53.398  1.00  0.00    -0.086 SA
HETATM   19  C11 UNL     1      25.932   0.716  52.555  1.00  0.00     0.125 A 
HETATM   20  N5  UNL     1      25.930   1.528  51.551  1.00  0.00    -0.055 NA
BRANCH  19  21
HETATM   21  C12 UNL     1      27.225   0.191  52.957  1.00  0.00     0.018 A 
HETATM   22  C13 UNL     1      28.240   1.052  53.313  1.00  0.00     0.017 A 
HETATM   23  C14 UNL     1      29.459   0.503  53.690  1.00  0.00     0.020 A 
HETATM   24  C15 UNL     1      29.627  -0.880  53.700  1.00  0.00     0.116 A 
HETATM   25  N4  UNL     1      28.620  -1.707  53.348  1.00  0.00    -0.272 NA
HETATM   26  C16 UNL     1      27.437  -1.184  52.981  1.00  0.00     0.130 A 
ENDBRANCH  19  21
ENDBRANCH   1  15
TORSDOF 4
ENDMDL
