MODEL 1
REMARK VINA RESULT:      -7.2      0.000      0.000
REMARK  4 active torsions:
REMARK  status: ('A' for Active; 'I' for Inactive)
REMARK    1  A    between atoms: C3_3  and  C4_4 
REMARK    2  A    between atoms: C3_3  and  O2_23 
REMARK    3  A    between atoms: C7_8  and  C8_9 
REMARK    4  A    between atoms: C13_15  and  N1_16 
ROOT
HETATM    1  C4  UNL     1      25.801  -0.494  52.892  1.00  0.00     0.059 C 
HETATM    2  C5  UNL     1      25.448   0.672  52.394  1.00  0.00     0.061 C 
HETATM    3  S1  UNL     1      23.780   1.013  51.702  1.00  0.00    -0.086 SA
HETATM    4  C6  UNL     1      23.966   2.803  51.209  1.00  0.00     0.037 C 
HETATM    5  C7  UNL     1      24.081   3.329  49.961  1.00  0.00     0.086 C 
HETATM    6  N2  UNL     1      25.454   3.591  49.517  1.00  0.00    -0.240 NA
HETATM    7  C14 UNL     1      26.637   3.261  50.035  1.00  0.00     0.236 C 
HETATM    8  N3  UNL     1      26.932   2.608  51.334  1.00  0.00    -0.217 NA
HETATM    9  C15 UNL     1      26.023   2.030  52.149  1.00  0.00     0.183 C 
HETATM   10  O1  UNL     1      25.392   2.982  53.074  1.00  0.00    -0.328 OA
HETATM   11  C16 UNL     1      24.089   3.442  52.591  1.00  0.00     0.226 C 
ENDROOT
BRANCH   5  12
HETATM   12  C8  UNL     1      23.158   3.718  48.901  1.00  0.00     0.020 A 
HETATM   13  C9  UNL     1      22.621   2.717  48.121  1.00  0.00     0.018 A 
HETATM   14  C10 UNL     1      21.764   3.105  47.115  1.00  0.00     0.025 A 
HETATM   15  C11 UNL     1      21.496   4.464  46.952  1.00  0.00     0.036 A 
HETATM   16 CL1  UNL     1      20.389   4.839  45.637  1.00  0.00    -0.084 Cl
HETATM   17  C12 UNL     1      22.075   5.420  47.779  1.00  0.00     0.053 A 
HETATM   18  C13 UNL     1      22.935   5.067  48.792  1.00  0.00     0.040 A 
BRANCH  18  19
HETATM   19  N1  UNL     1      23.531   6.038  49.639  1.00  0.00    -0.398 N 
HETATM   20  H9  UNL     1      23.714   7.070  49.485  1.00  0.00     0.156 HD
HETATM   21  H10 UNL     1      23.761   5.471  50.502  1.00  0.00     0.156 HD
ENDBRANCH  18  19
ENDBRANCH   5  12
BRANCH   1  22
HETATM   22  C3  UNL     1      27.041  -0.927  53.465  1.00  0.00     0.065 C 
HETATM   23  C2  UNL     1      27.686  -1.883  52.825  1.00  0.00     0.006 C 
HETATM   24  C1  UNL     1      28.969  -2.544  53.148  1.00  0.00     0.038 C 
BRANCH  22  25
HETATM   25  O2  UNL     1      27.768  -0.573  54.584  1.00  0.00    -0.356 OA
HETATM   26  C17 UNL     1      28.484   0.625  54.684  1.00  0.00     0.210 C 
ENDBRANCH  22  25
ENDBRANCH   1  22
TORSDOF 4
ENDMDL
MODEL 2
REMARK VINA RESULT:      -7.1      2.939      3.761
REMARK  4 active torsions:
REMARK  status: ('A' for Active; 'I' for Inactive)
REMARK    1  A    between atoms: C3_3  and  C4_4 
REMARK    2  A    between atoms: C3_3  and  O2_23 
REMARK    3  A    between atoms: C7_8  and  C8_9 
REMARK    4  A    between atoms: C13_15  and  N1_16 
ROOT
HETATM    1  C4  UNL     1      26.772   1.717  52.235  1.00  0.00     0.059 C 
HETATM    2  C5  UNL     1      25.949   2.500  51.569  1.00  0.00     0.061 C 
HETATM    3  S1  UNL     1      26.421   3.392  50.033  1.00  0.00    -0.086 SA
HETATM    4  C6  UNL     1      24.824   4.267  49.632  1.00  0.00     0.037 C 
HETATM    5  C7  UNL     1      24.529   5.589  49.756  1.00  0.00     0.086 C 
HETATM    6  N2  UNL     1      23.834   5.963  50.991  1.00  0.00    -0.240 NA
HETATM    7  C14 UNL     1      23.573   5.283  52.108  1.00  0.00     0.236 C 
HETATM    8  N3  UNL     1      23.812   3.848  52.399  1.00  0.00    -0.217 NA
HETATM    9  C15 UNL     1      24.543   3.002  51.641  1.00  0.00     0.183 C 
HETATM   10  O1  UNL     1      23.766   2.380  50.560  1.00  0.00    -0.328 OA
HETATM   11  C16 UNL     1      23.950   3.065  49.279  1.00  0.00     0.226 C 
ENDROOT
BRANCH   5  12
HETATM   12  C8  UNL     1      24.733   6.785  48.947  1.00  0.00     0.020 A 
HETATM   13  C9  UNL     1      24.059   6.869  47.748  1.00  0.00     0.018 A 
HETATM   14  C10 UNL     1      24.276   7.999  46.990  1.00  0.00     0.025 A 
HETATM   15  C11 UNL     1      25.149   8.972  47.476  1.00  0.00     0.036 A 
HETATM   16 CL1  UNL     1      25.347  10.368  46.424  1.00  0.00    -0.084 Cl
HETATM   17  C12 UNL     1      25.795   8.821  48.698  1.00  0.00     0.053 A 
HETATM   18  C13 UNL     1      25.601   7.705  49.478  1.00  0.00     0.040 A 
BRANCH  18  19
HETATM   19  N1  UNL     1      26.258   7.543  50.727  1.00  0.00    -0.398 N 
HETATM   20  H9  UNL     1      27.286   7.596  50.979  1.00  0.00     0.156 HD
HETATM   21  H10 UNL     1      25.450   7.347  51.382  1.00  0.00     0.156 HD
ENDBRANCH  18  19
ENDBRANCH   5  12
BRANCH   1  22
HETATM   22  C3  UNL     1      26.572   0.956  53.431  1.00  0.00     0.065 C 
HETATM   23  C2  UNL     1      25.548   0.123  53.437  1.00  0.00     0.006 C 
HETATM   24  C1  UNL     1      25.074  -0.791  54.499  1.00  0.00     0.038 C 
BRANCH  22  25
HETATM   25  O2  UNL     1      27.220   0.872  54.648  1.00  0.00    -0.356 OA
HETATM   26  C17 UNL     1      28.546   0.446  54.781  1.00  0.00     0.210 C 
ENDBRANCH  22  25
ENDBRANCH   1  22
TORSDOF 4
ENDMDL
MODEL 3
REMARK VINA RESULT:      -6.9      4.561      5.902
REMARK  4 active torsions:
REMARK  status: ('A' for Active; 'I' for Inactive)
REMARK    1  A    between atoms: C3_3  and  C4_4 
REMARK    2  A    between atoms: C3_3  and  O2_23 
REMARK    3  A    between atoms: C7_8  and  C8_9 
REMARK    4  A    between atoms: C13_15  and  N1_16 
ROOT
HETATM    1  C4  UNL     1      22.550   1.888  51.371  1.00  0.00     0.059 C 
HETATM    2  C5  UNL     1      22.958   2.961  50.726  1.00  0.00     0.061 C 
HETATM    3  S1  UNL     1      24.248   2.924  49.418  1.00  0.00    -0.086 SA
HETATM    4  C6  UNL     1      24.315   4.726  48.943  1.00  0.00     0.037 C 
HETATM    5  C7  UNL     1      25.284   5.640  49.222  1.00  0.00     0.086 C 
HETATM    6  N2  UNL     1      25.030   6.482  50.395  1.00  0.00    -0.240 NA
HETATM    7  C14 UNL     1      24.104   6.421  51.353  1.00  0.00     0.236 C 
HETATM    8  N3  UNL     1      22.932   5.518  51.455  1.00  0.00    -0.217 NA
HETATM    9  C15 UNL     1      22.704   4.433  50.684  1.00  0.00     0.183 C 
HETATM   10  O1  UNL     1      22.012   4.755  49.428  1.00  0.00    -0.328 OA
HETATM   11  C16 UNL     1      22.937   4.877  48.300  1.00  0.00     0.226 C 
ENDROOT
BRANCH   5  12
HETATM   12  C8  UNL     1      26.563   6.018  48.636  1.00  0.00     0.020 A 
HETATM   13  C9  UNL     1      27.607   5.125  48.744  1.00  0.00     0.018 A 
HETATM   14  C10 UNL     1      28.812   5.506  48.197  1.00  0.00     0.025 A 
HETATM   15  C11 UNL     1      28.900   6.753  47.578  1.00  0.00     0.036 A 
HETATM   16 CL1  UNL     1      30.487   7.131  46.918  1.00  0.00    -0.084 Cl
HETATM   17  C12 UNL     1      27.803   7.605  47.505  1.00  0.00     0.053 A 
HETATM   18  C13 UNL     1      26.586   7.254  48.040  1.00  0.00     0.040 A 
BRANCH  18  19
HETATM   19  N1  UNL     1      25.463   8.119  47.971  1.00  0.00    -0.398 N 
HETATM   20  H9  UNL     1      25.383   9.124  47.642  1.00  0.00     0.156 HD
HETATM   21  H10 UNL     1      24.684   7.505  48.339  1.00  0.00     0.156 HD
ENDBRANCH  18  19
ENDBRANCH   5  12
BRANCH   1  22
HETATM   22  C3  UNL     1      21.567   1.737  52.403  1.00  0.00     0.065 C 
HETATM   23  C2  UNL     1      21.703   0.696  53.201  1.00  0.00     0.006 C 
HETATM   24  C1  UNL     1      20.872   0.260  54.345  1.00  0.00     0.038 C 
BRANCH  22  25
HETATM   25  O2  UNL     1      20.451   2.452  52.791  1.00  0.00    -0.356 OA
HETATM   26  C17 UNL     1      19.422   2.802  51.911  1.00  0.00     0.210 C 
ENDBRANCH  22  25
ENDBRANCH   1  22
TORSDOF 4
ENDMDL
MODEL 4
REMARK VINA RESULT:      -6.9      4.442      7.239
REMARK  4 active torsions:
REMARK  status: ('A' for Active; 'I' for Inactive)
REMARK    1  A    between atoms: C3_3  and  C4_4 
REMARK    2  A    between atoms: C3_3  and  O2_23 
REMARK    3  A    between atoms: C7_8  and  C8_9 
REMARK    4  A    between atoms: C13_15  and  N1_16 
ROOT
HETATM    1  C4  UNL     1      25.579   8.583  50.366  1.00  0.00     0.059 C 
HETATM    2  C5  UNL     1      25.201   7.371  50.018  1.00  0.00     0.061 C 
HETATM    3  S1  UNL     1      23.820   6.471  50.831  1.00  0.00    -0.086 SA
HETATM    4  C6  UNL     1      23.823   4.877  49.862  1.00  0.00     0.037 C 
HETATM    5  C7  UNL     1      24.243   3.646  50.258  1.00  0.00     0.086 C 
HETATM    6  N2  UNL     1      25.612   3.296  49.866  1.00  0.00    -0.240 NA
HETATM    7  C14 UNL     1      26.598   4.016  49.331  1.00  0.00     0.236 C 
HETATM    8  N3  UNL     1      26.565   5.415  48.841  1.00  0.00    -0.217 NA
HETATM    9  C15 UNL     1      25.563   6.297  49.043  1.00  0.00     0.183 C 
HETATM   10  O1  UNL     1      24.498   6.199  48.035  1.00  0.00    -0.328 OA
HETATM   11  C16 UNL     1      23.364   5.400  48.501  1.00  0.00     0.226 C 
ENDROOT
BRANCH   5  12
HETATM   12  C8  UNL     1      23.665   2.535  51.004  1.00  0.00     0.020 A 
HETATM   13  C9  UNL     1      22.654   1.817  50.403  1.00  0.00     0.018 A 
HETATM   14  C10 UNL     1      22.109   0.781  51.128  1.00  0.00     0.025 A 
HETATM   15  C11 UNL     1      22.607   0.525  52.406  1.00  0.00     0.036 A 
HETATM   16 CL1  UNL     1      21.836  -0.820  53.236  1.00  0.00    -0.084 Cl
HETATM   17  C12 UNL     1      23.633   1.292  52.950  1.00  0.00     0.053 A 
HETATM   18  C13 UNL     1      24.197   2.334  52.252  1.00  0.00     0.040 A 
BRANCH  18  19
HETATM   19  N1  UNL     1      25.243   3.121  52.802  1.00  0.00    -0.398 N 
HETATM   20  H9  UNL     1      26.276   2.916  52.916  1.00  0.00     0.156 HD
HETATM   21  H10 UNL     1      24.733   4.004  53.086  1.00  0.00     0.156 HD
ENDBRANCH  18  19
ENDBRANCH   5  12
BRANCH   1  22
HETATM   22  C3  UNL     1      26.619   9.420  49.846  1.00  0.00     0.065 C 
HETATM   23  C2  UNL     1      27.835   8.910  49.830  1.00  0.00     0.006 C 
HETATM   24  C1  UNL     1      29.108   9.505  49.366  1.00  0.00     0.038 C 
BRANCH  22  25
HETATM   25  O2  UNL     1      26.667  10.700  49.329  1.00  0.00    -0.356 OA
HETATM   26  C17 UNL     1      25.957  11.092  48.188  1.00  0.00     0.210 C 
ENDBRANCH  22  25
ENDBRANCH   1  22
TORSDOF 4
ENDMDL
MODEL 5
REMARK VINA RESULT:      -6.9      4.343      5.552
REMARK  4 active torsions:
REMARK  status: ('A' for Active; 'I' for Inactive)
REMARK    1  A    between atoms: C3_3  and  C4_4 
REMARK    2  A    between atoms: C3_3  and  O2_23 
REMARK    3  A    between atoms: C7_8  and  C8_9 
REMARK    4  A    between atoms: C13_15  and  N1_16 
ROOT
HETATM    1  C4  UNL     1      21.799   0.845  51.035  1.00  0.00     0.059 C 
HETATM    2  C5  UNL     1      22.089   2.091  50.723  1.00  0.00     0.061 C 
HETATM    3  S1  UNL     1      23.043   2.563  49.224  1.00  0.00    -0.086 SA
HETATM    4  C6  UNL     1      23.067   4.420  49.396  1.00  0.00     0.037 C 
HETATM    5  C7  UNL     1      24.107   5.225  49.743  1.00  0.00     0.086 C 
HETATM    6  N2  UNL     1      24.160   5.601  51.159  1.00  0.00    -0.240 NA
HETATM    7  C14 UNL     1      23.477   5.174  52.222  1.00  0.00     0.236 C 
HETATM    8  N3  UNL     1      22.326   4.240  52.272  1.00  0.00    -0.217 NA
HETATM    9  C15 UNL     1      21.888   3.476  51.248  1.00  0.00     0.183 C 
HETATM   10  O1  UNL     1      20.939   4.177  50.372  1.00  0.00    -0.328 OA
HETATM   11  C16 UNL     1      21.585   4.721  49.176  1.00  0.00     0.226 C 
ENDROOT
BRANCH   5  12
HETATM   12  C8  UNL     1      25.231   5.838  49.047  1.00  0.00     0.020 A 
HETATM   13  C9  UNL     1      24.980   6.960  48.288  1.00  0.00     0.018 A 
HETATM   14  C10 UNL     1      26.052   7.517  47.626  1.00  0.00     0.025 A 
HETATM   15  C11 UNL     1      27.305   6.919  47.762  1.00  0.00     0.036 A 
HETATM   16 CL1  UNL     1      28.596   7.716  46.871  1.00  0.00    -0.084 Cl
HETATM   17  C12 UNL     1      27.485   5.786  48.547  1.00  0.00     0.053 A 
HETATM   18  C13 UNL     1      26.436   5.206  49.221  1.00  0.00     0.040 A 
BRANCH  18  19
HETATM   19  N1  UNL     1      26.613   4.048  50.024  1.00  0.00    -0.398 N 
HETATM   20  H9  UNL     1      26.817   3.044  49.753  1.00  0.00     0.156 HD
HETATM   21  H10 UNL     1      26.489   4.431  51.002  1.00  0.00     0.156 HD
ENDBRANCH  18  19
ENDBRANCH   5  12
BRANCH   1  22
HETATM   22  C3  UNL     1      21.075   0.307  52.147  1.00  0.00     0.065 C 
HETATM   23  C2  UNL     1      21.741   0.174  53.278  1.00  0.00     0.006 C 
HETATM   24  C1  UNL     1      21.293  -0.342  54.590  1.00  0.00     0.038 C 
BRANCH  22  25
HETATM   25  O2  UNL     1      19.780  -0.133  52.340  1.00  0.00    -0.356 OA
HETATM   26  C17 UNL     1      18.703   0.290  51.554  1.00  0.00     0.210 C 
ENDBRANCH  22  25
ENDBRANCH   1  22
TORSDOF 4
ENDMDL
MODEL 6
REMARK VINA RESULT:      -6.7      4.401      7.849
REMARK  4 active torsions:
REMARK  status: ('A' for Active; 'I' for Inactive)
REMARK    1  A    between atoms: C3_3  and  C4_4 
REMARK    2  A    between atoms: C3_3  and  O2_23 
REMARK    3  A    between atoms: C7_8  and  C8_9 
REMARK    4  A    between atoms: C13_15  and  N1_16 
ROOT
HETATM    1  C4  UNL     1      19.173   2.565  50.525  1.00  0.00     0.059 C 
HETATM    2  C5  UNL     1      20.477   2.741  50.549  1.00  0.00     0.061 C 
HETATM    3  S1  UNL     1      21.686   1.363  50.422  1.00  0.00    -0.086 SA
HETATM    4  C6  UNL     1      23.296   2.301  50.506  1.00  0.00     0.037 C 
HETATM    5  C7  UNL     1      24.184   2.368  51.533  1.00  0.00     0.086 C 
HETATM    6  N2  UNL     1      24.043   3.537  52.407  1.00  0.00    -0.240 NA
HETATM    7  C14 UNL     1      23.101   4.477  52.494  1.00  0.00     0.236 C 
HETATM    8  N3  UNL     1      21.928   4.699  51.614  1.00  0.00    -0.217 NA
HETATM    9  C15 UNL     1      21.479   3.844  50.670  1.00  0.00     0.183 C 
HETATM   10  O1  UNL     1      22.148   4.016  49.373  1.00  0.00    -0.328 OA
HETATM   11  C16 UNL     1      23.230   3.050  49.176  1.00  0.00     0.226 C 
ENDROOT
BRANCH   5  12
HETATM   12  C8  UNL     1      25.288   1.546  52.016  1.00  0.00     0.020 A 
HETATM   13  C9  UNL     1      24.976   0.367  52.656  1.00  0.00     0.018 A 
HETATM   14  C10 UNL     1      26.031  -0.388  53.118  1.00  0.00     0.025 A 
HETATM   15  C11 UNL     1      27.329   0.080  52.913  1.00  0.00     0.036 A 
HETATM   16 CL1  UNL     1      28.593  -0.966  53.547  1.00  0.00    -0.084 Cl
HETATM   17  C12 UNL     1      27.569   1.283  52.257  1.00  0.00     0.053 A 
HETATM   18  C13 UNL     1      26.538   2.060  51.783  1.00  0.00     0.040 A 
BRANCH  18  19
HETATM   19  N1  UNL     1      26.777   3.289  51.113  1.00  0.00    -0.398 N 
HETATM   20  H9  UNL     1      26.102   3.992  50.697  1.00  0.00     0.156 HD
HETATM   21  H10 UNL     1      27.833   3.349  51.124  1.00  0.00     0.156 HD
ENDBRANCH  18  19
ENDBRANCH   5  12
BRANCH   1  22
HETATM   22  C3  UNL     1      18.102   3.513  50.609  1.00  0.00     0.065 C 
HETATM   23  C2  UNL     1      17.272   3.377  51.626  1.00  0.00     0.006 C 
HETATM   24  C1  UNL     1      16.083   4.177  51.994  1.00  0.00     0.038 C 
BRANCH  22  25
HETATM   25  O2  UNL     1      17.700   4.593  49.849  1.00  0.00    -0.356 OA
HETATM   26  C17 UNL     1      18.408   5.048  48.730  1.00  0.00     0.210 C 
ENDBRANCH  22  25
ENDBRANCH   1  22
TORSDOF 4
ENDMDL
MODEL 7
REMARK VINA RESULT:      -6.7      2.956      3.864
REMARK  4 active torsions:
REMARK  status: ('A' for Active; 'I' for Inactive)
REMARK    1  A    between atoms: C3_3  and  C4_4 
REMARK    2  A    between atoms: C3_3  and  O2_23 
REMARK    3  A    between atoms: C7_8  and  C8_9 
REMARK    4  A    between atoms: C13_15  and  N1_16 
ROOT
HETATM    1  C4  UNL     1      21.981   1.212  52.458  1.00  0.00     0.059 C 
HETATM    2  C5  UNL     1      22.731   2.268  52.220  1.00  0.00     0.061 C 
HETATM    3  S1  UNL     1      22.109   3.780  51.381  1.00  0.00    -0.086 SA
HETATM    4  C6  UNL     1      23.644   4.840  51.390  1.00  0.00     0.037 C 
HETATM    5  C7  UNL     1      24.458   5.159  50.348  1.00  0.00     0.086 C 
HETATM    6  N2  UNL     1      25.653   4.320  50.208  1.00  0.00    -0.240 NA
HETATM    7  C14 UNL     1      26.023   3.188  50.808  1.00  0.00     0.236 C 
HETATM    8  N3  UNL     1      25.366   2.474  51.930  1.00  0.00    -0.217 NA
HETATM    9  C15 UNL     1      24.135   2.739  52.419  1.00  0.00     0.183 C 
HETATM   10  O1  UNL     1      24.136   3.795  53.441  1.00  0.00    -0.328 OA
HETATM   11  C16 UNL     1      23.771   5.101  52.890  1.00  0.00     0.226 C 
ENDROOT
BRANCH   5  12
HETATM   12  C8  UNL     1      24.455   6.160  49.288  1.00  0.00     0.020 A 
HETATM   13  C9  UNL     1      23.620   5.951  48.213  1.00  0.00     0.018 A 
HETATM   14  C10 UNL     1      23.642   6.899  47.214  1.00  0.00     0.025 A 
HETATM   15  C11 UNL     1      24.495   7.994  47.351  1.00  0.00     0.036 A 
HETATM   16 CL1  UNL     1      24.438   9.137  46.015  1.00  0.00    -0.084 Cl
HETATM   17  C12 UNL     1      25.312   8.141  48.467  1.00  0.00     0.053 A 
HETATM   18  C13 UNL     1      25.314   7.212  49.481  1.00  0.00     0.040 A 
BRANCH  18  19
HETATM   19  N1  UNL     1      26.146   7.355  50.622  1.00  0.00    -0.398 N 
HETATM   20  H9  UNL     1      26.239   6.754  51.490  1.00  0.00     0.156 HD
HETATM   21  H10 UNL     1      26.682   8.240  50.400  1.00  0.00     0.156 HD
ENDBRANCH  18  19
ENDBRANCH   5  12
BRANCH   1  22
HETATM   22  C3  UNL     1      22.298  -0.033  53.093  1.00  0.00     0.065 C 
HETATM   23  C2  UNL     1      21.340  -0.593  53.806  1.00  0.00     0.006 C 
HETATM   24  C1  UNL     1      21.343  -1.856  54.576  1.00  0.00     0.038 C 
BRANCH  22  25
HETATM   25  O2  UNL     1      23.420  -0.836  53.147  1.00  0.00    -0.356 OA
HETATM   26  C17 UNL     1      24.561  -0.509  53.887  1.00  0.00     0.210 C 
ENDBRANCH  22  25
ENDBRANCH   1  22
TORSDOF 4
ENDMDL
MODEL 8
REMARK VINA RESULT:      -6.6      4.009      8.127
REMARK  4 active torsions:
REMARK  status: ('A' for Active; 'I' for Inactive)
REMARK    1  A    between atoms: C3_3  and  C4_4 
REMARK    2  A    between atoms: C3_3  and  O2_23 
REMARK    3  A    between atoms: C7_8  and  C8_9 
REMARK    4  A    between atoms: C13_15  and  N1_16 
ROOT
HETATM    1  C4  UNL     1      21.857   7.492  50.598  1.00  0.00     0.059 C 
HETATM    2  C5  UNL     1      22.002   6.195  50.773  1.00  0.00     0.061 C 
HETATM    3  S1  UNL     1      23.050   5.465  52.094  1.00  0.00    -0.086 SA
HETATM    4  C6  UNL     1      22.791   3.645  51.780  1.00  0.00     0.037 C 
HETATM    5  C7  UNL     1      23.658   2.747  51.240  1.00  0.00     0.086 C 
HETATM    6  N2  UNL     1      23.490   2.501  49.804  1.00  0.00    -0.240 NA
HETATM    7  C14 UNL     1      22.753   3.111  48.875  1.00  0.00     0.236 C 
HETATM    8  N3  UNL     1      21.748   4.189  49.047  1.00  0.00    -0.217 NA
HETATM    9  C15 UNL     1      21.546   4.904  50.174  1.00  0.00     0.183 C 
HETATM   10  O1  UNL     1      20.618   4.254  51.110  1.00  0.00    -0.328 OA
HETATM   11  C16 UNL     1      21.318   3.522  52.167  1.00  0.00     0.226 C 
ENDROOT
BRANCH   5  12
HETATM   12  C8  UNL     1      24.759   1.930  51.734  1.00  0.00     0.020 A 
HETATM   13  C9  UNL     1      24.444   0.755  52.381  1.00  0.00     0.018 A 
HETATM   14  C10 UNL     1      25.497   0.004  52.855  1.00  0.00     0.025 A 
HETATM   15  C11 UNL     1      26.795   0.471  52.654  1.00  0.00     0.036 A 
HETATM   16 CL1  UNL     1      28.057  -0.570  53.302  1.00  0.00    -0.084 Cl
HETATM   17  C12 UNL     1      27.039   1.669  51.990  1.00  0.00     0.053 A 
HETATM   18  C13 UNL     1      26.011   2.442  51.505  1.00  0.00     0.040 A 
BRANCH  18  19
HETATM   19  N1  UNL     1      26.252   3.667  50.828  1.00  0.00    -0.398 N 
HETATM   20  H9  UNL     1      25.923   4.011  49.882  1.00  0.00     0.156 HD
HETATM   21  H10 UNL     1      26.867   4.186  51.516  1.00  0.00     0.156 HD
ENDBRANCH  18  19
ENDBRANCH   5  12
BRANCH   1  22
HETATM   22  C3  UNL     1      21.089   8.223  49.634  1.00  0.00     0.065 C 
HETATM   23  C2  UNL     1      19.983   8.795  50.070  1.00  0.00     0.006 C 
HETATM   24  C1  UNL     1      18.983   9.606  49.343  1.00  0.00     0.038 C 
BRANCH  22  25
HETATM   25  O2  UNL     1      21.226   8.491  48.286  1.00  0.00    -0.356 OA
HETATM   26  C17 UNL     1      21.431   7.496  47.325  1.00  0.00     0.210 C 
ENDBRANCH  22  25
ENDBRANCH   1  22
TORSDOF 4
ENDMDL
MODEL 9
REMARK VINA RESULT:      -6.5      3.915      7.651
REMARK  4 active torsions:
REMARK  status: ('A' for Active; 'I' for Inactive)
REMARK    1  A    between atoms: C3_3  and  C4_4 
REMARK    2  A    between atoms: C3_3  and  O2_23 
REMARK    3  A    between atoms: C7_8  and  C8_9 
REMARK    4  A    between atoms: C13_15  and  N1_16 
ROOT
HETATM    1  C4  UNL     1      23.073   5.770  47.647  1.00  0.00     0.059 C 
HETATM    2  C5  UNL     1      23.524   5.106  48.691  1.00  0.00     0.061 C 
HETATM    3  S1  UNL     1      23.272   3.300  48.926  1.00  0.00    -0.086 SA
HETATM    4  C6  UNL     1      24.155   3.032  50.546  1.00  0.00     0.037 C 
HETATM    5  C7  UNL     1      23.618   2.796  51.774  1.00  0.00     0.086 C 
HETATM    6  N2  UNL     1      23.472   3.977  52.630  1.00  0.00    -0.240 NA
HETATM    7  C14 UNL     1      23.610   5.280  52.384  1.00  0.00     0.236 C 
HETATM    8  N3  UNL     1      24.092   5.945  51.149  1.00  0.00    -0.217 NA
HETATM    9  C15 UNL     1      24.284   5.344  49.955  1.00  0.00     0.183 C 
HETATM   10  O1  UNL     1      25.614   4.733  49.826  1.00  0.00    -0.328 OA
HETATM   11  C16 UNL     1      25.594   3.296  50.106  1.00  0.00     0.226 C 
ENDROOT
BRANCH   5  12
HETATM   12  C8  UNL     1      23.129   1.626  52.493  1.00  0.00     0.020 A 
HETATM   13  C9  UNL     1      24.056   0.694  52.905  1.00  0.00     0.018 A 
HETATM   14  C10 UNL     1      23.574  -0.413  53.569  1.00  0.00     0.025 A 
HETATM   15  C11 UNL     1      22.199  -0.519  53.780  1.00  0.00     0.036 A 
HETATM   16 CL1  UNL     1      21.700  -1.972  54.636  1.00  0.00    -0.084 Cl
HETATM   17  C12 UNL     1      21.320   0.464  53.335  1.00  0.00     0.053 A 
HETATM   18  C13 UNL     1      21.770   1.580  52.669  1.00  0.00     0.040 A 
BRANCH  18  19
HETATM   19  N1  UNL     1      20.878   2.586  52.212  1.00  0.00    -0.398 N 
HETATM   20  H9  UNL     1      20.950   3.642  52.249  1.00  0.00     0.156 HD
HETATM   21  H10 UNL     1      20.086   2.015  51.804  1.00  0.00     0.156 HD
ENDBRANCH  18  19
ENDBRANCH   5  12
BRANCH   1  22
HETATM   22  C3  UNL     1      23.179   7.158  47.309  1.00  0.00     0.065 C 
HETATM   23  C2  UNL     1      23.181   7.454  46.023  1.00  0.00     0.006 C 
HETATM   24  C1  UNL     1      23.277   8.768  45.351  1.00  0.00     0.038 C 
BRANCH  22  25
HETATM   25  O2  UNL     1      23.285   8.328  48.034  1.00  0.00    -0.356 OA
HETATM   26  C17 UNL     1      22.401   8.675  49.062  1.00  0.00     0.210 C 
ENDBRANCH  22  25
ENDBRANCH   1  22
TORSDOF 4
ENDMDL
