MODEL 1
REMARK VINA RESULT:      -6.9      0.000      0.000
REMARK  6 active torsions:
REMARK  status: ('A' for Active; 'I' for Inactive)
REMARK    1  A    between atoms: C3_3  and  C4_5 
REMARK    2  A    between atoms: C8_9  and  C9_11 
REMARK    3  A    between atoms: C9_11  and  O1_12 
REMARK    4  A    between atoms: O1_12  and  C10_13 
REMARK    5  A    between atoms: C10_13  and  C11_14 
REMARK    6  A    between atoms: C11_14  and  N1_15 
ROOT
HETATM    1  C4  UNL     1      27.061   0.414  54.030  1.00  0.00     0.104 A 
HETATM    2  C5  UNL     1      26.244   0.927  53.142  1.00  0.00    -0.002 A 
HETATM    3  C6  UNL     1      26.669   1.864  52.118  1.00  0.00     0.053 C 
HETATM    4  C7  UNL     1      24.832   0.584  53.124  1.00  0.00     0.061 A 
HETATM    5  C8  UNL     1      23.942   1.054  52.268  1.00  0.00     0.062 C 
HETATM    6 CL1  UNL     1      24.108   2.184  50.928  1.00  0.00    -0.084 Cl
HETATM    7  N3  UNL     1      24.308  -0.325  54.082  1.00  0.00    -0.349 N 
HETATM    8  C17 UNL     1      25.257  -0.838  55.011  1.00  0.00     0.208 A 
HETATM    9  N4  UNL     1      26.481  -0.470  54.939  1.00  0.00    -0.240 NA
HETATM   10  H25 UNL     1      23.380  -0.709  54.263  1.00  0.00     0.166 HD
ENDROOT
BRANCH   5  11
HETATM   11  C9  UNL     1      22.515   0.792  52.149  1.00  0.00     0.221 C 
BRANCH  11  12
HETATM   12  O1  UNL     1      21.756   1.096  53.285  1.00  0.00    -0.384 OA
BRANCH  12  13
HETATM   13  C10 UNL     1      20.566   1.614  52.776  1.00  0.00     0.198 C 
BRANCH  13  14
HETATM   14  C11 UNL     1      20.690   3.050  52.369  1.00  0.00     0.298 C 
BRANCH  14  15
HETATM   15  N1  UNL     1      19.634   3.584  51.593  1.00  0.00     0.093 N 
HETATM   16  C12 UNL     1      18.839   2.496  51.062  1.00  0.00     0.302 C 
HETATM   17  C13 UNL     1      18.848   2.404  49.571  1.00  0.00     0.302 C 
HETATM   18  N2  UNL     1      20.140   2.621  48.975  1.00  0.00     0.087 N 
HETATM   19  C14 UNL     1      20.947   1.440  48.892  1.00  0.00     0.310 C 
HETATM   20  C15 UNL     1      20.868   3.725  49.506  1.00  0.00     0.302 C 
HETATM   21  C16 UNL     1      20.032   4.458  50.526  1.00  0.00     0.302 C 
ENDBRANCH  14  15
ENDBRANCH  13  14
ENDBRANCH  12  13
ENDBRANCH  11  12
ENDBRANCH   5  11
BRANCH   1  22
HETATM   22  C3  UNL     1      28.482   0.687  54.138  1.00  0.00     0.141 C 
HETATM   23  C2  UNL     1      29.377  -0.246  53.824  1.00  0.00     0.014 C 
HETATM   24  C1  UNL     1      29.474  -1.621  53.346  1.00  0.00     0.039 C 
HETATM   25  F1  UNL     1      29.144   1.800  54.534  1.00  0.00    -0.204 F 
ENDBRANCH   1  22
TORSDOF 6
ENDMDL
MODEL 2
REMARK VINA RESULT:      -6.8      2.491      3.299
REMARK  6 active torsions:
REMARK  status: ('A' for Active; 'I' for Inactive)
REMARK    1  A    between atoms: C3_3  and  C4_5 
REMARK    2  A    between atoms: C8_9  and  C9_11 
REMARK    3  A    between atoms: C9_11  and  O1_12 
REMARK    4  A    between atoms: O1_12  and  C10_13 
REMARK    5  A    between atoms: C10_13  and  C11_14 
REMARK    6  A    between atoms: C11_14  and  N1_15 
ROOT
HETATM    1  C4  UNL     1      27.548   1.216  53.367  1.00  0.00     0.104 A 
HETATM    2  C5  UNL     1      26.340   0.756  53.582  1.00  0.00    -0.002 A 
HETATM    3  C6  UNL     1      26.024  -0.190  54.638  1.00  0.00     0.053 C 
HETATM    4  C7  UNL     1      25.214   1.172  52.762  1.00  0.00     0.061 A 
HETATM    5  C8  UNL     1      23.967   0.759  52.909  1.00  0.00     0.062 C 
HETATM    6 CL1  UNL     1      23.248  -0.363  54.060  1.00  0.00    -0.084 Cl
HETATM    7  N3  UNL     1      25.409   2.096  51.701  1.00  0.00    -0.349 N 
HETATM    8  C17 UNL     1      26.748   2.548  51.532  1.00  0.00     0.208 A 
HETATM    9  N4  UNL     1      27.669   2.118  52.311  1.00  0.00    -0.240 NA
HETATM   10  H25 UNL     1      24.791   2.524  51.011  1.00  0.00     0.166 HD
ENDROOT
BRANCH   5  11
HETATM   11  C9  UNL     1      22.765   1.095  52.161  1.00  0.00     0.221 C 
BRANCH  11  12
HETATM   12  O1  UNL     1      22.940   1.217  50.776  1.00  0.00    -0.384 OA
BRANCH  12  13
HETATM   13  C10 UNL     1      21.866   2.005  50.362  1.00  0.00     0.198 C 
BRANCH  13  14
HETATM   14  C11 UNL     1      22.278   3.402  50.014  1.00  0.00     0.298 C 
BRANCH  14  15
HETATM   15  N1  UNL     1      21.618   4.448  50.701  1.00  0.00     0.093 N 
HETATM   16  C12 UNL     1      21.735   5.668  49.931  1.00  0.00     0.302 C 
HETATM   17  C13 UNL     1      22.501   6.753  50.617  1.00  0.00     0.302 C 
HETATM   18  N2  UNL     1      23.682   6.297  51.302  1.00  0.00     0.087 N 
HETATM   19  C14 UNL     1      24.845   6.223  50.468  1.00  0.00     0.310 C 
HETATM   20  C15 UNL     1      23.507   5.113  52.075  1.00  0.00     0.302 C 
HETATM   21  C16 UNL     1      22.062   4.681  52.046  1.00  0.00     0.302 C 
ENDBRANCH  14  15
ENDBRANCH  13  14
ENDBRANCH  12  13
ENDBRANCH  11  12
ENDBRANCH   5  11
BRANCH   1  22
HETATM   22  C3  UNL     1      28.739   0.868  54.121  1.00  0.00     0.141 C 
HETATM   23  C2  UNL     1      29.331  -0.311  53.948  1.00  0.00     0.014 C 
HETATM   24  C1  UNL     1      29.215  -1.546  53.179  1.00  0.00     0.039 C 
HETATM   25  F1  UNL     1      29.433   1.563  55.053  1.00  0.00    -0.204 F 
ENDBRANCH   1  22
TORSDOF 6
ENDMDL
MODEL 3
REMARK VINA RESULT:      -6.8      2.071      2.876
REMARK  6 active torsions:
REMARK  status: ('A' for Active; 'I' for Inactive)
REMARK    1  A    between atoms: C3_3  and  C4_5 
REMARK    2  A    between atoms: C8_9  and  C9_11 
REMARK    3  A    between atoms: C9_11  and  O1_12 
REMARK    4  A    between atoms: O1_12  and  C10_13 
REMARK    5  A    between atoms: C10_13  and  C11_14 
REMARK    6  A    between atoms: C11_14  and  N1_15 
ROOT
HETATM    1  C4  UNL     1      27.455   1.294  53.237  1.00  0.00     0.104 A 
HETATM    2  C5  UNL     1      26.391   0.678  53.692  1.00  0.00    -0.002 A 
HETATM    3  C6  UNL     1      26.373  -0.058  54.944  1.00  0.00     0.053 C 
HETATM    4  C7  UNL     1      25.135   0.693  52.960  1.00  0.00     0.061 A 
HETATM    5  C8  UNL     1      24.019   0.100  53.346  1.00  0.00     0.062 C 
HETATM    6 CL1  UNL     1      23.652  -0.859  54.776  1.00  0.00    -0.084 Cl
HETATM    7  N3  UNL     1      25.040   1.385  51.724  1.00  0.00    -0.349 N 
HETATM    8  C17 UNL     1      26.237   2.027  51.297  1.00  0.00     0.208 A 
HETATM    9  N4  UNL     1      27.292   1.952  52.019  1.00  0.00    -0.240 NA
HETATM   10  H25 UNL     1      24.289   1.533  51.049  1.00  0.00     0.166 HD
ENDROOT
BRANCH   5  11
HETATM   11  C9  UNL     1      22.712   0.040  52.709  1.00  0.00     0.221 C 
BRANCH  11  12
HETATM   12  O1  UNL     1      22.010   1.251  52.673  1.00  0.00    -0.384 OA
BRANCH  12  13
HETATM   13  C10 UNL     1      21.528   1.331  51.367  1.00  0.00     0.198 C 
BRANCH  13  14
HETATM   14  C11 UNL     1      20.706   2.561  51.132  1.00  0.00     0.298 C 
BRANCH  14  15
HETATM   15  N1  UNL     1      21.120   3.408  50.077  1.00  0.00     0.093 N 
HETATM   16  C12 UNL     1      22.543   3.243  49.865  1.00  0.00     0.302 C 
HETATM   17  C13 UNL     1      23.347   4.475  50.128  1.00  0.00     0.302 C 
HETATM   18  N2  UNL     1      22.941   5.205  51.300  1.00  0.00     0.087 N 
HETATM   19  C14 UNL     1      23.550   4.743  52.511  1.00  0.00     0.310 C 
HETATM   20  C15 UNL     1      21.534   5.373  51.444  1.00  0.00     0.302 C 
HETATM   21  C16 UNL     1      20.815   4.801  50.246  1.00  0.00     0.302 C 
ENDBRANCH  14  15
ENDBRANCH  13  14
ENDBRANCH  12  13
ENDBRANCH  11  12
ENDBRANCH   5  11
BRANCH   1  22
HETATM   22  C3  UNL     1      28.754   1.343  53.883  1.00  0.00     0.141 C 
HETATM   23  C2  UNL     1      29.583   0.303  53.817  1.00  0.00     0.014 C 
HETATM   24  C1  UNL     1      29.686  -1.042  53.263  1.00  0.00     0.039 C 
HETATM   25  F1  UNL     1      29.348   2.320  54.608  1.00  0.00    -0.204 F 
ENDBRANCH   1  22
TORSDOF 6
ENDMDL
MODEL 4
REMARK VINA RESULT:      -6.7      1.419      2.162
REMARK  6 active torsions:
REMARK  status: ('A' for Active; 'I' for Inactive)
REMARK    1  A    between atoms: C3_3  and  C4_5 
REMARK    2  A    between atoms: C8_9  and  C9_11 
REMARK    3  A    between atoms: C9_11  and  O1_12 
REMARK    4  A    between atoms: O1_12  and  C10_13 
REMARK    5  A    between atoms: C10_13  and  C11_14 
REMARK    6  A    between atoms: C11_14  and  N1_15 
ROOT
HETATM    1  C4  UNL     1      27.192   0.397  54.095  1.00  0.00     0.104 A 
HETATM    2  C5  UNL     1      26.450   0.989  53.192  1.00  0.00    -0.002 A 
HETATM    3  C6  UNL     1      26.967   1.970  52.255  1.00  0.00     0.053 C 
HETATM    4  C7  UNL     1      25.031   0.695  53.065  1.00  0.00     0.061 A 
HETATM    5  C8  UNL     1      24.212   1.245  52.186  1.00  0.00     0.062 C 
HETATM    6 CL1  UNL     1      24.498   2.446  50.931  1.00  0.00    -0.084 Cl
HETATM    7  N3  UNL     1      24.420  -0.251  53.931  1.00  0.00    -0.349 N 
HETATM    8  C17 UNL     1      25.292  -0.849  54.884  1.00  0.00     0.208 A 
HETATM    9  N4  UNL     1      26.529  -0.519  54.911  1.00  0.00    -0.240 NA
HETATM   10  H25 UNL     1      23.472  -0.613  54.031  1.00  0.00     0.166 HD
ENDROOT
BRANCH   5  11
HETATM   11  C9  UNL     1      22.789   1.039  51.962  1.00  0.00     0.221 C 
BRANCH  11  12
HETATM   12  O1  UNL     1      21.976   1.221  53.088  1.00  0.00    -0.384 OA
BRANCH  12  13
HETATM   13  C10 UNL     1      20.757   1.651  52.566  1.00  0.00     0.198 C 
BRANCH  13  14
HETATM   14  C11 UNL     1      19.746   0.549  52.481  1.00  0.00     0.298 C 
BRANCH  14  15
HETATM   15  N1  UNL     1      19.252   0.239  51.193  1.00  0.00     0.093 N 
HETATM   16  C12 UNL     1      19.483   1.365  50.313  1.00  0.00     0.302 C 
HETATM   17  C13 UNL     1      18.234   1.997  49.787  1.00  0.00     0.302 C 
HETATM   18  N2  UNL     1      17.188   2.135  50.765  1.00  0.00     0.087 N 
HETATM   19  C14 UNL     1      17.275   3.335  51.543  1.00  0.00     0.310 C 
HETATM   20  C15 UNL     1      16.974   0.988  51.582  1.00  0.00     0.302 C 
HETATM   21  C16 UNL     1      17.869  -0.143  51.136  1.00  0.00     0.302 C 
ENDBRANCH  14  15
ENDBRANCH  13  14
ENDBRANCH  12  13
ENDBRANCH  11  12
ENDBRANCH   5  11
BRANCH   1  22
HETATM   22  C3  UNL     1      28.611   0.615  54.308  1.00  0.00     0.141 C 
HETATM   23  C2  UNL     1      29.496  -0.331  54.001  1.00  0.00     0.014 C 
HETATM   24  C1  UNL     1      29.581  -1.682  53.458  1.00  0.00     0.039 C 
HETATM   25  F1  UNL     1      29.280   1.683  54.804  1.00  0.00    -0.204 F 
ENDBRANCH   1  22
TORSDOF 6
ENDMDL
MODEL 5
REMARK VINA RESULT:      -6.7      1.607      2.364
REMARK  6 active torsions:
REMARK  status: ('A' for Active; 'I' for Inactive)
REMARK    1  A    between atoms: C3_3  and  C4_5 
REMARK    2  A    between atoms: C8_9  and  C9_11 
REMARK    3  A    between atoms: C9_11  and  O1_12 
REMARK    4  A    between atoms: O1_12  and  C10_13 
REMARK    5  A    between atoms: C10_13  and  C11_14 
REMARK    6  A    between atoms: C11_14  and  N1_15 
ROOT
HETATM    1  C4  UNL     1      27.022   0.205  54.009  1.00  0.00     0.104 A 
HETATM    2  C5  UNL     1      26.413   0.890  53.072  1.00  0.00    -0.002 A 
HETATM    3  C6  UNL     1      27.097   1.831  52.203  1.00  0.00     0.053 C 
HETATM    4  C7  UNL     1      24.986   0.748  52.836  1.00  0.00     0.061 A 
HETATM    5  C8  UNL     1      24.295   1.399  51.916  1.00  0.00     0.062 C 
HETATM    6 CL1  UNL     1      24.795   2.590  50.720  1.00  0.00    -0.084 Cl
HETATM    7  N3  UNL     1      24.218  -0.147  53.627  1.00  0.00    -0.349 N 
HETATM    8  C17 UNL     1      24.951  -0.853  54.623  1.00  0.00     0.208 A 
HETATM    9  N4  UNL     1      26.210  -0.655  54.748  1.00  0.00    -0.240 NA
HETATM   10  H25 UNL     1      23.233  -0.410  53.648  1.00  0.00     0.166 HD
ENDROOT
BRANCH   5  11
HETATM   11  C9  UNL     1      22.879   1.347  51.585  1.00  0.00     0.221 C 
BRANCH  11  12
HETATM   12  O1  UNL     1      22.589   1.260  50.217  1.00  0.00    -0.384 OA
BRANCH  12  13
HETATM   13  C10 UNL     1      21.319   1.821  50.098  1.00  0.00     0.198 C 
BRANCH  13  14
HETATM   14  C11 UNL     1      21.355   3.220  49.563  1.00  0.00     0.298 C 
BRANCH  14  15
HETATM   15  N1  UNL     1      20.474   4.151  50.162  1.00  0.00     0.093 N 
HETATM   16  C12 UNL     1      20.587   5.420  49.475  1.00  0.00     0.302 C 
HETATM   17  C13 UNL     1      21.098   6.535  50.330  1.00  0.00     0.302 C 
HETATM   18  N2  UNL     1      22.185   6.161  51.196  1.00  0.00     0.087 N 
HETATM   19  C14 UNL     1      23.476   6.255  50.583  1.00  0.00     0.310 C 
HETATM   20  C15 UNL     1      22.010   4.923  51.878  1.00  0.00     0.302 C 
HETATM   21  C16 UNL     1      20.648   4.348  51.573  1.00  0.00     0.302 C 
ENDBRANCH  14  15
ENDBRANCH  13  14
ENDBRANCH  12  13
ENDBRANCH  11  12
ENDBRANCH   5  11
BRANCH   1  22
HETATM   22  C3  UNL     1      28.436   0.269  54.329  1.00  0.00     0.141 C 
HETATM   23  C2  UNL     1      29.262  -0.704  53.950  1.00  0.00     0.014 C 
HETATM   24  C1  UNL     1      29.276  -1.977  53.237  1.00  0.00     0.039 C 
HETATM   25  F1  UNL     1      29.152   1.202  55.000  1.00  0.00    -0.204 F 
ENDBRANCH   1  22
TORSDOF 6
ENDMDL
MODEL 6
REMARK VINA RESULT:      -6.6      1.751      2.217
REMARK  6 active torsions:
REMARK  status: ('A' for Active; 'I' for Inactive)
REMARK    1  A    between atoms: C3_3  and  C4_5 
REMARK    2  A    between atoms: C8_9  and  C9_11 
REMARK    3  A    between atoms: C9_11  and  O1_12 
REMARK    4  A    between atoms: O1_12  and  C10_13 
REMARK    5  A    between atoms: C10_13  and  C11_14 
REMARK    6  A    between atoms: C11_14  and  N1_15 
ROOT
HETATM    1  C4  UNL     1      27.621   1.454  53.230  1.00  0.00     0.104 A 
HETATM    2  C5  UNL     1      26.481   0.882  53.527  1.00  0.00    -0.002 A 
HETATM    3  C6  UNL     1      26.305   0.003  54.669  1.00  0.00     0.053 C 
HETATM    4  C7  UNL     1      25.292   1.094  52.717  1.00  0.00     0.061 A 
HETATM    5  C8  UNL     1      24.107   0.557  52.944  1.00  0.00     0.062 C 
HETATM    6 CL1  UNL     1      23.553  -0.534  54.210  1.00  0.00    -0.084 Cl
HETATM    7  N3  UNL     1      25.350   1.937  51.576  1.00  0.00    -0.349 N 
HETATM    8  C17 UNL     1      26.623   2.521  51.320  1.00  0.00     0.208 A 
HETATM    9  N4  UNL     1      27.608   2.268  52.098  1.00  0.00    -0.240 NA
HETATM   10  H25 UNL     1      24.670   2.231  50.875  1.00  0.00     0.166 HD
ENDROOT
BRANCH   5  11
HETATM   11  C9  UNL     1      22.854   0.688  52.214  1.00  0.00     0.221 C 
BRANCH  11  12
HETATM   12  O1  UNL     1      21.872  -0.255  52.542  1.00  0.00    -0.384 OA
BRANCH  12  13
HETATM   13  C10 UNL     1      20.734   0.184  51.866  1.00  0.00     0.198 C 
BRANCH  13  14
HETATM   14  C11 UNL     1      20.199   1.471  52.416  1.00  0.00     0.298 C 
BRANCH  14  15
HETATM   15  N1  UNL     1      19.263   2.163  51.612  1.00  0.00     0.093 N 
HETATM   16  C12 UNL     1      19.460   1.792  50.227  1.00  0.00     0.302 C 
HETATM   17  C13 UNL     1      19.880   2.922  49.344  1.00  0.00     0.302 C 
HETATM   18  N2  UNL     1      20.861   3.796  49.933  1.00  0.00     0.087 N 
HETATM   19  C14 UNL     1      22.213   3.360  49.746  1.00  0.00     0.310 C 
HETATM   20  C15 UNL     1      20.603   4.162  51.285  1.00  0.00     0.302 C 
HETATM   21  C16 UNL     1      19.280   3.593  51.736  1.00  0.00     0.302 C 
ENDBRANCH  14  15
ENDBRANCH  13  14
ENDBRANCH  12  13
ENDBRANCH  11  12
ENDBRANCH   5  11
BRANCH   1  22
HETATM   22  C3  UNL     1      28.864   1.312  53.967  1.00  0.00     0.141 C 
HETATM   23  C2  UNL     1      29.563   0.181  53.904  1.00  0.00     0.014 C 
HETATM   24  C1  UNL     1      29.544  -1.142  53.287  1.00  0.00     0.039 C 
HETATM   25  F1  UNL     1      29.516   2.173  54.782  1.00  0.00    -0.204 F 
ENDBRANCH   1  22
TORSDOF 6
ENDMDL
MODEL 7
REMARK VINA RESULT:      -6.6      3.584      4.405
REMARK  6 active torsions:
REMARK  status: ('A' for Active; 'I' for Inactive)
REMARK    1  A    between atoms: C3_3  and  C4_5 
REMARK    2  A    between atoms: C8_9  and  C9_11 
REMARK    3  A    between atoms: C9_11  and  O1_12 
REMARK    4  A    between atoms: O1_12  and  C10_13 
REMARK    5  A    between atoms: C10_13  and  C11_14 
REMARK    6  A    between atoms: C11_14  and  N1_15 
ROOT
HETATM    1  C4  UNL     1      26.271   0.434  52.312  1.00  0.00     0.104 A 
HETATM    2  C5  UNL     1      24.997   0.618  52.557  1.00  0.00    -0.002 A 
HETATM    3  C6  UNL     1      24.174  -0.349  53.261  1.00  0.00     0.053 C 
HETATM    4  C7  UNL     1      24.311   1.828  52.133  1.00  0.00     0.061 A 
HETATM    5  C8  UNL     1      23.033   2.093  52.338  1.00  0.00     0.062 C 
HETATM    6 CL1  UNL     1      21.771   1.162  53.137  1.00  0.00    -0.084 Cl
HETATM    7  N3  UNL     1      25.021   2.842  51.437  1.00  0.00    -0.349 N 
HETATM    8  C17 UNL     1      26.399   2.567  51.210  1.00  0.00     0.208 A 
HETATM    9  N4  UNL     1      26.907   1.467  51.626  1.00  0.00    -0.240 NA
HETATM   10  H25 UNL     1      24.765   3.751  51.051  1.00  0.00     0.166 HD
ENDROOT
BRANCH   5  11
HETATM   11  C9  UNL     1      22.237   3.254  51.965  1.00  0.00     0.221 C 
BRANCH  11  12
HETATM   12  O1  UNL     1      22.688   4.476  52.479  1.00  0.00    -0.384 OA
BRANCH  12  13
HETATM   13  C10 UNL     1      22.107   5.434  51.649  1.00  0.00     0.198 C 
BRANCH  13  14
HETATM   14  C11 UNL     1      22.758   5.498  50.302  1.00  0.00     0.298 C 
BRANCH  14  15
HETATM   15  N1  UNL     1      22.990   6.789  49.771  1.00  0.00     0.093 N 
HETATM   16  C12 UNL     1      23.414   6.665  48.392  1.00  0.00     0.302 C 
HETATM   17  C13 UNL     1      24.800   7.161  48.132  1.00  0.00     0.302 C 
HETATM   18  N2  UNL     1      25.756   6.797  49.145  1.00  0.00     0.087 N 
HETATM   19  C14 UNL     1      26.351   5.509  48.945  1.00  0.00     0.310 C 
HETATM   20  C15 UNL     1      25.305   6.971  50.485  1.00  0.00     0.302 C 
HETATM   21  C16 UNL     1      23.931   7.596  50.495  1.00  0.00     0.302 C 
ENDBRANCH  14  15
ENDBRANCH  13  14
ENDBRANCH  12  13
ENDBRANCH  11  12
ENDBRANCH   5  11
BRANCH   1  22
HETATM   22  C3  UNL     1      27.052  -0.731  52.689  1.00  0.00     0.141 C 
HETATM   23  C2  UNL     1      28.002  -0.640  53.616  1.00  0.00     0.014 C 
HETATM   24  C1  UNL     1      28.633   0.321  54.514  1.00  0.00     0.039 C 
HETATM   25  F1  UNL     1      27.007  -2.010  52.245  1.00  0.00    -0.204 F 
ENDBRANCH   1  22
TORSDOF 6
ENDMDL
MODEL 8
REMARK VINA RESULT:      -6.6      2.398      3.053
REMARK  6 active torsions:
REMARK  status: ('A' for Active; 'I' for Inactive)
REMARK    1  A    between atoms: C3_3  and  C4_5 
REMARK    2  A    between atoms: C8_9  and  C9_11 
REMARK    3  A    between atoms: C9_11  and  O1_12 
REMARK    4  A    between atoms: O1_12  and  C10_13 
REMARK    5  A    between atoms: C10_13  and  C11_14 
REMARK    6  A    between atoms: C11_14  and  N1_15 
ROOT
HETATM    1  C4  UNL     1      26.325   0.300  52.378  1.00  0.00     0.104 A 
HETATM    2  C5  UNL     1      25.059   0.463  52.674  1.00  0.00    -0.002 A 
HETATM    3  C6  UNL     1      24.286  -0.510  53.426  1.00  0.00     0.053 C 
HETATM    4  C7  UNL     1      24.331   1.652  52.262  1.00  0.00     0.061 A 
HETATM    5  C8  UNL     1      23.058   1.895  52.517  1.00  0.00     0.062 C 
HETATM    6 CL1  UNL     1      21.849   0.952  53.382  1.00  0.00    -0.084 Cl
HETATM    7  N3  UNL     1      24.991   2.670  51.522  1.00  0.00    -0.349 N 
HETATM    8  C17 UNL     1      26.363   2.418  51.240  1.00  0.00     0.208 A 
HETATM    9  N4  UNL     1      26.910   1.336  51.650  1.00  0.00    -0.240 NA
HETATM   10  H25 UNL     1      24.699   3.567  51.134  1.00  0.00     0.166 HD
ENDROOT
BRANCH   5  11
HETATM   11  C9  UNL     1      22.223   3.034  52.162  1.00  0.00     0.221 C 
BRANCH  11  12
HETATM   12  O1  UNL     1      22.741   4.286  52.516  1.00  0.00    -0.384 OA
BRANCH  12  13
HETATM   13  C10 UNL     1      22.357   5.126  51.472  1.00  0.00     0.198 C 
BRANCH  13  14
HETATM   14  C11 UNL     1      21.391   4.471  50.532  1.00  0.00     0.298 C 
BRANCH  14  15
HETATM   15  N1  UNL     1      21.540   4.772  49.158  1.00  0.00     0.093 N 
HETATM   16  C12 UNL     1      20.463   4.152  48.417  1.00  0.00     0.302 C 
HETATM   17  C13 UNL     1      20.912   3.115  47.438  1.00  0.00     0.302 C 
HETATM   18  N2  UNL     1      21.949   2.248  47.933  1.00  0.00     0.087 N 
HETATM   19  C14 UNL     1      21.461   1.116  48.663  1.00  0.00     0.310 C 
HETATM   20  C15 UNL     1      23.005   2.910  48.623  1.00  0.00     0.302 C 
HETATM   21  C16 UNL     1      22.801   4.404  48.578  1.00  0.00     0.302 C 
ENDBRANCH  14  15
ENDBRANCH  13  14
ENDBRANCH  12  13
ENDBRANCH  11  12
ENDBRANCH   5  11
BRANCH   1  22
HETATM   22  C3  UNL     1      27.144  -0.844  52.737  1.00  0.00     0.141 C 
HETATM   23  C2  UNL     1      28.117  -0.724  53.637  1.00  0.00     0.014 C 
HETATM   24  C1  UNL     1      28.748   0.256  54.514  1.00  0.00     0.039 C 
HETATM   25  F1  UNL     1      27.120  -2.125  52.300  1.00  0.00    -0.204 F 
ENDBRANCH   1  22
TORSDOF 6
ENDMDL
MODEL 9
REMARK VINA RESULT:      -6.6      2.163      2.938
REMARK  6 active torsions:
REMARK  status: ('A' for Active; 'I' for Inactive)
REMARK    1  A    between atoms: C3_3  and  C4_5 
REMARK    2  A    between atoms: C8_9  and  C9_11 
REMARK    3  A    between atoms: C9_11  and  O1_12 
REMARK    4  A    between atoms: O1_12  and  C10_13 
REMARK    5  A    between atoms: C10_13  and  C11_14 
REMARK    6  A    between atoms: C11_14  and  N1_15 
ROOT
HETATM    1  C4  UNL     1      27.600   1.193  53.396  1.00  0.00     0.104 A 
HETATM    2  C5  UNL     1      26.407   0.703  53.625  1.00  0.00    -0.002 A 
HETATM    3  C6  UNL     1      26.123  -0.234  54.697  1.00  0.00     0.053 C 
HETATM    4  C7  UNL     1      25.265   1.073  52.804  1.00  0.00     0.061 A 
HETATM    5  C8  UNL     1      24.032   0.627  52.964  1.00  0.00     0.062 C 
HETATM    6 CL1  UNL     1      23.349  -0.496  54.137  1.00  0.00    -0.084 Cl
HETATM    7  N3  UNL     1      25.428   1.985  51.727  1.00  0.00    -0.349 N 
HETATM    8  C17 UNL     1      26.753   2.471  51.544  1.00  0.00     0.208 A 
HETATM    9  N4  UNL     1      27.690   2.080  52.325  1.00  0.00    -0.240 NA
HETATM   10  H25 UNL     1      24.796   2.384  51.033  1.00  0.00     0.166 HD
ENDROOT
BRANCH   5  11
HETATM   11  C9  UNL     1      22.817   0.917  52.217  1.00  0.00     0.221 C 
BRANCH  11  12
HETATM   12  O1  UNL     1      22.190   2.126  52.544  1.00  0.00    -0.384 OA
BRANCH  12  13
HETATM   13  C10 UNL     1      22.012   2.765  51.318  1.00  0.00     0.198 C 
BRANCH  13  14
HETATM   14  C11 UNL     1      22.107   1.822  50.158  1.00  0.00     0.298 C 
BRANCH  14  15
HETATM   15  N1  UNL     1      22.913   2.233  49.070  1.00  0.00     0.093 N 
HETATM   16  C12 UNL     1      23.297   3.616  49.260  1.00  0.00     0.302 C 
HETATM   17  C13 UNL     1      22.774   4.545  48.213  1.00  0.00     0.302 C 
HETATM   18  N2  UNL     1      21.410   4.293  47.830  1.00  0.00     0.087 N 
HETATM   19  C14 UNL     1      20.443   4.944  48.663  1.00  0.00     0.310 C 
HETATM   20  C15 UNL     1      21.090   2.921  47.619  1.00  0.00     0.302 C 
HETATM   21  C16 UNL     1      22.327   2.069  47.770  1.00  0.00     0.302 C 
ENDBRANCH  14  15
ENDBRANCH  13  14
ENDBRANCH  12  13
ENDBRANCH  11  12
ENDBRANCH   5  11
BRANCH   1  22
HETATM   22  C3  UNL     1      28.804   0.891  54.150  1.00  0.00     0.141 C 
HETATM   23  C2  UNL     1      29.434  -0.269  53.985  1.00  0.00     0.014 C 
HETATM   24  C1  UNL     1      29.356  -1.514  53.228  1.00  0.00     0.039 C 
HETATM   25  F1  UNL     1      29.477   1.617  55.073  1.00  0.00    -0.204 F 
ENDBRANCH   1  22
TORSDOF 6
ENDMDL
