MODEL 1
REMARK VINA RESULT:      -8.3      0.000      0.000
REMARK  6 active torsions:
REMARK  status: ('A' for Active; 'I' for Inactive)
REMARK    1  A    between atoms: C2_2  and  C3_3 
REMARK    2  A    between atoms: C3_3  and  C4_4 
REMARK    3  A    between atoms: C4_4  and  C5_5 
REMARK    4  A    between atoms: C9_9  and  O1_10 
REMARK    5  A    between atoms: C18_20  and  N1_21 
REMARK    6  A    between atoms: C25_29  and  O3_30 
ROOT
HETATM    1  C5  UNL     1      29.341   6.346  48.203  1.00  0.00    -0.071 C 
HETATM    2  C6  UNL     1      29.431   7.704  48.381  1.00  0.00    -0.064 C 
HETATM    3  C7  UNL     1      28.026   8.061  48.704  1.00  0.00     0.065 C 
HETATM    4  C8  UNL     1      27.701   9.502  48.670  1.00  0.00     0.014 C 
HETATM    5  C9  UNL     1      28.310  10.675  48.903  1.00  0.00     0.061 C 
HETATM    6  C10 UNL     1      29.706  10.715  49.320  1.00  0.00     0.033 C 
HETATM    7  C11 UNL     1      30.627   9.797  49.040  1.00  0.00    -0.013 C 
HETATM    8  C12 UNL     1      30.626   8.525  48.288  1.00  0.00     0.061 C 
HETATM    9  C13 UNL     1      31.099   8.767  46.865  1.00  0.00     0.180 C 
HETATM   10  O2  UNL     1      32.329   9.337  46.778  1.00  0.00    -0.386 OA
HETATM   11  C14 UNL     1      33.390   8.784  47.388  1.00  0.00     0.206 C 
HETATM   12  C15 UNL     1      33.777   7.402  47.108  1.00  0.00     0.006 C 
HETATM   13  C16 UNL     1      33.780   6.564  46.079  1.00  0.00    -0.036 C 
HETATM   14  C17 UNL     1      33.510   6.696  44.653  1.00  0.00     0.072 C 
HETATM   15  C18 UNL     1      34.211   5.696  43.793  1.00  0.00     0.222 C 
HETATM   16  C19 UNL     1      34.679   4.444  44.479  1.00  0.00     0.038 C 
HETATM   17  C20 UNL     1      33.781   4.181  45.725  1.00  0.00     0.043 C 
HETATM   18  C21 UNL     1      34.164   5.223  46.660  1.00  0.00     0.256 C 
HETATM   19  N2  UNL     1      33.833   5.284  48.009  1.00  0.00     0.130 N 
HETATM   20  C22 UNL     1      32.479   5.183  48.456  1.00  0.00     0.277 C 
HETATM   21  C23 UNL     1      31.414   5.005  47.477  1.00  0.00     0.034 C 
HETATM   22  C24 UNL     1      29.992   5.090  47.851  1.00  0.00     0.036 C 
HETATM   23  C25 UNL     1      34.352   6.644  48.298  1.00  0.00     0.392 C 
ENDROOT
BRANCH   1  24
HETATM   24  C4  UNL     1      27.892   6.106  48.460  1.00  0.00     0.058 C 
BRANCH  24  25
HETATM   25  C3  UNL     1      26.697   5.588  48.781  1.00  0.00     0.003 C 
BRANCH  25  26
HETATM   26  C2  UNL     1      25.951   4.452  49.358  1.00  0.00    -0.036 C 
HETATM   27  C1  UNL     1      26.361   3.277  49.603  1.00  0.00     0.007 C 
ENDBRANCH  25  26
ENDBRANCH  24  25
ENDBRANCH   1  24
BRANCH   5  28
HETATM   28  O1  UNL     1      27.633  11.875  48.753  1.00  0.00    -0.361 OA
HETATM   29  H9  UNL     1      26.684  11.857  48.390  1.00  0.00     0.217 HD
ENDBRANCH   5  28
BRANCH  23  30
HETATM   30  O3  UNL     1      35.691   6.739  48.393  1.00  0.00    -0.359 OA
HETATM   31  C26 UNL     1      36.289   6.065  49.433  1.00  0.00     0.204 C 
ENDBRANCH  23  30
BRANCH  15  32
HETATM   32  N1  UNL     1      33.233   5.243  42.790  1.00  0.00     0.083 N 
HETATM   33  H20 UNL     1      33.565   4.455  42.226  1.00  0.00     0.313 HD
HETATM   34  H21 UNL     1      32.289   5.204  43.183  1.00  0.00     0.313 HD
ENDBRANCH  15  32
TORSDOF 6
ENDMDL
MODEL 2
REMARK VINA RESULT:      -8.1      9.292     11.964
REMARK  6 active torsions:
REMARK  status: ('A' for Active; 'I' for Inactive)
REMARK    1  A    between atoms: C2_2  and  C3_3 
REMARK    2  A    between atoms: C3_3  and  C4_4 
REMARK    3  A    between atoms: C4_4  and  C5_5 
REMARK    4  A    between atoms: C9_9  and  O1_10 
REMARK    5  A    between atoms: C18_20  and  N1_21 
REMARK    6  A    between atoms: C25_29  and  O3_30 
ROOT
HETATM    1  C5  UNL     1      24.278   1.843  51.817  1.00  0.00    -0.071 C 
HETATM    2  C6  UNL     1      23.153   1.354  52.433  1.00  0.00    -0.064 C 
HETATM    3  C7  UNL     1      23.702   0.205  53.199  1.00  0.00     0.065 C 
HETATM    4  C8  UNL     1      22.707  -0.735  53.755  1.00  0.00     0.014 C 
HETATM    5  C9  UNL     1      21.451  -0.705  54.227  1.00  0.00     0.061 C 
HETATM    6  C10 UNL     1      20.706   0.547  54.272  1.00  0.00     0.033 C 
HETATM    7  C11 UNL     1      20.891   1.589  53.468  1.00  0.00    -0.013 C 
HETATM    8  C12 UNL     1      21.802   1.880  52.342  1.00  0.00     0.061 C 
HETATM    9  C13 UNL     1      21.109   1.575  51.025  1.00  0.00     0.180 C 
HETATM   10  O2  UNL     1      19.943   2.249  50.843  1.00  0.00    -0.386 OA
HETATM   11  C14 UNL     1      19.898   3.588  50.936  1.00  0.00     0.206 C 
HETATM   12  C15 UNL     1      20.759   4.424  50.101  1.00  0.00     0.006 C 
HETATM   13  C16 UNL     1      21.270   4.406  48.877  1.00  0.00    -0.036 C 
HETATM   14  C17 UNL     1      21.081   3.563  47.702  1.00  0.00     0.072 C 
HETATM   15  C18 UNL     1      21.362   4.240  46.401  1.00  0.00     0.222 C 
HETATM   16  C19 UNL     1      22.228   5.465  46.463  1.00  0.00     0.038 C 
HETATM   17  C20 UNL     1      23.148   5.373  47.719  1.00  0.00     0.043 C 
HETATM   18  C21 UNL     1      22.240   5.565  48.834  1.00  0.00     0.256 C 
HETATM   19  N2  UNL     1      22.595   5.811  50.154  1.00  0.00     0.130 N 
HETATM   20  C22 UNL     1      23.508   4.966  50.859  1.00  0.00     0.277 C 
HETATM   21  C23 UNL     1      24.089   3.816  50.176  1.00  0.00     0.034 C 
HETATM   22  C24 UNL     1      24.877   2.800  50.896  1.00  0.00     0.036 C 
HETATM   23  C25 UNL     1      21.248   5.705  50.766  1.00  0.00     0.392 C 
ENDROOT
BRANCH   1  24
HETATM   24  C4  UNL     1      25.325   0.910  52.323  1.00  0.00     0.058 C 
BRANCH  24  25
HETATM   25  C3  UNL     1      26.466   0.253  52.581  1.00  0.00     0.003 C 
BRANCH  25  26
HETATM   26  C2  UNL     1      27.137  -1.053  52.743  1.00  0.00    -0.036 C 
HETATM   27  C1  UNL     1      26.770  -2.191  52.321  1.00  0.00     0.007 C 
ENDBRANCH  25  26
ENDBRANCH  24  25
ENDBRANCH   1  24
BRANCH   5  28
HETATM   28  O1  UNL     1      20.831  -1.858  54.683  1.00  0.00    -0.361 OA
HETATM   29  H9  UNL     1      20.142  -1.780  55.425  1.00  0.00     0.217 HD
ENDBRANCH   5  28
BRANCH  23  30
HETATM   30  O3  UNL     1      20.436   6.758  50.553  1.00  0.00    -0.359 OA
HETATM   31  C26 UNL     1      21.022   8.003  50.556  1.00  0.00     0.204 C 
ENDBRANCH  23  30
BRANCH  15  32
HETATM   32  N1  UNL     1      22.113   3.277  45.579  1.00  0.00     0.083 N 
HETATM   33  H20 UNL     1      21.966   2.303  45.857  1.00  0.00     0.313 HD
HETATM   34  H21 UNL     1      22.063   3.518  44.586  1.00  0.00     0.313 HD
ENDBRANCH  15  32
TORSDOF 6
ENDMDL
MODEL 3
REMARK VINA RESULT:      -7.8     10.453     14.966
REMARK  6 active torsions:
REMARK  status: ('A' for Active; 'I' for Inactive)
REMARK    1  A    between atoms: C2_2  and  C3_3 
REMARK    2  A    between atoms: C3_3  and  C4_4 
REMARK    3  A    between atoms: C4_4  and  C5_5 
REMARK    4  A    between atoms: C9_9  and  O1_10 
REMARK    5  A    between atoms: C18_20  and  N1_21 
REMARK    6  A    between atoms: C25_29  and  O3_30 
ROOT
HETATM    1  C5  UNL     1      20.425   0.298  52.358  1.00  0.00    -0.071 C 
HETATM    2  C6  UNL     1      21.340   1.203  51.881  1.00  0.00    -0.064 C 
HETATM    3  C7  UNL     1      22.591   0.743  52.538  1.00  0.00     0.065 C 
HETATM    4  C8  UNL     1      23.734   1.678  52.475  1.00  0.00     0.014 C 
HETATM    5  C9  UNL     1      24.223   2.612  51.645  1.00  0.00     0.061 C 
HETATM    6  C10 UNL     1      23.544   2.919  50.392  1.00  0.00     0.033 C 
HETATM    7  C11 UNL     1      22.244   2.769  50.156  1.00  0.00    -0.013 C 
HETATM    8  C12 UNL     1      21.095   2.295  50.955  1.00  0.00     0.061 C 
HETATM    9  C13 UNL     1      20.375   3.480  51.575  1.00  0.00     0.180 C 
HETATM   10  O2  UNL     1      19.944   4.401  50.674  1.00  0.00    -0.386 OA
HETATM   11  C14 UNL     1      19.162   4.043  49.642  1.00  0.00     0.206 C 
HETATM   12  C15 UNL     1      17.890   3.359  49.869  1.00  0.00     0.006 C 
HETATM   13  C16 UNL     1      16.912   3.361  50.766  1.00  0.00    -0.036 C 
HETATM   14  C17 UNL     1      16.584   4.191  51.919  1.00  0.00     0.072 C 
HETATM   15  C18 UNL     1      15.129   4.237  52.256  1.00  0.00     0.222 C 
HETATM   16  C19 UNL     1      14.288   3.112  51.725  1.00  0.00     0.038 C 
HETATM   17  C20 UNL     1      15.190   1.856  51.523  1.00  0.00     0.043 C 
HETATM   18  C21 UNL     1      16.022   2.200  50.385  1.00  0.00     0.256 C 
HETATM   19  N2  UNL     1      16.823   1.330  49.656  1.00  0.00     0.130 N 
HETATM   20  C22 UNL     1      17.790   0.488  50.288  1.00  0.00     0.277 C 
HETATM   21  C23 UNL     1      17.939   0.536  51.738  1.00  0.00     0.034 C 
HETATM   22  C24 UNL     1      19.042  -0.155  52.429  1.00  0.00     0.036 C 
HETATM   23  C25 UNL     1      17.516   2.332  48.808  1.00  0.00     0.392 C 
ENDROOT
BRANCH   1  24
HETATM   24  C4  UNL     1      21.282  -0.568  53.219  1.00  0.00     0.058 C 
BRANCH  24  25
HETATM   25  C3  UNL     1      21.765  -1.399  54.154  1.00  0.00     0.003 C 
BRANCH  25  26
HETATM   26  C2  UNL     1      22.651  -1.574  55.322  1.00  0.00    -0.036 C 
HETATM   27  C1  UNL     1      23.871  -1.249  55.448  1.00  0.00     0.007 C 
ENDBRANCH  25  26
ENDBRANCH  24  25
ENDBRANCH   1  24
BRANCH   5  28
HETATM   28  O1  UNL     1      25.381   3.308  51.954  1.00  0.00    -0.361 OA
HETATM   29  H9  UNL     1      25.367   3.953  52.740  1.00  0.00     0.217 HD
ENDBRANCH   5  28
BRANCH  23  30
HETATM   30  O3  UNL     1      16.777   2.846  47.807  1.00  0.00    -0.359 OA
HETATM   31  C26 UNL     1      17.418   3.057  46.608  1.00  0.00     0.204 C 
ENDBRANCH  23  30
BRANCH  15  32
HETATM   32  N1  UNL     1      15.032   4.134  53.721  1.00  0.00     0.083 N 
HETATM   33  H20 UNL     1      14.070   4.190  54.069  1.00  0.00     0.313 HD
HETATM   34  H21 UNL     1      15.644   3.399  54.082  1.00  0.00     0.313 HD
ENDBRANCH  15  32
TORSDOF 6
ENDMDL
MODEL 4
REMARK VINA RESULT:      -7.7      2.711      4.405
REMARK  6 active torsions:
REMARK  status: ('A' for Active; 'I' for Inactive)
REMARK    1  A    between atoms: C2_2  and  C3_3 
REMARK    2  A    between atoms: C3_3  and  C4_4 
REMARK    3  A    between atoms: C4_4  and  C5_5 
REMARK    4  A    between atoms: C9_9  and  O1_10 
REMARK    5  A    between atoms: C18_20  and  N1_21 
REMARK    6  A    between atoms: C25_29  and  O3_30 
ROOT
HETATM    1  C5  UNL     1      27.687   5.927  48.498  1.00  0.00    -0.071 C 
HETATM    2  C6  UNL     1      26.631   6.791  48.343  1.00  0.00    -0.064 C 
HETATM    3  C7  UNL     1      25.476   5.921  48.687  1.00  0.00     0.065 C 
HETATM    4  C8  UNL     1      24.142   6.452  48.340  1.00  0.00     0.014 C 
HETATM    5  C9  UNL     1      23.530   7.643  48.239  1.00  0.00     0.061 C 
HETATM    6  C10 UNL     1      24.255   8.875  48.520  1.00  0.00     0.033 C 
HETATM    7  C11 UNL     1      25.567   9.051  48.389  1.00  0.00    -0.013 C 
HETATM    8  C12 UNL     1      26.689   8.191  47.961  1.00  0.00     0.061 C 
HETATM    9  C13 UNL     1      26.980   8.417  46.488  1.00  0.00     0.180 C 
HETATM   10  O2  UNL     1      27.258   9.708  46.169  1.00  0.00    -0.386 OA
HETATM   11  C14 UNL     1      28.233  10.381  46.804  1.00  0.00     0.206 C 
HETATM   12  C15 UNL     1      29.601   9.868  46.827  1.00  0.00     0.006 C 
HETATM   13  C16 UNL     1      30.420   9.196  46.028  1.00  0.00    -0.036 C 
HETATM   14  C17 UNL     1      30.364   8.761  44.637  1.00  0.00     0.072 C 
HETATM   15  C18 UNL     1      31.697   8.596  43.984  1.00  0.00     0.222 C 
HETATM   16  C19 UNL     1      32.870   8.418  44.905  1.00  0.00     0.038 C 
HETATM   17  C20 UNL     1      32.372   7.801  46.248  1.00  0.00     0.043 C 
HETATM   18  C21 UNL     1      31.631   8.879  46.876  1.00  0.00     0.256 C 
HETATM   19  N2  UNL     1      31.193   8.920  48.194  1.00  0.00     0.130 N 
HETATM   20  C22 UNL     1      30.416   7.863  48.762  1.00  0.00     0.277 C 
HETATM   21  C23 UNL     1      30.075   6.707  47.943  1.00  0.00     0.034 C 
HETATM   22  C24 UNL     1      29.120   5.683  48.401  1.00  0.00     0.036 C 
HETATM   23  C25 UNL     1      30.370  10.152  48.112  1.00  0.00     0.392 C 
ENDROOT
BRANCH   1  24
HETATM   24  C4  UNL     1      26.992   4.678  48.922  1.00  0.00     0.058 C 
BRANCH  24  25
HETATM   25  C3  UNL     1      26.661   3.487  49.445  1.00  0.00     0.003 C 
BRANCH  25  26
HETATM   26  C2  UNL     1      26.161   2.742  50.617  1.00  0.00    -0.036 C 
HETATM   27  C1  UNL     1      26.816   2.263  51.592  1.00  0.00     0.007 C 
ENDBRANCH  25  26
ENDBRANCH  24  25
ENDBRANCH   1  24
BRANCH   5  28
HETATM   28  O1  UNL     1      22.198   7.732  47.866  1.00  0.00    -0.361 OA
HETATM   29  H9  UNL     1      21.914   8.487  47.248  1.00  0.00     0.217 HD
ENDBRANCH   5  28
BRANCH  23  30
HETATM   30  O3  UNL     1      31.065  11.305  48.072  1.00  0.00    -0.359 OA
HETATM   31  C26 UNL     1      30.751  12.252  49.019  1.00  0.00     0.204 C 
ENDBRANCH  23  30
BRANCH  15  32
HETATM   32  N1  UNL     1      31.631   7.353  43.200  1.00  0.00     0.083 N 
HETATM   33  H20 UNL     1      31.359   6.535  43.755  1.00  0.00     0.313 HD
HETATM   34  H21 UNL     1      31.175   7.507  42.297  1.00  0.00     0.313 HD
ENDBRANCH  15  32
TORSDOF 6
ENDMDL
MODEL 5
REMARK VINA RESULT:      -7.5      8.602     11.615
REMARK  6 active torsions:
REMARK  status: ('A' for Active; 'I' for Inactive)
REMARK    1  A    between atoms: C2_2  and  C3_3 
REMARK    2  A    between atoms: C3_3  and  C4_4 
REMARK    3  A    between atoms: C4_4  and  C5_5 
REMARK    4  A    between atoms: C9_9  and  O1_10 
REMARK    5  A    between atoms: C18_20  and  N1_21 
REMARK    6  A    between atoms: C25_29  and  O3_30 
ROOT
HETATM    1  C5  UNL     1      21.771   2.169  51.710  1.00  0.00    -0.071 C 
HETATM    2  C6  UNL     1      23.121   2.420  51.714  1.00  0.00    -0.064 C 
HETATM    3  C7  UNL     1      23.561   1.686  52.928  1.00  0.00     0.065 C 
HETATM    4  C8  UNL     1      24.928   1.985  53.404  1.00  0.00     0.014 C 
HETATM    5  C9  UNL     1      26.116   2.340  52.889  1.00  0.00     0.061 C 
HETATM    6  C10 UNL     1      26.274   2.528  51.452  1.00  0.00     0.033 C 
HETATM    7  C11 UNL     1      25.311   2.882  50.605  1.00  0.00    -0.013 C 
HETATM    8  C12 UNL     1      23.874   3.194  50.743  1.00  0.00     0.061 C 
HETATM    9  C13 UNL     1      23.681   4.695  50.866  1.00  0.00     0.180 C 
HETATM   10  O2  UNL     1      24.196   5.408  49.830  1.00  0.00    -0.386 OA
HETATM   11  C14 UNL     1      23.846   5.134  48.562  1.00  0.00     0.206 C 
HETATM   12  C15 UNL     1      22.442   5.151  48.154  1.00  0.00     0.006 C 
HETATM   13  C16 UNL     1      21.337   5.827  48.441  1.00  0.00    -0.036 C 
HETATM   14  C17 UNL     1      21.040   7.012  49.237  1.00  0.00     0.072 C 
HETATM   15  C18 UNL     1      19.827   7.766  48.799  1.00  0.00     0.222 C 
HETATM   16  C19 UNL     1      18.834   7.002  47.970  1.00  0.00     0.038 C 
HETATM   17  C20 UNL     1      18.956   5.484  48.302  1.00  0.00     0.043 C 
HETATM   18  C21 UNL     1      20.227   5.098  47.717  1.00  0.00     0.256 C 
HETATM   19  N2  UNL     1      20.687   3.801  47.526  1.00  0.00     0.130 N 
HETATM   20  C22 UNL     1      20.727   2.851  48.594  1.00  0.00     0.277 C 
HETATM   21  C23 UNL     1      20.270   3.247  49.920  1.00  0.00     0.034 C 
HETATM   22  C24 UNL     1      20.466   2.387  51.100  1.00  0.00     0.036 C 
HETATM   23  C25 UNL     1      22.070   4.121  47.095  1.00  0.00     0.392 C 
ENDROOT
BRANCH   1  24
HETATM   24  C4  UNL     1      21.623   1.312  52.921  1.00  0.00     0.058 C 
BRANCH  24  25
HETATM   25  C3  UNL     1      21.178   0.505  53.896  1.00  0.00     0.003 C 
BRANCH  25  26
HETATM   26  C2  UNL     1      21.442  -0.667  54.755  1.00  0.00    -0.036 C 
HETATM   27  C1  UNL     1      22.546  -1.243  54.994  1.00  0.00     0.007 C 
ENDBRANCH  25  26
ENDBRANCH  24  25
ENDBRANCH   1  24
BRANCH   5  28
HETATM   28  O1  UNL     1      27.219   2.536  53.704  1.00  0.00    -0.361 OA
HETATM   29  H9  UNL     1      28.038   1.951  53.566  1.00  0.00     0.217 HD
ENDBRANCH   5  28
BRANCH  23  30
HETATM   30  O3  UNL     1      22.185   4.587  45.836  1.00  0.00    -0.359 OA
HETATM   31  C26 UNL     1      21.534   3.881  44.852  1.00  0.00     0.204 C 
ENDBRANCH  23  30
BRANCH  15  32
HETATM   32  N1  UNL     1      19.100   8.141  50.022  1.00  0.00     0.083 N 
HETATM   33  H20 UNL     1      18.081   8.091  49.922  1.00  0.00     0.313 HD
HETATM   34  H21 UNL     1      19.533   7.731  50.853  1.00  0.00     0.313 HD
ENDBRANCH  15  32
TORSDOF 6
ENDMDL
MODEL 6
REMARK VINA RESULT:      -7.4     10.480     15.434
REMARK  6 active torsions:
REMARK  status: ('A' for Active; 'I' for Inactive)
REMARK    1  A    between atoms: C2_2  and  C3_3 
REMARK    2  A    between atoms: C3_3  and  C4_4 
REMARK    3  A    between atoms: C4_4  and  C5_5 
REMARK    4  A    between atoms: C9_9  and  O1_10 
REMARK    5  A    between atoms: C18_20  and  N1_21 
REMARK    6  A    between atoms: C25_29  and  O3_30 
ROOT
HETATM    1  C5  UNL     1      20.410   0.440  51.917  1.00  0.00    -0.071 C 
HETATM    2  C6  UNL     1      21.047   1.244  51.005  1.00  0.00    -0.064 C 
HETATM    3  C7  UNL     1      22.474   1.042  51.367  1.00  0.00     0.065 C 
HETATM    4  C8  UNL     1      23.433   1.993  50.768  1.00  0.00     0.014 C 
HETATM    5  C9  UNL     1      23.566   2.710  49.642  1.00  0.00     0.061 C 
HETATM    6  C10 UNL     1      22.551   2.646  48.598  1.00  0.00     0.033 C 
HETATM    7  C11 UNL     1      21.264   2.365  48.783  1.00  0.00    -0.013 C 
HETATM    8  C12 UNL     1      20.433   2.046  49.961  1.00  0.00     0.061 C 
HETATM    9  C13 UNL     1      19.755   3.307  50.471  1.00  0.00     0.180 C 
HETATM   10  O2  UNL     1      18.991   3.940  49.542  1.00  0.00    -0.386 OA
HETATM   11  C14 UNL     1      18.019   3.285  48.886  1.00  0.00     0.206 C 
HETATM   12  C15 UNL     1      16.948   2.610  49.616  1.00  0.00     0.006 C 
HETATM   13  C16 UNL     1      16.245   2.784  50.729  1.00  0.00    -0.036 C 
HETATM   14  C17 UNL     1      16.127   3.862  51.704  1.00  0.00     0.072 C 
HETATM   15  C18 UNL     1      14.816   3.909  52.420  1.00  0.00     0.222 C 
HETATM   16  C19 UNL     1      14.016   2.638  52.424  1.00  0.00     0.038 C 
HETATM   17  C20 UNL     1      14.985   1.427  52.269  1.00  0.00     0.043 C 
HETATM   18  C21 UNL     1      15.440   1.515  50.894  1.00  0.00     0.256 C 
HETATM   19  N2  UNL     1      16.127   0.536  50.188  1.00  0.00     0.130 N 
HETATM   20  C22 UNL     1      17.324  -0.059  50.696  1.00  0.00     0.277 C 
HETATM   21  C23 UNL     1      17.839   0.367  51.992  1.00  0.00     0.034 C 
HETATM   22  C24 UNL     1      19.162  -0.058  52.481  1.00  0.00     0.036 C 
HETATM   23  C25 UNL     1      16.443   1.325  48.971  1.00  0.00     0.392 C 
ENDROOT
BRANCH   1  24
HETATM   24  C4  UNL     1      21.564  -0.125  52.674  1.00  0.00     0.058 C 
BRANCH  24  25
HETATM   25  C3  UNL     1      22.360  -0.775  53.537  1.00  0.00     0.003 C 
BRANCH  25  26
HETATM   26  C2  UNL     1      23.629  -0.782  54.292  1.00  0.00    -0.036 C 
HETATM   27  C1  UNL     1      24.786  -0.437  53.903  1.00  0.00     0.007 C 
ENDBRANCH  25  26
ENDBRANCH  24  25
ENDBRANCH   1  24
BRANCH   5  28
HETATM   28  O1  UNL     1      24.667   3.528  49.441  1.00  0.00    -0.361 OA
HETATM   29  H9  UNL     1      24.865   4.256  50.122  1.00  0.00     0.217 HD
ENDBRANCH   5  28
BRANCH  23  30
HETATM   30  O3  UNL     1      15.409   1.522  48.131  1.00  0.00    -0.359 OA
HETATM   31  C26 UNL     1      14.999   0.439  47.388  1.00  0.00     0.204 C 
ENDBRANCH  23  30
BRANCH  15  32
HETATM   32  N1  UNL     1      15.119   4.179  53.835  1.00  0.00     0.083 N 
HETATM   33  H20 UNL     1      14.292   4.154  54.439  1.00  0.00     0.313 HD
HETATM   34  H21 UNL     1      15.962   3.685  54.135  1.00  0.00     0.313 HD
ENDBRANCH  15  32
TORSDOF 6
ENDMDL
MODEL 7
REMARK VINA RESULT:      -7.1      2.827      6.780
REMARK  6 active torsions:
REMARK  status: ('A' for Active; 'I' for Inactive)
REMARK    1  A    between atoms: C2_2  and  C3_3 
REMARK    2  A    between atoms: C3_3  and  C4_4 
REMARK    3  A    between atoms: C4_4  and  C5_5 
REMARK    4  A    between atoms: C9_9  and  O1_10 
REMARK    5  A    between atoms: C18_20  and  N1_21 
REMARK    6  A    between atoms: C25_29  and  O3_30 
ROOT
HETATM    1  C5  UNL     1      31.622   5.524  47.318  1.00  0.00    -0.071 C 
HETATM    2  C6  UNL     1      32.712   6.227  47.767  1.00  0.00    -0.064 C 
HETATM    3  C7  UNL     1      33.729   5.152  47.904  1.00  0.00     0.065 C 
HETATM    4  C8  UNL     1      34.952   5.511  48.652  1.00  0.00     0.014 C 
HETATM    5  C9  UNL     1      35.710   6.596  48.876  1.00  0.00     0.061 C 
HETATM    6  C10 UNL     1      35.364   7.879  48.278  1.00  0.00     0.033 C 
HETATM    7  C11 UNL     1      34.140   8.270  47.935  1.00  0.00    -0.013 C 
HETATM    8  C12 UNL     1      32.798   7.656  48.008  1.00  0.00     0.061 C 
HETATM    9  C13 UNL     1      32.090   8.113  49.272  1.00  0.00     0.180 C 
HETATM   10  O2  UNL     1      31.972   9.462  49.386  1.00  0.00    -0.386 OA
HETATM   11  C14 UNL     1      31.404  10.190  48.409  1.00  0.00     0.206 C 
HETATM   12  C15 UNL     1      30.048   9.896  47.950  1.00  0.00     0.006 C 
HETATM   13  C16 UNL     1      28.901   9.467  48.462  1.00  0.00    -0.036 C 
HETATM   14  C17 UNL     1      28.417   9.212  49.814  1.00  0.00     0.072 C 
HETATM   15  C18 UNL     1      26.937   9.340  49.977  1.00  0.00     0.222 C 
HETATM   16  C19 UNL     1      26.119   9.229  48.723  1.00  0.00     0.038 C 
HETATM   17  C20 UNL     1      26.902   8.374  47.680  1.00  0.00     0.043 C 
HETATM   18  C21 UNL     1      27.997   9.234  47.273  1.00  0.00     0.256 C 
HETATM   19  N2  UNL     1      28.842   9.037  46.187  1.00  0.00     0.130 N 
HETATM   20  C22 UNL     1      29.548   7.808  45.996  1.00  0.00     0.277 C 
HETATM   21  C23 UNL     1      29.376   6.728  46.961  1.00  0.00     0.034 C 
HETATM   22  C24 UNL     1      30.217   5.519  46.932  1.00  0.00     0.036 C 
HETATM   23  C25 UNL     1      29.810  10.127  46.463  1.00  0.00     0.392 C 
ENDROOT
BRANCH   1  24
HETATM   24  C4  UNL     1      32.167   4.138  47.247  1.00  0.00     0.058 C 
BRANCH  24  25
HETATM   25  C3  UNL     1      32.488   2.883  46.897  1.00  0.00     0.003 C 
BRANCH  25  26
HETATM   26  C2  UNL     1      32.556   1.463  47.293  1.00  0.00    -0.036 C 
HETATM   27  C1  UNL     1      32.008   0.459  46.745  1.00  0.00     0.007 C 
ENDBRANCH  25  26
ENDBRANCH  24  25
ENDBRANCH   1  24
BRANCH   5  28
HETATM   28  O1  UNL     1      36.839   6.526  49.678  1.00  0.00    -0.361 OA
HETATM   29  H9  UNL     1      37.315   7.388  49.926  1.00  0.00     0.217 HD
ENDBRANCH   5  28
BRANCH  23  30
HETATM   30  O3  UNL     1      29.371  11.369  46.181  1.00  0.00    -0.359 OA
HETATM   31  C26 UNL     1      29.475  11.781  44.873  1.00  0.00     0.204 C 
ENDBRANCH  23  30
BRANCH  15  32
HETATM   32  N1  UNL     1      26.507   8.213  50.820  1.00  0.00     0.083 N 
HETATM   33  H20 UNL     1      27.257   7.545  51.020  1.00  0.00     0.313 HD
HETATM   34  H21 UNL     1      25.914   8.531  51.590  1.00  0.00     0.313 HD
ENDBRANCH  15  32
TORSDOF 6
ENDMDL
MODEL 8
REMARK VINA RESULT:      -7.1      3.270      6.554
REMARK  6 active torsions:
REMARK  status: ('A' for Active; 'I' for Inactive)
REMARK    1  A    between atoms: C2_2  and  C3_3 
REMARK    2  A    between atoms: C3_3  and  C4_4 
REMARK    3  A    between atoms: C4_4  and  C5_5 
REMARK    4  A    between atoms: C9_9  and  O1_10 
REMARK    5  A    between atoms: C18_20  and  N1_21 
REMARK    6  A    between atoms: C25_29  and  O3_30 
ROOT
HETATM    1  C5  UNL     1      29.084   7.128  47.463  1.00  0.00    -0.071 C 
HETATM    2  C6  UNL     1      30.448   7.021  47.579  1.00  0.00    -0.064 C 
HETATM    3  C7  UNL     1      30.591   5.714  48.270  1.00  0.00     0.065 C 
HETATM    4  C8  UNL     1      31.930   5.417  48.820  1.00  0.00     0.014 C 
HETATM    5  C9  UNL     1      33.214   5.685  48.536  1.00  0.00     0.061 C 
HETATM    6  C10 UNL     1      33.563   6.497  47.377  1.00  0.00     0.033 C 
HETATM    7  C11 UNL     1      32.794   7.429  46.822  1.00  0.00    -0.013 C 
HETATM    8  C12 UNL     1      31.446   7.964  47.108  1.00  0.00     0.061 C 
HETATM    9  C13 UNL     1      31.559   9.220  47.956  1.00  0.00     0.180 C 
HETATM   10  O2  UNL     1      32.321  10.198  47.400  1.00  0.00    -0.386 OA
HETATM   11  C14 UNL     1      32.061  10.658  46.165  1.00  0.00     0.206 C 
HETATM   12  C15 UNL     1      30.745  11.198  45.831  1.00  0.00     0.006 C 
HETATM   13  C16 UNL     1      29.780  11.891  46.422  1.00  0.00    -0.036 C 
HETATM   14  C17 UNL     1      29.652  12.580  47.701  1.00  0.00     0.072 C 
HETATM   15  C18 UNL     1      28.678  13.713  47.702  1.00  0.00     0.222 C 
HETATM   16  C19 UNL     1      27.644  13.700  46.613  1.00  0.00     0.038 C 
HETATM   17  C20 UNL     1      27.409  12.228  46.153  1.00  0.00     0.043 C 
HETATM   18  C21 UNL     1      28.628  11.884  45.444  1.00  0.00     0.256 C 
HETATM   19  N2  UNL     1      28.824  10.771  44.634  1.00  0.00     0.130 N 
HETATM   20  C22 UNL     1      28.549   9.446  45.096  1.00  0.00     0.277 C 
HETATM   21  C23 UNL     1      28.044   9.252  46.450  1.00  0.00     0.034 C 
HETATM   22  C24 UNL     1      27.927   7.912  47.051  1.00  0.00     0.036 C 
HETATM   23  C25 UNL     1      30.282  10.924  44.405  1.00  0.00     0.392 C 
ENDROOT
BRANCH   1  24
HETATM   24  C4  UNL     1      28.629   5.857  48.097  1.00  0.00     0.058 C 
BRANCH  24  25
HETATM   25  C3  UNL     1      27.918   4.828  48.583  1.00  0.00     0.003 C 
BRANCH  25  26
HETATM   26  C2  UNL     1      26.690   4.382  49.270  1.00  0.00    -0.036 C 
HETATM   27  C1  UNL     1      26.417   3.238  49.745  1.00  0.00     0.007 C 
ENDBRANCH  25  26
ENDBRANCH  24  25
ENDBRANCH   1  24
BRANCH   5  28
HETATM   28  O1  UNL     1      34.239   5.200  49.333  1.00  0.00    -0.361 OA
HETATM   29  H9  UNL     1      34.243   5.438  50.320  1.00  0.00     0.217 HD
ENDBRANCH   5  28
BRANCH  23  30
HETATM   30  O3  UNL     1      30.628  11.895  43.538  1.00  0.00    -0.359 OA
HETATM   31  C26 UNL     1      31.576  11.574  42.594  1.00  0.00     0.204 C 
ENDBRANCH  23  30
BRANCH  15  32
HETATM   32  N1  UNL     1      27.918  13.614  48.957  1.00  0.00     0.083 N 
HETATM   33  H20 UNL     1      28.494  13.353  49.763  1.00  0.00     0.313 HD
HETATM   34  H21 UNL     1      27.259  14.391  49.055  1.00  0.00     0.313 HD
ENDBRANCH  15  32
TORSDOF 6
ENDMDL
MODEL 9
REMARK VINA RESULT:      -7.0      6.674     11.656
REMARK  6 active torsions:
REMARK  status: ('A' for Active; 'I' for Inactive)
REMARK    1  A    between atoms: C2_2  and  C3_3 
REMARK    2  A    between atoms: C3_3  and  C4_4 
REMARK    3  A    between atoms: C4_4  and  C5_5 
REMARK    4  A    between atoms: C9_9  and  O1_10 
REMARK    5  A    between atoms: C18_20  and  N1_21 
REMARK    6  A    between atoms: C25_29  and  O3_30 
ROOT
HETATM    1  C5  UNL     1      24.443   5.359  48.957  1.00  0.00    -0.071 C 
HETATM    2  C6  UNL     1      24.526   4.210  49.704  1.00  0.00    -0.064 C 
HETATM    3  C7  UNL     1      25.985   4.129  49.971  1.00  0.00     0.065 C 
HETATM    4  C8  UNL     1      26.472   2.842  50.512  1.00  0.00     0.014 C 
HETATM    5  C9  UNL     1      26.024   1.847  51.293  1.00  0.00     0.061 C 
HETATM    6  C10 UNL     1      24.681   1.895  51.857  1.00  0.00     0.033 C 
HETATM    7  C11 UNL     1      23.640   2.533  51.330  1.00  0.00    -0.013 C 
HETATM    8  C12 UNL     1      23.432   3.349  50.116  1.00  0.00     0.061 C 
HETATM    9  C13 UNL     1      22.876   2.480  49.000  1.00  0.00     0.180 C 
HETATM   10  O2  UNL     1      21.717   1.845  49.317  1.00  0.00    -0.386 OA
HETATM   11  C14 UNL     1      20.652   2.532  49.761  1.00  0.00     0.206 C 
HETATM   12  C15 UNL     1      20.086   3.624  48.971  1.00  0.00     0.006 C 
HETATM   13  C16 UNL     1      19.902   3.930  47.693  1.00  0.00    -0.036 C 
HETATM   14  C17 UNL     1      20.068   3.211  46.436  1.00  0.00     0.072 C 
HETATM   15  C18 UNL     1      19.188   3.687  45.327  1.00  0.00     0.222 C 
HETATM   16  C19 UNL     1      18.634   5.076  45.469  1.00  0.00     0.038 C 
HETATM   17  C20 UNL     1      19.595   5.916  46.365  1.00  0.00     0.043 C 
HETATM   18  C21 UNL     1      19.412   5.360  47.693  1.00  0.00     0.256 C 
HETATM   19  N2  UNL     1      19.857   5.914  48.887  1.00  0.00     0.130 N 
HETATM   20  C22 UNL     1      21.222   6.294  49.079  1.00  0.00     0.277 C 
HETATM   21  C23 UNL     1      22.176   6.103  47.993  1.00  0.00     0.034 C 
HETATM   22  C24 UNL     1      23.624   6.288  48.189  1.00  0.00     0.036 C 
HETATM   23  C25 UNL     1      19.526   4.782  49.788  1.00  0.00     0.392 C 
ENDROOT
BRANCH   1  24
HETATM   24  C4  UNL     1      25.870   5.787  48.906  1.00  0.00     0.058 C 
BRANCH  24  25
HETATM   25  C3  UNL     1      27.034   6.404  48.652  1.00  0.00     0.003 C 
BRANCH  25  26
HETATM   26  C2  UNL     1      28.373   6.323  48.035  1.00  0.00    -0.036 C 
HETATM   27  C1  UNL     1      29.256   5.422  48.169  1.00  0.00     0.007 C 
ENDBRANCH  25  26
ENDBRANCH  24  25
ENDBRANCH   1  24
BRANCH   5  28
HETATM   28  O1  UNL     1      26.822   0.752  51.585  1.00  0.00    -0.361 OA
HETATM   29  H9  UNL     1      27.814   0.901  51.749  1.00  0.00     0.217 HD
ENDBRANCH   5  28
BRANCH  23  30
HETATM   30  O3  UNL     1      18.218   4.644  50.080  1.00  0.00    -0.359 OA
HETATM   31  C26 UNL     1      17.911   4.068  51.290  1.00  0.00     0.204 C 
ENDBRANCH  23  30
BRANCH  15  32
HETATM   32  N1  UNL     1      20.022   3.726  44.114  1.00  0.00     0.083 N 
HETATM   33  H20 UNL     1      20.742   2.998  44.092  1.00  0.00     0.313 HD
HETATM   34  H21 UNL     1      19.453   3.882  43.278  1.00  0.00     0.313 HD
ENDBRANCH  15  32
TORSDOF 6
ENDMDL
