MODEL 1
REMARK VINA RESULT:      -8.1      0.000      0.000
REMARK  4 active torsions:
REMARK  status: ('A' for Active; 'I' for Inactive)
REMARK    1  A    between atoms: C6_6  and  C7_7 
REMARK    2  A    between atoms: C7_7  and  O1_8 
REMARK    3  A    between atoms: O1_8  and  C8_9 
REMARK    4  A    between atoms: C18_19  and  O2_20 
ROOT
HETATM    1  O1  UNL     1      24.112   0.359  53.604  1.00  0.00    -0.353 OA
ENDROOT
BRANCH   1   2
HETATM    2  C7  UNL     1      25.099  -0.640  53.749  1.00  0.00     0.186 C 
BRANCH   2   3
HETATM    3  C6  UNL     1      26.305  -0.417  52.898  1.00  0.00     0.065 A 
HETATM    4  C5  UNL     1      26.086   0.680  51.924  1.00  0.00    -0.017 A 
HETATM    5  C4  UNL     1      26.755   1.791  51.821  1.00  0.00    -0.003 A 
HETATM    6  C3  UNL     1      27.882   2.111  52.722  1.00  0.00     0.005 A 
HETATM    7  C2  UNL     1      28.117   1.159  53.610  1.00  0.00    -0.055 A 
HETATM    8  C1  UNL     1      29.237   1.428  54.544  1.00  0.00     0.046 C 
HETATM    9  C18 UNL     1      27.460  -0.130  53.836  1.00  0.00     0.156 A 
BRANCH   9  10
HETATM   10  O2  UNL     1      28.405  -1.184  53.782  1.00  0.00    -0.390 OA
HETATM   11  H20 UNL     1      28.660  -1.400  52.853  1.00  0.00     0.210 HD
ENDBRANCH   9  10
ENDBRANCH   2   3
ENDBRANCH   1   2
BRANCH   1  12
HETATM   12  C8  UNL     1      22.746  -0.003  53.478  1.00  0.00     0.060 C 
HETATM   13  C9  UNL     1      22.711  -0.957  54.440  1.00  0.00     0.034 C 
HETATM   14  C10 UNL     1      21.321  -1.475  54.561  1.00  0.00     0.006 C 
HETATM   15  C11 UNL     1      20.610  -0.738  53.675  1.00  0.00    -0.063 C 
HETATM   16  C12 UNL     1      19.554  -0.196  52.891  1.00  0.00     0.047 C 
HETATM   17  C17 UNL     1      21.387   0.094  52.852  1.00  0.00     0.041 C 
HETATM   18  C13 UNL     1      20.382   1.106  52.826  1.00  0.00    -0.005 C 
HETATM   19  C14 UNL     1      21.244   2.154  52.630  1.00  0.00     0.002 C 
HETATM   20  C15 UNL     1      22.291   1.655  51.607  1.00  0.00     0.007 C 
HETATM   21  C16 UNL     1      21.650   0.209  51.359  1.00  0.00     0.022 C 
ENDBRANCH   1  12
TORSDOF 4
ENDMDL
MODEL 2
REMARK VINA RESULT:      -7.9      3.090      5.044
REMARK  4 active torsions:
REMARK  status: ('A' for Active; 'I' for Inactive)
REMARK    1  A    between atoms: C6_6  and  C7_7 
REMARK    2  A    between atoms: C7_7  and  O1_8 
REMARK    3  A    between atoms: O1_8  and  C8_9 
REMARK    4  A    between atoms: C18_19  and  O2_20 
ROOT
HETATM    1  O1  UNL     1      26.426   2.147  50.844  1.00  0.00    -0.353 OA
ENDROOT
BRANCH   1   2
HETATM    2  C7  UNL     1      27.199   2.336  52.010  1.00  0.00     0.186 C 
BRANCH   2   3
HETATM    3  C6  UNL     1      26.975   1.291  53.051  1.00  0.00     0.065 A 
HETATM    4  C5  UNL     1      26.144   0.176  52.532  1.00  0.00    -0.017 A 
HETATM    5  C4  UNL     1      26.475  -1.079  52.440  1.00  0.00    -0.003 A 
HETATM    6  C3  UNL     1      27.800  -1.572  52.867  1.00  0.00     0.005 A 
HETATM    7  C2  UNL     1      28.578  -0.613  53.340  1.00  0.00    -0.055 A 
HETATM    8  C1  UNL     1      29.924  -1.050  53.783  1.00  0.00     0.046 C 
HETATM    9  C18 UNL     1      28.342   0.823  53.510  1.00  0.00     0.156 A 
BRANCH   9  10
HETATM   10  O2  UNL     1      28.563   1.208  54.855  1.00  0.00    -0.390 OA
HETATM   11  H20 UNL     1      28.420   2.175  54.987  1.00  0.00     0.210 HD
ENDBRANCH   9  10
ENDBRANCH   2   3
ENDBRANCH   1   2
BRANCH   1  12
HETATM   12  C8  UNL     1      25.759   3.246  50.245  1.00  0.00     0.060 C 
HETATM   13  C9  UNL     1      26.846   3.872  49.731  1.00  0.00     0.034 C 
HETATM   14  C10 UNL     1      26.400   5.070  48.968  1.00  0.00     0.006 C 
HETATM   15  C11 UNL     1      25.050   5.037  49.049  1.00  0.00    -0.063 C 
HETATM   16  C12 UNL     1      23.667   5.342  48.903  1.00  0.00     0.047 C 
HETATM   17  C17 UNL     1      24.541   4.057  49.918  1.00  0.00     0.041 C 
HETATM   18  C13 UNL     1      23.398   3.834  49.093  1.00  0.00    -0.005 C 
HETATM   19  C14 UNL     1      23.207   2.530  49.469  1.00  0.00     0.002 C 
HETATM   20  C15 UNL     1      23.452   2.490  50.996  1.00  0.00     0.007 C 
HETATM   21  C16 UNL     1      23.715   4.057  51.194  1.00  0.00     0.022 C 
ENDBRANCH   1  12
TORSDOF 4
ENDMDL
MODEL 3
REMARK VINA RESULT:      -7.9      1.842      6.351
REMARK  4 active torsions:
REMARK  status: ('A' for Active; 'I' for Inactive)
REMARK    1  A    between atoms: C6_6  and  C7_7 
REMARK    2  A    between atoms: C7_7  and  O1_8 
REMARK    3  A    between atoms: O1_8  and  C8_9 
REMARK    4  A    between atoms: C18_19  and  O2_20 
ROOT
HETATM    1  O1  UNL     1      25.594  -0.245  52.596  1.00  0.00    -0.353 OA
ENDROOT
BRANCH   1   2
HETATM    2  C7  UNL     1      24.479  -0.518  53.418  1.00  0.00     0.186 C 
BRANCH   2   3
HETATM    3  C6  UNL     1      23.431   0.544  53.375  1.00  0.00     0.065 A 
HETATM    4  C5  UNL     1      24.013   1.869  53.048  1.00  0.00    -0.017 A 
HETATM    5  C4  UNL     1      23.732   2.625  52.028  1.00  0.00    -0.003 A 
HETATM    6  C3  UNL     1      22.739   2.228  51.009  1.00  0.00     0.005 A 
HETATM    7  C2  UNL     1      22.190   1.051  51.258  1.00  0.00    -0.055 A 
HETATM    8  C1  UNL     1      21.186   0.598  50.265  1.00  0.00     0.046 C 
HETATM    9  C18 UNL     1      22.398   0.104  52.356  1.00  0.00     0.156 A 
BRANCH   9  10
HETATM   10  O2  UNL     1      21.171  -0.188  53.000  1.00  0.00    -0.390 OA
HETATM   11  H20 UNL     1      21.078   0.306  53.849  1.00  0.00     0.210 HD
ENDBRANCH   9  10
ENDBRANCH   2   3
ENDBRANCH   1   2
BRANCH   1  12
HETATM   12  C8  UNL     1      26.889  -0.672  52.987  1.00  0.00     0.060 C 
HETATM   13  C9  UNL     1      26.841  -1.925  52.474  1.00  0.00     0.034 C 
HETATM   14  C10 UNL     1      28.151  -2.594  52.701  1.00  0.00     0.006 C 
HETATM   15  C11 UNL     1      28.910  -1.649  53.303  1.00  0.00    -0.063 C 
HETATM   16  C12 UNL     1      29.990  -0.958  53.922  1.00  0.00     0.047 C 
HETATM   17  C17 UNL     1      28.215  -0.482  53.662  1.00  0.00     0.041 C 
HETATM   18  C13 UNL     1      29.347   0.345  53.399  1.00  0.00    -0.005 C 
HETATM   19  C14 UNL     1      28.629   1.471  53.090  1.00  0.00     0.002 C 
HETATM   20  C15 UNL     1      27.472   1.529  54.115  1.00  0.00     0.007 C 
HETATM   21  C16 UNL     1      27.894   0.238  54.962  1.00  0.00     0.022 C 
ENDBRANCH   1  12
TORSDOF 4
ENDMDL
MODEL 4
REMARK VINA RESULT:      -7.9      1.482      2.959
REMARK  4 active torsions:
REMARK  status: ('A' for Active; 'I' for Inactive)
REMARK    1  A    between atoms: C6_6  and  C7_7 
REMARK    2  A    between atoms: C7_7  and  O1_8 
REMARK    3  A    between atoms: O1_8  and  C8_9 
REMARK    4  A    between atoms: C18_19  and  O2_20 
ROOT
HETATM    1  O1  UNL     1      24.413   2.026  53.392  1.00  0.00    -0.353 OA
ENDROOT
BRANCH   1   2
HETATM    2  C7  UNL     1      25.769   1.705  53.162  1.00  0.00     0.186 C 
BRANCH   2   3
HETATM    3  C6  UNL     1      26.221   0.475  53.877  1.00  0.00     0.065 A 
HETATM    4  C5  UNL     1      25.785  -0.754  53.170  1.00  0.00    -0.017 A 
HETATM    5  C4  UNL     1      26.540  -1.692  52.677  1.00  0.00    -0.003 A 
HETATM    6  C3  UNL     1      28.014  -1.638  52.766  1.00  0.00     0.005 A 
HETATM    7  C2  UNL     1      28.451  -0.557  53.391  1.00  0.00    -0.055 A 
HETATM    8  C1  UNL     1      29.926  -0.447  53.509  1.00  0.00     0.046 C 
HETATM    9  C18 UNL     1      27.729   0.563  53.998  1.00  0.00     0.156 A 
BRANCH   9  10
HETATM   10  O2  UNL     1      28.101   0.717  55.356  1.00  0.00    -0.390 OA
HETATM   11  H20 UNL     1      29.019   1.067  55.447  1.00  0.00     0.210 HD
ENDBRANCH   9  10
ENDBRANCH   2   3
ENDBRANCH   1   2
BRANCH   1  12
HETATM   12  C8  UNL     1      23.441   1.770  52.392  1.00  0.00     0.060 C 
HETATM   13  C9  UNL     1      24.025   2.456  51.378  1.00  0.00     0.034 C 
HETATM   14  C10 UNL     1      23.207   2.290  50.145  1.00  0.00     0.006 C 
HETATM   15  C11 UNL     1      22.203   1.461  50.517  1.00  0.00    -0.063 C 
HETATM   16  C12 UNL     1      21.042   0.639  50.512  1.00  0.00     0.047 C 
HETATM   17  C17 UNL     1      22.152   1.187  51.894  1.00  0.00     0.041 C 
HETATM   18  C13 UNL     1      21.692  -0.145  51.672  1.00  0.00    -0.005 C 
HETATM   19  C14 UNL     1      22.220  -0.669  52.824  1.00  0.00     0.002 C 
HETATM   20  C15 UNL     1      21.962   0.386  53.926  1.00  0.00     0.007 C 
HETATM   21  C16 UNL     1      21.155   1.427  53.016  1.00  0.00     0.022 C 
ENDBRANCH   1  12
TORSDOF 4
ENDMDL
MODEL 5
REMARK VINA RESULT:      -7.7      3.203      6.171
REMARK  4 active torsions:
REMARK  status: ('A' for Active; 'I' for Inactive)
REMARK    1  A    between atoms: C6_6  and  C7_7 
REMARK    2  A    between atoms: C7_7  and  O1_8 
REMARK    3  A    between atoms: O1_8  and  C8_9 
REMARK    4  A    between atoms: C18_19  and  O2_20 
ROOT
HETATM    1  O1  UNL     1      25.518   0.560  53.304  1.00  0.00    -0.353 OA
ENDROOT
BRANCH   1   2
HETATM    2  C7  UNL     1      25.075   1.126  52.089  1.00  0.00     0.186 C 
BRANCH   2   3
HETATM    3  C6  UNL     1      25.575   2.513  51.859  1.00  0.00     0.065 A 
HETATM    4  C5  UNL     1      26.560   2.557  50.750  1.00  0.00    -0.017 A 
HETATM    5  C4  UNL     1      26.469   3.229  49.640  1.00  0.00    -0.003 A 
HETATM    6  C3  UNL     1      25.300   4.078  49.332  1.00  0.00     0.005 A 
HETATM    7  C2  UNL     1      24.393   4.072  50.295  1.00  0.00    -0.055 A 
HETATM    8  C1  UNL     1      23.194   4.906  50.040  1.00  0.00     0.046 C 
HETATM    9  C18 UNL     1      24.363   3.381  51.586  1.00  0.00     0.156 A 
BRANCH   9  10
HETATM   10  O2  UNL     1      24.179   4.307  52.641  1.00  0.00    -0.390 OA
HETATM   11  H20 UNL     1      24.676   4.042  53.451  1.00  0.00     0.210 HD
ENDBRANCH   9  10
ENDBRANCH   2   3
ENDBRANCH   1   2
BRANCH   1  12
HETATM   12  C8  UNL     1      26.722  -0.189  53.343  1.00  0.00     0.060 C 
HETATM   13  C9  UNL     1      26.278  -1.300  52.707  1.00  0.00     0.034 C 
HETATM   14  C10 UNL     1      27.407  -2.258  52.554  1.00  0.00     0.006 C 
HETATM   15  C11 UNL     1      28.471  -1.609  53.082  1.00  0.00    -0.063 C 
HETATM   16  C12 UNL     1      29.782  -1.274  53.524  1.00  0.00     0.047 C 
HETATM   17  C17 UNL     1      28.157  -0.399  53.724  1.00  0.00     0.041 C 
HETATM   18  C13 UNL     1      29.385   0.204  53.318  1.00  0.00    -0.005 C 
HETATM   19  C14 UNL     1      28.914   1.491  53.314  1.00  0.00     0.002 C 
HETATM   20  C15 UNL     1      28.020   1.618  54.570  1.00  0.00     0.007 C 
HETATM   21  C16 UNL     1      28.271   0.143  55.139  1.00  0.00     0.022 C 
ENDBRANCH   1  12
TORSDOF 4
ENDMDL
MODEL 6
REMARK VINA RESULT:      -7.7      3.594      5.605
REMARK  4 active torsions:
REMARK  status: ('A' for Active; 'I' for Inactive)
REMARK    1  A    between atoms: C6_6  and  C7_7 
REMARK    2  A    between atoms: C7_7  and  O1_8 
REMARK    3  A    between atoms: O1_8  and  C8_9 
REMARK    4  A    between atoms: C18_19  and  O2_20 
ROOT
HETATM    1  O1  UNL     1      24.177   2.293  50.586  1.00  0.00    -0.353 OA
ENDROOT
BRANCH   1   2
HETATM    2  C7  UNL     1      23.763   3.639  50.695  1.00  0.00     0.186 C 
BRANCH   2   3
HETATM    3  C6  UNL     1      24.892   4.599  50.869  1.00  0.00     0.065 A 
HETATM    4  C5  UNL     1      25.936   4.402  49.833  1.00  0.00    -0.017 A 
HETATM    5  C4  UNL     1      26.348   5.267  48.952  1.00  0.00    -0.003 A 
HETATM    6  C3  UNL     1      25.787   6.631  48.873  1.00  0.00     0.005 A 
HETATM    7  C2  UNL     1      24.851   6.855  49.780  1.00  0.00    -0.055 A 
HETATM    8  C1  UNL     1      24.249   8.210  49.746  1.00  0.00     0.046 C 
HETATM    9  C18 UNL     1      24.298   5.993  50.826  1.00  0.00     0.156 A 
BRANCH   9  10
HETATM   10  O2  UNL     1      24.417   6.612  52.095  1.00  0.00    -0.390 OA
HETATM   11  H20 UNL     1      23.536   6.756  52.516  1.00  0.00     0.210 HD
ENDBRANCH   9  10
ENDBRANCH   2   3
ENDBRANCH   1   2
BRANCH   1  12
HETATM   12  C8  UNL     1      24.188   1.456  51.731  1.00  0.00     0.060 C 
HETATM   13  C9  UNL     1      22.857   1.205  51.797  1.00  0.00     0.034 C 
HETATM   14  C10 UNL     1      22.595   0.262  52.918  1.00  0.00     0.006 C 
HETATM   15  C11 UNL     1      23.822  -0.018  53.415  1.00  0.00    -0.063 C 
HETATM   16  C12 UNL     1      24.890  -0.551  54.190  1.00  0.00     0.047 C 
HETATM   17  C17 UNL     1      24.862   0.755  52.872  1.00  0.00     0.041 C 
HETATM   18  C13 UNL     1      25.790  -0.326  52.956  1.00  0.00    -0.005 C 
HETATM   19  C14 UNL     1      26.577   0.083  51.911  1.00  0.00     0.002 C 
HETATM   20  C15 UNL     1      26.703   1.619  52.053  1.00  0.00     0.007 C 
HETATM   21  C16 UNL     1      25.868   1.759  53.411  1.00  0.00     0.022 C 
ENDBRANCH   1  12
TORSDOF 4
ENDMDL
MODEL 7
REMARK VINA RESULT:      -7.7      1.423      2.046
REMARK  4 active torsions:
REMARK  status: ('A' for Active; 'I' for Inactive)
REMARK    1  A    between atoms: C6_6  and  C7_7 
REMARK    2  A    between atoms: C7_7  and  O1_8 
REMARK    3  A    between atoms: O1_8  and  C8_9 
REMARK    4  A    between atoms: C18_19  and  O2_20 
ROOT
HETATM    1  O1  UNL     1      25.254   0.723  52.607  1.00  0.00    -0.353 OA
ENDROOT
BRANCH   1   2
HETATM    2  C7  UNL     1      26.010  -0.458  52.446  1.00  0.00     0.186 C 
BRANCH   2   3
HETATM    3  C6  UNL     1      26.950  -0.724  53.574  1.00  0.00     0.065 A 
HETATM    4  C5  UNL     1      28.036  -1.649  53.169  1.00  0.00    -0.017 A 
HETATM    5  C4  UNL     1      29.316  -1.414  53.170  1.00  0.00    -0.003 A 
HETATM    6  C3  UNL     1      29.872  -0.115  53.601  1.00  0.00     0.005 A 
HETATM    7  C2  UNL     1      28.939   0.745  53.974  1.00  0.00    -0.055 A 
HETATM    8  C1  UNL     1      29.440   2.070  54.415  1.00  0.00     0.046 C 
HETATM    9  C18 UNL     1      27.481   0.620  54.033  1.00  0.00     0.156 A 
BRANCH   9  10
HETATM   10  O2  UNL     1      27.010   0.911  55.336  1.00  0.00    -0.390 OA
HETATM   11  H20 UNL     1      26.226   0.361  55.573  1.00  0.00     0.210 HD
ENDBRANCH   9  10
ENDBRANCH   2   3
ENDBRANCH   1   2
BRANCH   1  12
HETATM   12  C8  UNL     1      23.836   0.665  52.627  1.00  0.00     0.060 C 
HETATM   13  C9  UNL     1      23.700  -0.376  53.484  1.00  0.00     0.034 C 
HETATM   14  C10 UNL     1      22.252  -0.613  53.736  1.00  0.00     0.006 C 
HETATM   15  C11 UNL     1      21.626   0.358  53.030  1.00  0.00    -0.063 C 
HETATM   16  C12 UNL     1      20.634   1.198  52.450  1.00  0.00     0.047 C 
HETATM   17  C17 UNL     1      22.471   1.113  52.199  1.00  0.00     0.041 C 
HETATM   18  C13 UNL     1      21.711   2.303  52.407  1.00  0.00    -0.005 C 
HETATM   19  C14 UNL     1      22.753   3.170  52.205  1.00  0.00     0.002 C 
HETATM   20  C15 UNL     1      23.551   2.602  51.007  1.00  0.00     0.007 C 
HETATM   21  C16 UNL     1      22.590   1.359  50.703  1.00  0.00     0.022 C 
ENDBRANCH   1  12
TORSDOF 4
ENDMDL
MODEL 8
REMARK VINA RESULT:      -7.5      2.898      5.496
REMARK  4 active torsions:
REMARK  status: ('A' for Active; 'I' for Inactive)
REMARK    1  A    between atoms: C6_6  and  C7_7 
REMARK    2  A    between atoms: C7_7  and  O1_8 
REMARK    3  A    between atoms: O1_8  and  C8_9 
REMARK    4  A    between atoms: C18_19  and  O2_20 
ROOT
HETATM    1  O1  UNL     1      24.367   2.914  53.331  1.00  0.00    -0.353 OA
ENDROOT
BRANCH   1   2
HETATM    2  C7  UNL     1      23.633   3.471  52.262  1.00  0.00     0.186 C 
BRANCH   2   3
HETATM    3  C6  UNL     1      24.260   3.249  50.926  1.00  0.00     0.065 A 
HETATM    4  C5  UNL     1      23.316   2.598  49.985  1.00  0.00    -0.017 A 
HETATM    5  C4  UNL     1      22.885   3.065  48.850  1.00  0.00    -0.003 A 
HETATM    6  C3  UNL     1      23.310   4.382  48.333  1.00  0.00     0.005 A 
HETATM    7  C2  UNL     1      24.156   5.002  49.140  1.00  0.00    -0.055 A 
HETATM    8  C1  UNL     1      24.616   6.332  48.674  1.00  0.00     0.046 C 
HETATM    9  C18 UNL     1      24.728   4.601  50.427  1.00  0.00     0.156 A 
BRANCH   9  10
HETATM   10  O2  UNL     1      26.143   4.638  50.375  1.00  0.00    -0.390 OA
HETATM   11  H20 UNL     1      26.469   4.905  49.483  1.00  0.00     0.210 HD
ENDBRANCH   9  10
ENDBRANCH   2   3
ENDBRANCH   1   2
BRANCH   1  12
HETATM   12  C8  UNL     1      24.790   1.561  53.277  1.00  0.00     0.060 C 
HETATM   13  C9  UNL     1      23.580   0.976  53.448  1.00  0.00     0.034 C 
HETATM   14  C10 UNL     1      23.738  -0.502  53.366  1.00  0.00     0.006 C 
HETATM   15  C11 UNL     1      25.053  -0.684  53.098  1.00  0.00    -0.063 C 
HETATM   16  C12 UNL     1      26.319  -1.271  52.820  1.00  0.00     0.047 C 
HETATM   17  C17 UNL     1      25.829   0.486  53.161  1.00  0.00     0.041 C 
HETATM   18  C13 UNL     1      26.682   0.048  52.105  1.00  0.00    -0.005 C 
HETATM   19  C14 UNL     1      27.020   1.303  51.668  1.00  0.00     0.002 C 
HETATM   20  C15 UNL     1      27.240   2.149  52.944  1.00  0.00     0.007 C 
HETATM   21  C16 UNL     1      26.995   0.974  54.004  1.00  0.00     0.022 C 
ENDBRANCH   1  12
TORSDOF 4
ENDMDL
MODEL 9
REMARK VINA RESULT:      -7.4      8.225     11.932
REMARK  4 active torsions:
REMARK  status: ('A' for Active; 'I' for Inactive)
REMARK    1  A    between atoms: C6_6  and  C7_7 
REMARK    2  A    between atoms: C7_7  and  O1_8 
REMARK    3  A    between atoms: O1_8  and  C8_9 
REMARK    4  A    between atoms: C18_19  and  O2_20 
ROOT
HETATM    1  O1  UNL     1      31.579   5.049  48.861  1.00  0.00    -0.353 OA
ENDROOT
BRANCH   1   2
HETATM    2  C7  UNL     1      30.818   6.221  48.661  1.00  0.00     0.186 C 
BRANCH   2   3
HETATM    3  C6  UNL     1      29.635   6.021  47.773  1.00  0.00     0.065 A 
HETATM    4  C5  UNL     1      28.722   4.983  48.311  1.00  0.00    -0.017 A 
HETATM    5  C4  UNL     1      27.475   5.128  48.653  1.00  0.00    -0.003 A 
HETATM    6  C3  UNL     1      26.778   6.426  48.540  1.00  0.00     0.005 A 
HETATM    7  C2  UNL     1      27.554   7.385  48.063  1.00  0.00    -0.055 A 
HETATM    8  C1  UNL     1      26.908   8.713  47.930  1.00  0.00     0.046 C 
HETATM    9  C18 UNL     1      28.954   7.368  47.633  1.00  0.00     0.156 A 
BRANCH   9  10
HETATM   10  O2  UNL     1      29.072   7.837  46.302  1.00  0.00    -0.390 OA
HETATM   11  H20 UNL     1      30.013   7.984  46.048  1.00  0.00     0.210 HD
ENDBRANCH   9  10
ENDBRANCH   2   3
ENDBRANCH   1   2
BRANCH   1  12
HETATM   12  C8  UNL     1      32.735   4.808  48.076  1.00  0.00     0.060 C 
HETATM   13  C9  UNL     1      33.559   5.706  48.668  1.00  0.00     0.034 C 
HETATM   14  C10 UNL     1      34.910   5.609  48.048  1.00  0.00     0.006 C 
HETATM   15  C11 UNL     1      34.794   4.604  47.149  1.00  0.00    -0.063 C 
HETATM   16  C12 UNL     1      35.071   3.638  46.141  1.00  0.00     0.047 C 
HETATM   17  C17 UNL     1      33.484   4.129  46.968  1.00  0.00     0.041 C 
HETATM   18  C13 UNL     1      33.934   2.792  46.754  1.00  0.00    -0.005 C 
HETATM   19  C14 UNL     1      32.792   2.186  47.208  1.00  0.00     0.002 C 
HETATM   20  C15 UNL     1      31.618   3.025  46.650  1.00  0.00     0.007 C 
HETATM   21  C16 UNL     1      32.500   4.064  45.811  1.00  0.00     0.022 C 
ENDBRANCH   1  12
TORSDOF 4
ENDMDL
