MODEL 1
REMARK VINA RESULT:      -5.7      0.000      0.000
REMARK  13 active torsions:
REMARK  status: ('A' for Active; 'I' for Inactive)
REMARK    1  A    between atoms: C2_2  and  C3_3 
REMARK    2  A    between atoms: C4_7  and  C5_8 
REMARK    3  A    between atoms: C5_8  and  C6_9 
REMARK    4  A    between atoms: C6_9  and  C7_10 
REMARK    5  A    between atoms: C9_12  and  S1_13 
REMARK    6  A    between atoms: S1_13  and  C10_14 
REMARK    7  A    between atoms: C10_14  and  C11_15 
REMARK    8  A    between atoms: C11_15  and  O2_16 
REMARK    9  A    between atoms: O2_16  and  C12_17 
REMARK   10  A    between atoms: C12_17  and  C13_18 
REMARK   11  A    between atoms: C13_18  and  N2_19 
REMARK   12  A    between atoms: C13_18  and  C14_20 
REMARK   13  A    between atoms: C14_20  and  C15_21 
ROOT
HETATM    1  S1  UNL     1      22.817   2.926  49.355  1.00  0.00    -0.139 SA
ENDROOT
BRANCH   1   2
HETATM    2  C9  UNL     1      23.660   2.185  50.762  1.00  0.00     0.047 C 
HETATM    3  C7  UNL     1      23.839   2.743  51.975  1.00  0.00    -0.074 C 
HETATM    4  C8  UNL     1      23.350   4.102  52.345  1.00  0.00     0.044 C 
BRANCH   3   5
HETATM    5  C6  UNL     1      24.544   2.133  53.162  1.00  0.00     0.064 C 
BRANCH   5   6
HETATM    6  C5  UNL     1      25.736   1.471  52.630  1.00  0.00     0.017 C 
BRANCH   6   7
HETATM    7  C4  UNL     1      26.774   1.052  53.293  1.00  0.00     0.101 A 
HETATM    8  C3  UNL     1      27.044  -0.245  53.540  1.00  0.00     0.088 A 
HETATM    9  N1  UNL     1      28.236  -0.453  54.285  1.00  0.00    -0.223 NA
HETATM   10  P1  UNL     1      28.879   1.047  54.585  1.00  0.00     0.238 P 
HETATM   11  O1  UNL     1      27.633   2.081  53.756  1.00  0.00    -0.292 OA
BRANCH   8  12
HETATM   12  C2  UNL     1      26.305  -1.249  53.148  1.00  0.00     0.003 C 
HETATM   13  C1  UNL     1      26.895  -2.258  52.245  1.00  0.00     0.038 C 
ENDBRANCH   8  12
ENDBRANCH   6   7
ENDBRANCH   5   6
ENDBRANCH   3   5
ENDBRANCH   1   2
BRANCH   1  14
HETATM   14  C10 UNL     1      21.530   1.744  48.845  1.00  0.00     0.104 C 
BRANCH  14  15
HETATM   15  C11 UNL     1      21.420   0.719  49.997  1.00  0.00     0.178 C 
BRANCH  15  16
HETATM   16  O2  UNL     1      20.082   0.676  50.318  1.00  0.00    -0.388 OA
BRANCH  16  17
HETATM   17  C12 UNL     1      19.792   0.352  51.610  1.00  0.00     0.203 C 
BRANCH  17  18
HETATM   18  C13 UNL     1      20.585   1.180  52.571  1.00  0.00     0.242 C 
BRANCH  18  19
HETATM   19  N2  UNL     1      20.069   2.544  52.652  1.00  0.00     0.085 N 
HETATM   20  H19 UNL     1      19.073   2.608  52.378  1.00  0.00     0.313 HD
HETATM   21  H20 UNL     1      20.681   3.250  52.232  1.00  0.00     0.313 HD
ENDBRANCH  18  19
BRANCH  18  22
HETATM   22  C14 UNL     1      20.639   0.614  53.949  1.00  0.00     0.049 C 
BRANCH  22  23
HETATM   23  C15 UNL     1      21.874  -0.162  54.288  1.00  0.00     0.032 A 
HETATM   24  C16 UNL     1      22.545  -1.073  53.420  1.00  0.00    -0.022 A 
HETATM   25  C17 UNL     1      21.863  -1.607  54.511  1.00  0.00    -0.022 A 
ENDBRANCH  22  23
ENDBRANCH  18  22
ENDBRANCH  17  18
ENDBRANCH  16  17
ENDBRANCH  15  16
ENDBRANCH  14  15
ENDBRANCH   1  14
TORSDOF 13
ENDMDL
MODEL 2
REMARK VINA RESULT:      -5.6      3.738      6.363
REMARK  13 active torsions:
REMARK  status: ('A' for Active; 'I' for Inactive)
REMARK    1  A    between atoms: C2_2  and  C3_3 
REMARK    2  A    between atoms: C4_7  and  C5_8 
REMARK    3  A    between atoms: C5_8  and  C6_9 
REMARK    4  A    between atoms: C6_9  and  C7_10 
REMARK    5  A    between atoms: C9_12  and  S1_13 
REMARK    6  A    between atoms: S1_13  and  C10_14 
REMARK    7  A    between atoms: C10_14  and  C11_15 
REMARK    8  A    between atoms: C11_15  and  O2_16 
REMARK    9  A    between atoms: O2_16  and  C12_17 
REMARK   10  A    between atoms: C12_17  and  C13_18 
REMARK   11  A    between atoms: C13_18  and  N2_19 
REMARK   12  A    between atoms: C13_18  and  C14_20 
REMARK   13  A    between atoms: C14_20  and  C15_21 
ROOT
HETATM    1  S1  UNL     1      22.089   1.023  51.971  1.00  0.00    -0.139 SA
ENDROOT
BRANCH   1   2
HETATM    2  C9  UNL     1      23.629   1.598  51.235  1.00  0.00     0.047 C 
HETATM    3  C7  UNL     1      24.296   2.725  51.550  1.00  0.00    -0.074 C 
HETATM    4  C8  UNL     1      23.846   3.696  52.588  1.00  0.00     0.044 C 
BRANCH   3   5
HETATM    5  C6  UNL     1      25.587   3.217  50.940  1.00  0.00     0.064 C 
BRANCH   5   6
HETATM    6  C5  UNL     1      25.206   4.195  49.921  1.00  0.00     0.017 C 
BRANCH   6   7
HETATM    7  C4  UNL     1      25.865   5.256  49.554  1.00  0.00     0.101 A 
HETATM    8  C3  UNL     1      25.604   6.502  49.998  1.00  0.00     0.088 A 
HETATM    9  N1  UNL     1      26.460   7.498  49.453  1.00  0.00    -0.223 NA
HETATM   10  P1  UNL     1      27.508   6.718  48.429  1.00  0.00     0.238 P 
HETATM   11  O1  UNL     1      26.910   5.011  48.628  1.00  0.00    -0.292 OA
BRANCH   8  12
HETATM   12  C2  UNL     1      24.662   6.809  50.849  1.00  0.00     0.003 C 
HETATM   13  C1  UNL     1      23.785   7.961  50.556  1.00  0.00     0.038 C 
ENDBRANCH   8  12
ENDBRANCH   6   7
ENDBRANCH   5   6
ENDBRANCH   3   5
ENDBRANCH   1   2
BRANCH   1  14
HETATM   14  C10 UNL     1      22.549   0.111  53.478  1.00  0.00     0.104 C 
BRANCH  14  15
HETATM   15  C11 UNL     1      23.997  -0.376  53.250  1.00  0.00     0.178 C 
BRANCH  15  16
HETATM   16  O2  UNL     1      24.476  -0.688  54.503  1.00  0.00    -0.388 OA
BRANCH  16  17
HETATM   17  C12 UNL     1      25.772  -0.341  54.745  1.00  0.00     0.203 C 
BRANCH  17  18
HETATM   18  C13 UNL     1      26.288   0.602  53.703  1.00  0.00     0.242 C 
BRANCH  18  19
HETATM   19  N2  UNL     1      26.637   1.897  54.281  1.00  0.00     0.085 N 
HETATM   20  H19 UNL     1      26.021   2.658  53.948  1.00  0.00     0.313 HD
HETATM   21  H20 UNL     1      27.640   2.109  54.260  1.00  0.00     0.313 HD
ENDBRANCH  18  19
BRANCH  18  22
HETATM   22  C14 UNL     1      27.470   0.083  52.958  1.00  0.00     0.049 C 
BRANCH  22  23
HETATM   23  C15 UNL     1      28.583  -0.462  53.797  1.00  0.00     0.032 A 
HETATM   24  C16 UNL     1      29.976  -0.265  53.560  1.00  0.00    -0.022 A 
HETATM   25  C17 UNL     1      29.460  -1.541  53.343  1.00  0.00    -0.022 A 
ENDBRANCH  22  23
ENDBRANCH  18  22
ENDBRANCH  17  18
ENDBRANCH  16  17
ENDBRANCH  15  16
ENDBRANCH  14  15
ENDBRANCH   1  14
TORSDOF 13
ENDMDL
MODEL 3
REMARK VINA RESULT:      -5.5      7.085      9.890
REMARK  13 active torsions:
REMARK  status: ('A' for Active; 'I' for Inactive)
REMARK    1  A    between atoms: C2_2  and  C3_3 
REMARK    2  A    between atoms: C4_7  and  C5_8 
REMARK    3  A    between atoms: C5_8  and  C6_9 
REMARK    4  A    between atoms: C6_9  and  C7_10 
REMARK    5  A    between atoms: C9_12  and  S1_13 
REMARK    6  A    between atoms: S1_13  and  C10_14 
REMARK    7  A    between atoms: C10_14  and  C11_15 
REMARK    8  A    between atoms: C11_15  and  O2_16 
REMARK    9  A    between atoms: O2_16  and  C12_17 
REMARK   10  A    between atoms: C12_17  and  C13_18 
REMARK   11  A    between atoms: C13_18  and  N2_19 
REMARK   12  A    between atoms: C13_18  and  C14_20 
REMARK   13  A    between atoms: C14_20  and  C15_21 
ROOT
HETATM    1  S1  UNL     1      28.377   6.613  48.135  1.00  0.00    -0.139 SA
ENDROOT
BRANCH   1   2
HETATM    2  C9  UNL     1      27.987   4.911  48.574  1.00  0.00     0.047 C 
HETATM    3  C7  UNL     1      26.825   4.461  49.087  1.00  0.00    -0.074 C 
HETATM    4  C8  UNL     1      25.651   5.332  49.377  1.00  0.00     0.044 C 
BRANCH   3   5
HETATM    5  C6  UNL     1      26.487   3.037  49.459  1.00  0.00     0.064 C 
BRANCH   5   6
HETATM    6  C5  UNL     1      26.195   3.052  50.893  1.00  0.00     0.017 C 
BRANCH   6   7
HETATM    7  C4  UNL     1      25.292   2.361  51.525  1.00  0.00     0.101 A 
HETATM    8  C3  UNL     1      25.511   1.153  52.081  1.00  0.00     0.088 A 
HETATM    9  N1  UNL     1      24.369   0.596  52.717  1.00  0.00    -0.223 NA
HETATM   10  P1  UNL     1      23.136   1.691  52.530  1.00  0.00     0.238 P 
HETATM   11  O1  UNL     1      24.017   2.980  51.596  1.00  0.00    -0.292 OA
BRANCH   8  12
HETATM   12  C2  UNL     1      26.653   0.519  52.060  1.00  0.00     0.003 C 
HETATM   13  C1  UNL     1      26.670  -0.928  52.356  1.00  0.00     0.038 C 
ENDBRANCH   8  12
ENDBRANCH   6   7
ENDBRANCH   5   6
ENDBRANCH   3   5
ENDBRANCH   1   2
BRANCH   1  14
HETATM   14  C10 UNL     1      30.123   6.625  47.621  1.00  0.00     0.104 C 
BRANCH  14  15
HETATM   15  C11 UNL     1      30.946   6.688  48.928  1.00  0.00     0.178 C 
BRANCH  15  16
HETATM   16  O2  UNL     1      31.387   5.401  49.141  1.00  0.00    -0.388 OA
BRANCH  16  17
HETATM   17  C12 UNL     1      32.246   4.906  48.205  1.00  0.00     0.203 C 
BRANCH  17  18
HETATM   18  C13 UNL     1      33.554   5.633  48.228  1.00  0.00     0.242 C 
BRANCH  18  19
HETATM   19  N2  UNL     1      34.449   5.089  49.246  1.00  0.00     0.085 N 
HETATM   20  H19 UNL     1      33.998   4.355  49.819  1.00  0.00     0.313 HD
HETATM   21  H20 UNL     1      34.964   5.800  49.775  1.00  0.00     0.313 HD
ENDBRANCH  18  19
BRANCH  18  22
HETATM   22  C14 UNL     1      34.268   5.625  46.919  1.00  0.00     0.049 C 
BRANCH  22  23
HETATM   23  C15 UNL     1      34.127   4.377  46.106  1.00  0.00     0.032 A 
HETATM   24  C16 UNL     1      35.017   3.263  46.135  1.00  0.00    -0.022 A 
HETATM   25  C17 UNL     1      35.015   4.056  44.989  1.00  0.00    -0.022 A 
ENDBRANCH  22  23
ENDBRANCH  18  22
ENDBRANCH  17  18
ENDBRANCH  16  17
ENDBRANCH  15  16
ENDBRANCH  14  15
ENDBRANCH   1  14
TORSDOF 13
ENDMDL
MODEL 4
REMARK VINA RESULT:      -5.5      2.129      3.993
REMARK  13 active torsions:
REMARK  status: ('A' for Active; 'I' for Inactive)
REMARK    1  A    between atoms: C2_2  and  C3_3 
REMARK    2  A    between atoms: C4_7  and  C5_8 
REMARK    3  A    between atoms: C5_8  and  C6_9 
REMARK    4  A    between atoms: C6_9  and  C7_10 
REMARK    5  A    between atoms: C9_12  and  S1_13 
REMARK    6  A    between atoms: S1_13  and  C10_14 
REMARK    7  A    between atoms: C10_14  and  C11_15 
REMARK    8  A    between atoms: C11_15  and  O2_16 
REMARK    9  A    between atoms: O2_16  and  C12_17 
REMARK   10  A    between atoms: C12_17  and  C13_18 
REMARK   11  A    between atoms: C13_18  and  N2_19 
REMARK   12  A    between atoms: C13_18  and  C14_20 
REMARK   13  A    between atoms: C14_20  and  C15_21 
ROOT
HETATM    1  S1  UNL     1      20.967   0.449  52.271  1.00  0.00    -0.139 SA
ENDROOT
BRANCH   1   2
HETATM    2  C9  UNL     1      22.695   0.206  52.713  1.00  0.00     0.047 C 
HETATM    3  C7  UNL     1      23.162  -0.393  53.826  1.00  0.00    -0.074 C 
HETATM    4  C8  UNL     1      22.289  -0.963  54.892  1.00  0.00     0.044 C 
BRANCH   3   5
HETATM    5  C6  UNL     1      24.607  -0.602  54.209  1.00  0.00     0.064 C 
BRANCH   5   6
HETATM    6  C5  UNL     1      25.393   0.223  53.290  1.00  0.00     0.017 C 
BRANCH   6   7
HETATM    7  C4  UNL     1      26.622   0.625  53.439  1.00  0.00     0.101 A 
HETATM    8  C3  UNL     1      27.704  -0.147  53.219  1.00  0.00     0.088 A 
HETATM    9  N1  UNL     1      28.941   0.516  53.449  1.00  0.00    -0.223 NA
HETATM   10  P1  UNL     1      28.571   2.063  53.923  1.00  0.00     0.238 P 
HETATM   11  O1  UNL     1      26.755   1.973  53.860  1.00  0.00    -0.292 OA
BRANCH   8  12
HETATM   12  C2  UNL     1      27.665  -1.394  52.830  1.00  0.00     0.003 C 
HETATM   13  C1  UNL     1      28.831  -2.260  53.100  1.00  0.00     0.038 C 
ENDBRANCH   8  12
ENDBRANCH   6   7
ENDBRANCH   5   6
ENDBRANCH   3   5
ENDBRANCH   1   2
BRANCH   1  14
HETATM   14  C10 UNL     1      20.590   2.197  52.612  1.00  0.00     0.104 C 
BRANCH  14  15
HETATM   15  C11 UNL     1      20.352   2.853  51.233  1.00  0.00     0.178 C 
BRANCH  15  16
HETATM   16  O2  UNL     1      21.523   3.516  50.940  1.00  0.00    -0.388 OA
BRANCH  16  17
HETATM   17  C12 UNL     1      22.003   4.332  51.921  1.00  0.00     0.203 C 
BRANCH  17  18
HETATM   18  C13 UNL     1      23.436   4.689  51.681  1.00  0.00     0.242 C 
BRANCH  18  19
HETATM   19  N2  UNL     1      23.888   5.732  52.597  1.00  0.00     0.085 N 
HETATM   20  H19 UNL     1      23.304   6.585  52.545  1.00  0.00     0.313 HD
HETATM   21  H20 UNL     1      24.900   5.896  52.581  1.00  0.00     0.313 HD
ENDBRANCH  18  19
BRANCH  18  22
HETATM   22  C14 UNL     1      24.369   3.531  51.788  1.00  0.00     0.049 C 
BRANCH  22  23
HETATM   23  C15 UNL     1      25.060   3.130  50.522  1.00  0.00     0.032 A 
HETATM   24  C16 UNL     1      26.417   2.704  50.416  1.00  0.00    -0.022 A 
HETATM   25  C17 UNL     1      26.091   3.952  49.890  1.00  0.00    -0.022 A 
ENDBRANCH  22  23
ENDBRANCH  18  22
ENDBRANCH  17  18
ENDBRANCH  16  17
ENDBRANCH  15  16
ENDBRANCH  14  15
ENDBRANCH   1  14
TORSDOF 13
ENDMDL
MODEL 5
REMARK VINA RESULT:      -5.5      6.091      7.435
REMARK  13 active torsions:
REMARK  status: ('A' for Active; 'I' for Inactive)
REMARK    1  A    between atoms: C2_2  and  C3_3 
REMARK    2  A    between atoms: C4_7  and  C5_8 
REMARK    3  A    between atoms: C5_8  and  C6_9 
REMARK    4  A    between atoms: C6_9  and  C7_10 
REMARK    5  A    between atoms: C9_12  and  S1_13 
REMARK    6  A    between atoms: S1_13  and  C10_14 
REMARK    7  A    between atoms: C10_14  and  C11_15 
REMARK    8  A    between atoms: C11_15  and  O2_16 
REMARK    9  A    between atoms: O2_16  and  C12_17 
REMARK   10  A    between atoms: C12_17  and  C13_18 
REMARK   11  A    between atoms: C13_18  and  N2_19 
REMARK   12  A    between atoms: C13_18  and  C14_20 
REMARK   13  A    between atoms: C14_20  and  C15_21 
ROOT
HETATM    1  S1  UNL     1      26.141   4.588  49.394  1.00  0.00    -0.139 SA
ENDROOT
BRANCH   1   2
HETATM    2  C9  UNL     1      27.733   4.909  48.618  1.00  0.00     0.047 C 
HETATM    3  C7  UNL     1      28.233   6.114  48.282  1.00  0.00    -0.074 C 
HETATM    4  C8  UNL     1      27.520   7.403  48.508  1.00  0.00     0.044 C 
BRANCH   3   5
HETATM    5  C6  UNL     1      29.566   6.395  47.630  1.00  0.00     0.064 C 
BRANCH   5   6
HETATM    6  C5  UNL     1      30.440   5.280  47.997  1.00  0.00     0.017 C 
BRANCH   6   7
HETATM    7  C4  UNL     1      31.741   5.253  47.980  1.00  0.00     0.101 A 
HETATM    8  C3  UNL     1      32.472   4.310  47.354  1.00  0.00     0.088 A 
HETATM    9  N1  UNL     1      33.877   4.495  47.477  1.00  0.00    -0.223 NA
HETATM   10  P1  UNL     1      34.100   5.866  48.385  1.00  0.00     0.238 P 
HETATM   11  O1  UNL     1      32.363   6.317  48.684  1.00  0.00    -0.292 OA
BRANCH   8  12
HETATM   12  C2  UNL     1      31.976   3.303  46.686  1.00  0.00     0.003 C 
HETATM   13  C1  UNL     1      32.544   1.956  46.902  1.00  0.00     0.038 C 
ENDBRANCH   8  12
ENDBRANCH   6   7
ENDBRANCH   5   6
ENDBRANCH   3   5
ENDBRANCH   1   2
BRANCH   1  14
HETATM   14  C10 UNL     1      26.115   2.814  49.802  1.00  0.00     0.104 C 
BRANCH  14  15
HETATM   15  C11 UNL     1      26.228   2.735  51.342  1.00  0.00     0.178 C 
BRANCH  15  16
HETATM   16  O2  UNL     1      26.003   1.413  51.655  1.00  0.00    -0.388 OA
BRANCH  16  17
HETATM   17  C12 UNL     1      25.479   1.177  52.891  1.00  0.00     0.203 C 
BRANCH  17  18
HETATM   18  C13 UNL     1      26.409   0.358  53.730  1.00  0.00     0.242 C 
BRANCH  18  19
HETATM   19  N2  UNL     1      25.705  -0.737  54.392  1.00  0.00     0.085 N 
HETATM   20  H19 UNL     1      25.407  -1.474  53.730  1.00  0.00     0.313 HD
HETATM   21  H20 UNL     1      24.987  -0.433  55.057  1.00  0.00     0.313 HD
ENDBRANCH  18  19
BRANCH  18  22
HETATM   22  C14 UNL     1      27.558  -0.211  52.970  1.00  0.00     0.049 C 
BRANCH  22  23
HETATM   23  C15 UNL     1      28.707  -0.702  53.795  1.00  0.00     0.032 A 
HETATM   24  C16 UNL     1      30.088  -0.525  53.484  1.00  0.00    -0.022 A 
HETATM   25  C17 UNL     1      29.564  -1.811  53.378  1.00  0.00    -0.022 A 
ENDBRANCH  22  23
ENDBRANCH  18  22
ENDBRANCH  17  18
ENDBRANCH  16  17
ENDBRANCH  15  16
ENDBRANCH  14  15
ENDBRANCH   1  14
TORSDOF 13
ENDMDL
MODEL 6
REMARK VINA RESULT:      -5.5      2.689      4.814
REMARK  13 active torsions:
REMARK  status: ('A' for Active; 'I' for Inactive)
REMARK    1  A    between atoms: C2_2  and  C3_3 
REMARK    2  A    between atoms: C4_7  and  C5_8 
REMARK    3  A    between atoms: C5_8  and  C6_9 
REMARK    4  A    between atoms: C6_9  and  C7_10 
REMARK    5  A    between atoms: C9_12  and  S1_13 
REMARK    6  A    between atoms: S1_13  and  C10_14 
REMARK    7  A    between atoms: C10_14  and  C11_15 
REMARK    8  A    between atoms: C11_15  and  O2_16 
REMARK    9  A    between atoms: O2_16  and  C12_17 
REMARK   10  A    between atoms: C12_17  and  C13_18 
REMARK   11  A    between atoms: C13_18  and  N2_19 
REMARK   12  A    between atoms: C13_18  and  C14_20 
REMARK   13  A    between atoms: C14_20  and  C15_21 
ROOT
HETATM    1  S1  UNL     1      20.854   1.575  52.139  1.00  0.00    -0.139 SA
ENDROOT
BRANCH   1   2
HETATM    2  C9  UNL     1      22.425   0.702  52.239  1.00  0.00     0.047 C 
HETATM    3  C7  UNL     1      22.820  -0.129  53.223  1.00  0.00    -0.074 C 
HETATM    4  C8  UNL     1      21.988  -0.460  54.415  1.00  0.00     0.044 C 
BRANCH   3   5
HETATM    5  C6  UNL     1      24.134  -0.866  53.319  1.00  0.00     0.064 C 
BRANCH   5   6
HETATM    6  C5  UNL     1      24.947  -0.122  54.282  1.00  0.00     0.017 C 
BRANCH   6   7
HETATM    7  C4  UNL     1      26.190   0.244  54.155  1.00  0.00     0.101 A 
HETATM    8  C3  UNL     1      26.601   1.290  53.411  1.00  0.00     0.088 A 
HETATM    9  N1  UNL     1      28.008   1.491  53.429  1.00  0.00    -0.223 NA
HETATM   10  P1  UNL     1      28.646   0.310  54.405  1.00  0.00     0.238 P 
HETATM   11  O1  UNL     1      27.116  -0.554  54.875  1.00  0.00    -0.292 OA
BRANCH   8  12
HETATM   12  C2  UNL     1      25.812   2.071  52.722  1.00  0.00     0.003 C 
HETATM   13  C1  UNL     1      24.991   3.067  53.441  1.00  0.00     0.038 C 
ENDBRANCH   8  12
ENDBRANCH   6   7
ENDBRANCH   5   6
ENDBRANCH   3   5
ENDBRANCH   1   2
BRANCH   1  14
HETATM   14  C10 UNL     1      21.238   3.346  52.314  1.00  0.00     0.104 C 
BRANCH  14  15
HETATM   15  C11 UNL     1      20.617   4.035  51.077  1.00  0.00     0.178 C 
BRANCH  15  16
HETATM   16  O2  UNL     1      21.540   4.978  50.685  1.00  0.00    -0.388 OA
BRANCH  16  17
HETATM   17  C12 UNL     1      22.636   5.104  51.487  1.00  0.00     0.203 C 
BRANCH  17  18
HETATM   18  C13 UNL     1      23.544   6.190  51.003  1.00  0.00     0.242 C 
BRANCH  18  19
HETATM   19  N2  UNL     1      24.435   6.653  52.063  1.00  0.00     0.085 N 
HETATM   20  H19 UNL     1      25.433   6.488  51.843  1.00  0.00     0.313 HD
HETATM   21  H20 UNL     1      24.146   6.373  53.006  1.00  0.00     0.313 HD
ENDBRANCH  18  19
BRANCH  18  22
HETATM   22  C14 UNL     1      24.373   5.799  49.827  1.00  0.00     0.049 C 
BRANCH  22  23
HETATM   23  C15 UNL     1      25.503   4.859  50.109  1.00  0.00     0.032 A 
HETATM   24  C16 UNL     1      26.588   4.577  49.227  1.00  0.00    -0.022 A 
HETATM   25  C17 UNL     1      25.648   3.570  49.433  1.00  0.00    -0.022 A 
ENDBRANCH  22  23
ENDBRANCH  18  22
ENDBRANCH  17  18
ENDBRANCH  16  17
ENDBRANCH  15  16
ENDBRANCH  14  15
ENDBRANCH   1  14
TORSDOF 13
ENDMDL
MODEL 7
REMARK VINA RESULT:      -5.5      2.676      4.594
REMARK  13 active torsions:
REMARK  status: ('A' for Active; 'I' for Inactive)
REMARK    1  A    between atoms: C2_2  and  C3_3 
REMARK    2  A    between atoms: C4_7  and  C5_8 
REMARK    3  A    between atoms: C5_8  and  C6_9 
REMARK    4  A    between atoms: C6_9  and  C7_10 
REMARK    5  A    between atoms: C9_12  and  S1_13 
REMARK    6  A    between atoms: S1_13  and  C10_14 
REMARK    7  A    between atoms: C10_14  and  C11_15 
REMARK    8  A    between atoms: C11_15  and  O2_16 
REMARK    9  A    between atoms: O2_16  and  C12_17 
REMARK   10  A    between atoms: C12_17  and  C13_18 
REMARK   11  A    between atoms: C13_18  and  N2_19 
REMARK   12  A    between atoms: C13_18  and  C14_20 
REMARK   13  A    between atoms: C14_20  and  C15_21 
ROOT
HETATM    1  S1  UNL     1      21.394   1.463  52.196  1.00  0.00    -0.139 SA
ENDROOT
BRANCH   1   2
HETATM    2  C9  UNL     1      23.073   1.951  52.625  1.00  0.00     0.047 C 
HETATM    3  C7  UNL     1      24.070   2.235  51.765  1.00  0.00    -0.074 C 
HETATM    4  C8  UNL     1      23.929   2.186  50.282  1.00  0.00     0.044 C 
BRANCH   3   5
HETATM    5  C6  UNL     1      25.482   2.644  52.112  1.00  0.00     0.064 C 
BRANCH   5   6
HETATM    6  C5  UNL     1      26.322   1.479  51.830  1.00  0.00     0.017 C 
BRANCH   6   7
HETATM    7  C4  UNL     1      27.168   0.900  52.631  1.00  0.00     0.101 A 
HETATM    8  C3  UNL     1      26.914  -0.235  53.312  1.00  0.00     0.088 A 
HETATM    9  N1  UNL     1      27.995  -0.675  54.123  1.00  0.00    -0.223 NA
HETATM   10  P1  UNL     1      29.222   0.424  53.919  1.00  0.00     0.238 P 
HETATM   11  O1  UNL     1      28.419   1.560  52.747  1.00  0.00    -0.292 OA
BRANCH   8  12
HETATM   12  C2  UNL     1      25.791  -0.901  53.259  1.00  0.00     0.003 C 
HETATM   13  C1  UNL     1      24.823  -0.754  54.365  1.00  0.00     0.038 C 
ENDBRANCH   8  12
ENDBRANCH   6   7
ENDBRANCH   5   6
ENDBRANCH   3   5
ENDBRANCH   1   2
BRANCH   1  14
HETATM   14  C10 UNL     1      20.384   2.976  52.271  1.00  0.00     0.104 C 
BRANCH  14  15
HETATM   15  C11 UNL     1      20.666   3.737  50.955  1.00  0.00     0.178 C 
BRANCH  15  16
HETATM   16  O2  UNL     1      20.909   5.038  51.334  1.00  0.00    -0.388 OA
BRANCH  16  17
HETATM   17  C12 UNL     1      22.179   5.306  51.752  1.00  0.00     0.203 C 
BRANCH  17  18
HETATM   18  C13 UNL     1      22.922   6.128  50.746  1.00  0.00     0.242 C 
BRANCH  18  19
HETATM   19  N2  UNL     1      22.681   7.555  50.940  1.00  0.00     0.085 N 
HETATM   20  H19 UNL     1      21.859   7.740  51.540  1.00  0.00     0.313 HD
HETATM   21  H20 UNL     1      22.724   8.109  50.078  1.00  0.00     0.313 HD
ENDBRANCH  18  19
BRANCH  18  22
HETATM   22  C14 UNL     1      24.394   5.894  50.750  1.00  0.00     0.049 C 
BRANCH  22  23
HETATM   23  C15 UNL     1      25.013   5.609  49.417  1.00  0.00     0.032 A 
HETATM   24  C16 UNL     1      26.228   4.893  49.202  1.00  0.00    -0.022 A 
HETATM   25  C17 UNL     1      26.237   6.265  48.957  1.00  0.00    -0.022 A 
ENDBRANCH  22  23
ENDBRANCH  18  22
ENDBRANCH  17  18
ENDBRANCH  16  17
ENDBRANCH  15  16
ENDBRANCH  14  15
ENDBRANCH   1  14
TORSDOF 13
ENDMDL
MODEL 8
REMARK VINA RESULT:      -5.4      5.084      6.790
REMARK  13 active torsions:
REMARK  status: ('A' for Active; 'I' for Inactive)
REMARK    1  A    between atoms: C2_2  and  C3_3 
REMARK    2  A    between atoms: C4_7  and  C5_8 
REMARK    3  A    between atoms: C5_8  and  C6_9 
REMARK    4  A    between atoms: C6_9  and  C7_10 
REMARK    5  A    between atoms: C9_12  and  S1_13 
REMARK    6  A    between atoms: S1_13  and  C10_14 
REMARK    7  A    between atoms: C10_14  and  C11_15 
REMARK    8  A    between atoms: C11_15  and  O2_16 
REMARK    9  A    between atoms: O2_16  and  C12_17 
REMARK   10  A    between atoms: C12_17  and  C13_18 
REMARK   11  A    between atoms: C13_18  and  N2_19 
REMARK   12  A    between atoms: C13_18  and  C14_20 
REMARK   13  A    between atoms: C14_20  and  C15_21 
ROOT
HETATM    1  S1  UNL     1      23.773   3.839  51.561  1.00  0.00    -0.139 SA
ENDROOT
BRANCH   1   2
HETATM    2  C9  UNL     1      24.903   4.511  50.332  1.00  0.00     0.047 C 
HETATM    3  C7  UNL     1      26.106   4.010  49.988  1.00  0.00    -0.074 C 
HETATM    4  C8  UNL     1      26.699   2.784  50.594  1.00  0.00     0.044 C 
BRANCH   3   5
HETATM    5  C6  UNL     1      27.062   4.564  48.960  1.00  0.00     0.064 C 
BRANCH   5   6
HETATM    6  C5  UNL     1      26.543   5.881  48.592  1.00  0.00     0.017 C 
BRANCH   6   7
HETATM    7  C4  UNL     1      27.043   7.044  48.893  1.00  0.00     0.101 A 
HETATM    8  C3  UNL     1      28.139   7.572  48.313  1.00  0.00     0.088 A 
HETATM    9  N1  UNL     1      28.492   8.856  48.811  1.00  0.00    -0.223 NA
HETATM   10  P1  UNL     1      27.372   9.242  49.973  1.00  0.00     0.238 P 
HETATM   11  O1  UNL     1      26.340   7.746  49.906  1.00  0.00    -0.292 OA
BRANCH   8  12
HETATM   12  C2  UNL     1      28.840   6.992  47.375  1.00  0.00     0.003 C 
HETATM   13  C1  UNL     1      30.146   6.399  47.727  1.00  0.00     0.038 C 
ENDBRANCH   8  12
ENDBRANCH   6   7
ENDBRANCH   5   6
ENDBRANCH   3   5
ENDBRANCH   1   2
BRANCH   1  14
HETATM   14  C10 UNL     1      23.257   2.205  50.946  1.00  0.00     0.104 C 
BRANCH  14  15
HETATM   15  C11 UNL     1      23.082   1.319  52.201  1.00  0.00     0.178 C 
BRANCH  15  16
HETATM   16  O2  UNL     1      24.136   1.646  53.025  1.00  0.00    -0.388 OA
BRANCH  16  17
HETATM   17  C12 UNL     1      24.891   0.600  53.464  1.00  0.00     0.203 C 
BRANCH  17  18
HETATM   18  C13 UNL     1      26.313   1.011  53.687  1.00  0.00     0.242 C 
BRANCH  18  19
HETATM   19  N2  UNL     1      26.404   2.393  54.150  1.00  0.00     0.085 N 
HETATM   20  H19 UNL     1      26.400   3.073  53.371  1.00  0.00     0.313 HD
HETATM   21  H20 UNL     1      27.125   2.550  54.862  1.00  0.00     0.313 HD
ENDBRANCH  18  19
BRANCH  18  22
HETATM   22  C14 UNL     1      27.044   0.141  54.652  1.00  0.00     0.049 C 
BRANCH  22  23
HETATM   23  C15 UNL     1      28.537   0.251  54.628  1.00  0.00     0.032 A 
HETATM   24  C16 UNL     1      29.333   0.506  53.472  1.00  0.00    -0.022 A 
HETATM   25  C17 UNL     1      29.396  -0.769  54.029  1.00  0.00    -0.022 A 
ENDBRANCH  22  23
ENDBRANCH  18  22
ENDBRANCH  17  18
ENDBRANCH  16  17
ENDBRANCH  15  16
ENDBRANCH  14  15
ENDBRANCH   1  14
TORSDOF 13
ENDMDL
MODEL 9
REMARK VINA RESULT:      -5.4      1.910      2.379
REMARK  13 active torsions:
REMARK  status: ('A' for Active; 'I' for Inactive)
REMARK    1  A    between atoms: C2_2  and  C3_3 
REMARK    2  A    between atoms: C4_7  and  C5_8 
REMARK    3  A    between atoms: C5_8  and  C6_9 
REMARK    4  A    between atoms: C6_9  and  C7_10 
REMARK    5  A    between atoms: C9_12  and  S1_13 
REMARK    6  A    between atoms: S1_13  and  C10_14 
REMARK    7  A    between atoms: C10_14  and  C11_15 
REMARK    8  A    between atoms: C11_15  and  O2_16 
REMARK    9  A    between atoms: O2_16  and  C12_17 
REMARK   10  A    between atoms: C12_17  and  C13_18 
REMARK   11  A    between atoms: C13_18  and  N2_19 
REMARK   12  A    between atoms: C13_18  and  C14_20 
REMARK   13  A    between atoms: C14_20  and  C15_21 
ROOT
HETATM    1  S1  UNL     1      23.954   5.594  50.653  1.00  0.00    -0.139 SA
ENDROOT
BRANCH   1   2
HETATM    2  C9  UNL     1      24.800   4.066  51.088  1.00  0.00     0.047 C 
HETATM    3  C7  UNL     1      25.880   3.544  50.473  1.00  0.00    -0.074 C 
HETATM    4  C8  UNL     1      26.557   4.175  49.305  1.00  0.00     0.044 C 
BRANCH   3   5
HETATM    5  C6  UNL     1      26.598   2.264  50.828  1.00  0.00     0.064 C 
BRANCH   5   6
HETATM    6  C5  UNL     1      26.547   2.162  52.287  1.00  0.00     0.017 C 
BRANCH   6   7
HETATM    7  C4  UNL     1      27.297   1.428  53.057  1.00  0.00     0.101 A 
HETATM    8  C3  UNL     1      26.825   0.515  53.929  1.00  0.00     0.088 A 
HETATM    9  N1  UNL     1      27.840  -0.161  54.659  1.00  0.00    -0.223 NA
HETATM   10  P1  UNL     1      29.291   0.453  54.140  1.00  0.00     0.238 P 
HETATM   11  O1  UNL     1      28.690   1.656  52.915  1.00  0.00    -0.292 OA
BRANCH   8  12
HETATM   12  C2  UNL     1      25.561   0.247  54.117  1.00  0.00     0.003 C 
HETATM   13  C1  UNL     1      24.907  -0.749  53.243  1.00  0.00     0.038 C 
ENDBRANCH   8  12
ENDBRANCH   6   7
ENDBRANCH   5   6
ENDBRANCH   3   5
ENDBRANCH   1   2
BRANCH   1  14
HETATM   14  C10 UNL     1      22.209   5.367  51.121  1.00  0.00     0.104 C 
BRANCH  14  15
HETATM   15  C11 UNL     1      21.906   3.867  50.901  1.00  0.00     0.178 C 
BRANCH  15  16
HETATM   16  O2  UNL     1      21.562   3.381  52.142  1.00  0.00    -0.388 OA
BRANCH  16  17
HETATM   17  C12 UNL     1      20.245   3.076  52.316  1.00  0.00     0.203 C 
BRANCH  17  18
HETATM   18  C13 UNL     1      20.039   1.599  52.443  1.00  0.00     0.242 C 
BRANCH  18  19
HETATM   19  N2  UNL     1      19.750   0.987  51.148  1.00  0.00     0.085 N 
HETATM   20  H19 UNL     1      18.933   1.416  50.681  1.00  0.00     0.313 HD
HETATM   21  H20 UNL     1      19.758  -0.038  51.158  1.00  0.00     0.313 HD
ENDBRANCH  18  19
BRANCH  18  22
HETATM   22  C14 UNL     1      21.193   0.883  53.056  1.00  0.00     0.049 C 
BRANCH  22  23
HETATM   23  C15 UNL     1      20.848  -0.165  54.068  1.00  0.00     0.032 A 
HETATM   24  C16 UNL     1      21.732  -0.684  55.060  1.00  0.00    -0.022 A 
HETATM   25  C17 UNL     1      21.377  -1.527  54.009  1.00  0.00    -0.022 A 
ENDBRANCH  22  23
ENDBRANCH  18  22
ENDBRANCH  17  18
ENDBRANCH  16  17
ENDBRANCH  15  16
ENDBRANCH  14  15
ENDBRANCH   1  14
TORSDOF 13
ENDMDL
