MODEL 1
REMARK VINA RESULT:      -8.6      0.000      0.000
REMARK  5 active torsions:
REMARK  status: ('A' for Active; 'I' for Inactive)
REMARK    1  A    between atoms: O1_2  and  C2_3 
REMARK    2  A    between atoms: C6_7  and  S1_8 
REMARK    3  A    between atoms: S1_8  and  O2_9 
REMARK    4  A    between atoms: C10_14  and  N2_15 
REMARK    5  A    between atoms: N2_15  and  C11_16 
ROOT
HETATM    1  C2  UNL     1      18.208  -0.729  52.403  1.00  0.00     0.072 A 
HETATM    2  C3  UNL     1      19.113  -0.795  53.474  1.00  0.00     0.074 A 
HETATM    3  C4  UNL     1      20.368  -0.221  53.394  1.00  0.00     0.090 A 
HETATM    4  C5  UNL     1      20.795   0.445  52.263  1.00  0.00     0.013 A 
HETATM    5  C6  UNL     1      19.899   0.514  51.194  1.00  0.00     0.041 A 
HETATM    6  C7  UNL     1      18.654  -0.062  51.286  1.00  0.00     0.058 A 
HETATM    7  C8  UNL     1      22.001   1.152  51.824  1.00  0.00     0.163 C 
HETATM    8  N1  UNL     1      23.201   0.854  52.541  1.00  0.00    -0.379 N 
HETATM    9  C9  UNL     1      23.456   0.014  53.649  1.00  0.00     0.129 A 
HETATM   10  C10 UNL     1      24.793  -0.206  53.725  1.00  0.00     0.160 A 
HETATM   11  N3  UNL     1      25.239  -0.998  54.724  1.00  0.00    -0.222 NA
HETATM   12  C17 UNL     1      24.371  -1.539  55.598  1.00  0.00     0.238 A 
HETATM   13  N4  UNL     1      23.021  -1.335  55.546  1.00  0.00    -0.215 NA
HETATM   14  C18 UNL     1      22.559  -0.536  54.542  1.00  0.00     0.202 A 
HETATM   15  O3  UNL     1      21.180  -0.347  54.513  1.00  0.00    -0.289 OA
HETATM   16  H9  UNL     1      24.029   1.356  52.160  1.00  0.00     0.160 HD
ENDROOT
BRANCH  10  17
HETATM   17  N2  UNL     1      25.814   0.314  52.875  1.00  0.00    -0.339 N 
HETATM   18  H10 UNL     1      25.741   0.964  52.043  1.00  0.00     0.167 HD
BRANCH  17  19
HETATM   19  C11 UNL     1      27.141  -0.110  53.201  1.00  0.00     0.033 A 
HETATM   20  C12 UNL     1      27.628  -1.341  52.830  1.00  0.00     0.029 A 
HETATM   21  C13 UNL     1      28.905  -1.793  53.107  1.00  0.00     0.002 A 
HETATM   22  C14 UNL     1      29.763  -0.969  53.800  1.00  0.00     0.000 A 
HETATM   23  C15 UNL     1      29.344   0.278  54.204  1.00  0.00     0.002 A 
HETATM   24  C16 UNL     1      28.044   0.686  53.900  1.00  0.00     0.029 A 
ENDBRANCH  17  19
ENDBRANCH  10  17
BRANCH   5  25
HETATM   25  S1  UNL     1      20.222   1.323  49.610  1.00  0.00     0.026 SA
BRANCH  25  26
HETATM   26  O2  UNL     1      18.663   1.661  48.941  1.00  0.00    -0.325 OA
HETATM   27  H5  UNL     1      18.717   1.678  47.938  1.00  0.00     0.228 HD
ENDBRANCH  25  26
ENDBRANCH   5  25
BRANCH   1  28
HETATM   28  O1  UNL     1      17.038  -1.372  52.727  1.00  0.00    -0.356 OA
HETATM   29  C1  UNL     1      15.803  -0.863  52.304  1.00  0.00     0.210 C 
ENDBRANCH   1  28
TORSDOF 5
ENDMDL
MODEL 2
REMARK VINA RESULT:      -8.4      5.082      7.084
REMARK  5 active torsions:
REMARK  status: ('A' for Active; 'I' for Inactive)
REMARK    1  A    between atoms: O1_2  and  C2_3 
REMARK    2  A    between atoms: C6_7  and  S1_8 
REMARK    3  A    between atoms: S1_8  and  O2_9 
REMARK    4  A    between atoms: C10_14  and  N2_15 
REMARK    5  A    between atoms: N2_15  and  C11_16 
ROOT
HETATM    1  C2  UNL     1      22.883  -0.762  53.496  1.00  0.00     0.072 A 
HETATM    2  C3  UNL     1      22.276   0.166  52.635  1.00  0.00     0.074 A 
HETATM    3  C4  UNL     1      22.948   1.294  52.201  1.00  0.00     0.090 A 
HETATM    4  C5  UNL     1      24.244   1.565  52.587  1.00  0.00     0.013 A 
HETATM    5  C6  UNL     1      24.854   0.646  53.442  1.00  0.00     0.041 A 
HETATM    6  C7  UNL     1      24.176  -0.472  53.869  1.00  0.00     0.058 A 
HETATM    7  C8  UNL     1      25.241   2.612  52.344  1.00  0.00     0.163 C 
HETATM    8  N1  UNL     1      24.736   3.863  51.873  1.00  0.00    -0.379 N 
HETATM    9  C9  UNL     1      23.429   4.293  51.548  1.00  0.00     0.129 A 
HETATM   10  C10 UNL     1      23.421   5.649  51.498  1.00  0.00     0.160 A 
HETATM   11  N3  UNL     1      22.250   6.256  51.206  1.00  0.00    -0.222 NA
HETATM   12  C17 UNL     1      21.146   5.523  50.978  1.00  0.00     0.238 A 
HETATM   13  N4  UNL     1      21.124   4.157  51.020  1.00  0.00    -0.215 NA
HETATM   14  C18 UNL     1      22.302   3.533  51.314  1.00  0.00     0.202 A 
HETATM   15  O3  UNL     1      22.249   2.142  51.352  1.00  0.00    -0.289 OA
HETATM   16  H9  UNL     1      25.485   4.577  51.755  1.00  0.00     0.160 HD
ENDROOT
BRANCH  10  17
HETATM   17  N2  UNL     1      24.518   6.538  51.706  1.00  0.00    -0.339 N 
HETATM   18  H10 UNL     1      24.988   6.841  52.604  1.00  0.00     0.167 HD
BRANCH  17  19
HETATM   19  C11 UNL     1      25.065   7.106  50.512  1.00  0.00     0.033 A 
HETATM   20  C12 UNL     1      25.792   6.362  49.614  1.00  0.00     0.029 A 
HETATM   21  C13 UNL     1      26.330   6.859  48.440  1.00  0.00     0.002 A 
HETATM   22  C14 UNL     1      26.135   8.186  48.133  1.00  0.00     0.000 A 
HETATM   23  C15 UNL     1      25.416   8.992  48.985  1.00  0.00     0.002 A 
HETATM   24  C16 UNL     1      24.895   8.442  50.158  1.00  0.00     0.029 A 
ENDBRANCH  17  19
ENDBRANCH  10  17
BRANCH   5  25
HETATM   25  S1  UNL     1      26.537   0.777  54.091  1.00  0.00     0.026 SA
BRANCH  25  26
HETATM   26  O2  UNL     1      26.652  -0.435  55.319  1.00  0.00    -0.325 OA
HETATM   27  H5  UNL     1      25.909  -0.320  55.985  1.00  0.00     0.228 HD
ENDBRANCH  25  26
ENDBRANCH   5  25
BRANCH   1  28
HETATM   28  O1  UNL     1      22.015  -1.788  53.781  1.00  0.00    -0.356 OA
HETATM   29  C1  UNL     1      20.706  -1.520  54.200  1.00  0.00     0.210 C 
ENDBRANCH   1  28
TORSDOF 5
ENDMDL
MODEL 3
REMARK VINA RESULT:      -8.1      4.602      8.304
REMARK  5 active torsions:
REMARK  status: ('A' for Active; 'I' for Inactive)
REMARK    1  A    between atoms: O1_2  and  C2_3 
REMARK    2  A    between atoms: C6_7  and  S1_8 
REMARK    3  A    between atoms: S1_8  and  O2_9 
REMARK    4  A    between atoms: C10_14  and  N2_15 
REMARK    5  A    between atoms: N2_15  and  C11_16 
ROOT
HETATM    1  C2  UNL     1      26.921  -0.989  53.043  1.00  0.00     0.072 A 
HETATM    2  C3  UNL     1      27.390   0.215  52.496  1.00  0.00     0.074 A 
HETATM    3  C4  UNL     1      26.540   1.279  52.257  1.00  0.00     0.090 A 
HETATM    4  C5  UNL     1      25.191   1.214  52.544  1.00  0.00     0.013 A 
HETATM    5  C6  UNL     1      24.718   0.020  53.090  1.00  0.00     0.041 A 
HETATM    6  C7  UNL     1      25.573  -1.032  53.322  1.00  0.00     0.058 A 
HETATM    7  C8  UNL     1      24.027   2.097  52.436  1.00  0.00     0.163 C 
HETATM    8  N1  UNL     1      24.149   3.190  51.523  1.00  0.00    -0.379 N 
HETATM    9  C9  UNL     1      25.217   3.624  50.706  1.00  0.00     0.129 A 
HETATM   10  C10 UNL     1      24.726   4.474  49.769  1.00  0.00     0.160 A 
HETATM   11  N3  UNL     1      25.599   4.996  48.881  1.00  0.00    -0.222 NA
HETATM   12  C17 UNL     1      26.903   4.670  48.942  1.00  0.00     0.238 A 
HETATM   13  N4  UNL     1      27.426   3.819  49.874  1.00  0.00    -0.215 NA
HETATM   14  C18 UNL     1      26.553   3.285  50.777  1.00  0.00     0.202 A 
HETATM   15  O3  UNL     1      27.113   2.420  51.713  1.00  0.00    -0.289 OA
HETATM   16  H9  UNL     1      23.279   3.758  51.462  1.00  0.00     0.160 HD
ENDROOT
BRANCH  10  17
HETATM   17  N2  UNL     1      23.377   4.909  49.605  1.00  0.00    -0.339 N 
HETATM   18  H10 UNL     1      22.734   5.403  50.284  1.00  0.00     0.167 HD
BRANCH  17  19
HETATM   19  C11 UNL     1      22.809   4.631  48.321  1.00  0.00     0.033 A 
HETATM   20  C12 UNL     1      22.596   5.616  47.387  1.00  0.00     0.029 A 
HETATM   21  C13 UNL     1      22.064   5.400  46.128  1.00  0.00     0.002 A 
HETATM   22  C14 UNL     1      21.717   4.117  45.769  1.00  0.00     0.000 A 
HETATM   23  C15 UNL     1      21.902   3.080  46.653  1.00  0.00     0.002 A 
HETATM   24  C16 UNL     1      22.442   3.352  47.912  1.00  0.00     0.029 A 
ENDBRANCH  17  19
ENDBRANCH  10  17
BRANCH   5  25
HETATM   25  S1  UNL     1      23.001  -0.314  53.546  1.00  0.00     0.026 SA
BRANCH  25  26
HETATM   26  O2  UNL     1      23.082  -1.160  55.052  1.00  0.00    -0.325 OA
HETATM   27  H5  UNL     1      22.180  -1.538  55.282  1.00  0.00     0.228 HD
ENDBRANCH  25  26
ENDBRANCH   5  25
BRANCH   1  28
HETATM   28  O1  UNL     1      27.952  -1.885  53.182  1.00  0.00    -0.356 OA
HETATM   29  C1  UNL     1      29.259  -1.439  53.422  1.00  0.00     0.210 C 
ENDBRANCH   1  28
TORSDOF 5
ENDMDL
MODEL 4
REMARK VINA RESULT:      -8.0      3.177      7.864
REMARK  5 active torsions:
REMARK  status: ('A' for Active; 'I' for Inactive)
REMARK    1  A    between atoms: O1_2  and  C2_3 
REMARK    2  A    between atoms: C6_7  and  S1_8 
REMARK    3  A    between atoms: S1_8  and  O2_9 
REMARK    4  A    between atoms: C10_14  and  N2_15 
REMARK    5  A    between atoms: N2_15  and  C11_16 
ROOT
HETATM    1  C2  UNL     1      27.670   1.165  52.872  1.00  0.00     0.072 A 
HETATM    2  C3  UNL     1      26.658   0.259  53.227  1.00  0.00     0.074 A 
HETATM    3  C4  UNL     1      25.370   0.390  52.744  1.00  0.00     0.090 A 
HETATM    4  C5  UNL     1      25.011   1.414  51.890  1.00  0.00     0.013 A 
HETATM    5  C6  UNL     1      26.012   2.319  51.533  1.00  0.00     0.041 A 
HETATM    6  C7  UNL     1      27.290   2.178  52.021  1.00  0.00     0.058 A 
HETATM    7  C8  UNL     1      23.799   1.861  51.199  1.00  0.00     0.163 C 
HETATM    8  N1  UNL     1      22.561   1.384  51.729  1.00  0.00    -0.379 N 
HETATM    9  C9  UNL     1      22.266   0.507  52.799  1.00  0.00     0.129 A 
HETATM   10  C10 UNL     1      20.957   0.655  53.129  1.00  0.00     0.160 A 
HETATM   11  N3  UNL     1      20.481  -0.099  54.143  1.00  0.00    -0.222 NA
HETATM   12  C17 UNL     1      21.292  -0.957  54.788  1.00  0.00     0.238 A 
HETATM   13  N4  UNL     1      22.611  -1.127  54.477  1.00  0.00    -0.215 NA
HETATM   14  C18 UNL     1      23.104  -0.371  53.454  1.00  0.00     0.202 A 
HETATM   15  O3  UNL     1      24.451  -0.564  53.161  1.00  0.00    -0.289 OA
HETATM   16  H9  UNL     1      21.736   1.764  51.221  1.00  0.00     0.160 HD
ENDROOT
BRANCH  10  17
HETATM   17  N2  UNL     1      19.994   1.513  52.520  1.00  0.00    -0.339 N 
HETATM   18  H10 UNL     1      19.940   2.570  52.501  1.00  0.00     0.167 HD
BRANCH  17  19
HETATM   19  C11 UNL     1      18.938   0.838  51.830  1.00  0.00     0.033 A 
HETATM   20  C12 UNL     1      18.633   1.107  50.517  1.00  0.00     0.029 A 
HETATM   21  C13 UNL     1      17.634   0.474  49.800  1.00  0.00     0.002 A 
HETATM   22  C14 UNL     1      16.883  -0.495  50.426  1.00  0.00     0.000 A 
HETATM   23  C15 UNL     1      17.132  -0.817  51.740  1.00  0.00     0.002 A 
HETATM   24  C16 UNL     1      18.152  -0.147  52.420  1.00  0.00     0.029 A 
ENDBRANCH  17  19
ENDBRANCH  10  17
BRANCH   5  25
HETATM   25  S1  UNL     1      25.795   3.741  50.437  1.00  0.00     0.026 SA
BRANCH  25  26
HETATM   26  O2  UNL     1      27.384   4.142  49.885  1.00  0.00    -0.325 OA
HETATM   27  H5  UNL     1      27.829   3.327  49.502  1.00  0.00     0.228 HD
ENDBRANCH  25  26
ENDBRANCH   5  25
BRANCH   1  28
HETATM   28  O1  UNL     1      28.853   0.822  53.479  1.00  0.00    -0.356 OA
HETATM   29  C1  UNL     1      28.872  -0.082  54.549  1.00  0.00     0.210 C 
ENDBRANCH   1  28
TORSDOF 5
ENDMDL
MODEL 5
REMARK VINA RESULT:      -7.8      6.030      9.087
REMARK  5 active torsions:
REMARK  status: ('A' for Active; 'I' for Inactive)
REMARK    1  A    between atoms: O1_2  and  C2_3 
REMARK    2  A    between atoms: C6_7  and  S1_8 
REMARK    3  A    between atoms: S1_8  and  O2_9 
REMARK    4  A    between atoms: C10_14  and  N2_15 
REMARK    5  A    between atoms: N2_15  and  C11_16 
ROOT
HETATM    1  C2  UNL     1      28.532   6.690  47.852  1.00  0.00     0.072 A 
HETATM    2  C3  UNL     1      28.417   5.424  48.447  1.00  0.00     0.074 A 
HETATM    3  C4  UNL     1      27.195   4.930  48.863  1.00  0.00     0.090 A 
HETATM    4  C5  UNL     1      26.028   5.651  48.713  1.00  0.00     0.013 A 
HETATM    5  C6  UNL     1      26.134   6.911  48.121  1.00  0.00     0.041 A 
HETATM    6  C7  UNL     1      27.356   7.392  47.713  1.00  0.00     0.058 A 
HETATM    7  C8  UNL     1      24.606   5.468  49.017  1.00  0.00     0.163 C 
HETATM    8  N1  UNL     1      24.295   4.479  50.001  1.00  0.00    -0.379 N 
HETATM    9  C9  UNL     1      25.111   3.589  50.736  1.00  0.00     0.129 A 
HETATM   10  C10 UNL     1      24.395   3.116  51.788  1.00  0.00     0.160 A 
HETATM   11  N3  UNL     1      25.008   2.248  52.621  1.00  0.00    -0.222 NA
HETATM   12  C17 UNL     1      26.282   1.880  52.397  1.00  0.00     0.238 A 
HETATM   13  N4  UNL     1      27.027   2.338  51.347  1.00  0.00    -0.215 NA
HETATM   14  C18 UNL     1      26.418   3.216  50.498  1.00  0.00     0.202 A 
HETATM   15  O3  UNL     1      27.200   3.667  49.439  1.00  0.00    -0.289 OA
HETATM   16  H9  UNL     1      23.275   4.421  50.201  1.00  0.00     0.160 HD
ENDROOT
BRANCH  10  17
HETATM   17  N2  UNL     1      23.042   3.415  52.129  1.00  0.00    -0.339 N 
HETATM   18  H10 UNL     1      22.621   4.297  52.534  1.00  0.00     0.167 HD
BRANCH  17  19
HETATM   19  C11 UNL     1      22.112   2.355  51.882  1.00  0.00     0.033 A 
HETATM   20  C12 UNL     1      21.193   1.955  52.822  1.00  0.00     0.029 A 
HETATM   21  C13 UNL     1      20.265   0.947  52.630  1.00  0.00     0.002 A 
HETATM   22  C14 UNL     1      20.244   0.289  51.422  1.00  0.00     0.000 A 
HETATM   23  C15 UNL     1      21.135   0.636  50.433  1.00  0.00     0.002 A 
HETATM   24  C16 UNL     1      22.053   1.660  50.678  1.00  0.00     0.029 A 
ENDBRANCH  17  19
ENDBRANCH  10  17
BRANCH   5  25
HETATM   25  S1  UNL     1      24.759   8.045  47.820  1.00  0.00     0.026 SA
BRANCH  25  26
HETATM   26  O2  UNL     1      24.237   7.715  46.205  1.00  0.00    -0.325 OA
HETATM   27  H5  UNL     1      23.254   7.509  46.198  1.00  0.00     0.228 HD
ENDBRANCH  25  26
ENDBRANCH   5  25
BRANCH   1  28
HETATM   28  O1  UNL     1      29.842   6.950  47.530  1.00  0.00    -0.356 OA
HETATM   29  C1  UNL     1      30.863   6.732  48.464  1.00  0.00     0.210 C 
ENDBRANCH   1  28
TORSDOF 5
ENDMDL
MODEL 6
REMARK VINA RESULT:      -7.6      9.125     11.130
REMARK  5 active torsions:
REMARK  status: ('A' for Active; 'I' for Inactive)
REMARK    1  A    between atoms: O1_2  and  C2_3 
REMARK    2  A    between atoms: C6_7  and  S1_8 
REMARK    3  A    between atoms: S1_8  and  O2_9 
REMARK    4  A    between atoms: C10_14  and  N2_15 
REMARK    5  A    between atoms: N2_15  and  C11_16 
ROOT
HETATM    1  C2  UNL     1      25.329   7.631  48.966  1.00  0.00     0.072 A 
HETATM    2  C3  UNL     1      26.497   8.210  48.444  1.00  0.00     0.074 A 
HETATM    3  C4  UNL     1      27.630   7.456  48.202  1.00  0.00     0.090 A 
HETATM    4  C5  UNL     1      27.672   6.100  48.457  1.00  0.00     0.013 A 
HETATM    5  C6  UNL     1      26.514   5.518  48.975  1.00  0.00     0.041 A 
HETATM    6  C7  UNL     1      25.394   6.279  49.213  1.00  0.00     0.058 A 
HETATM    7  C8  UNL     1      28.649   5.014  48.335  1.00  0.00     0.163 C 
HETATM    8  N1  UNL     1      30.020   5.408  48.250  1.00  0.00    -0.379 N 
HETATM    9  C9  UNL     1      30.638   6.679  48.222  1.00  0.00     0.129 A 
HETATM   10  C10 UNL     1      31.958   6.523  48.498  1.00  0.00     0.160 A 
HETATM   11  N3  UNL     1      32.725   7.634  48.526  1.00  0.00    -0.222 NA
HETATM   12  C17 UNL     1      32.180   8.840  48.285  1.00  0.00     0.238 A 
HETATM   13  N4  UNL     1      30.856   9.027  48.004  1.00  0.00    -0.215 NA
HETATM   14  C18 UNL     1      30.070   7.912  47.973  1.00  0.00     0.202 A 
HETATM   15  O3  UNL     1      28.726   8.133  47.686  1.00  0.00    -0.289 OA
HETATM   16  H9  UNL     1      30.667   4.594  48.202  1.00  0.00     0.160 HD
ENDROOT
BRANCH  10  17
HETATM   17  N2  UNL     1      32.659   5.308  48.757  1.00  0.00    -0.339 N 
HETATM   18  H10 UNL     1      32.707   4.724  49.638  1.00  0.00     0.167 HD
BRANCH  17  19
HETATM   19  C11 UNL     1      33.413   4.802  47.651  1.00  0.00     0.033 A 
HETATM   20  C12 UNL     1      34.413   3.874  47.811  1.00  0.00     0.029 A 
HETATM   21  C13 UNL     1      35.161   3.343  46.775  1.00  0.00     0.002 A 
HETATM   22  C14 UNL     1      34.900   3.759  45.490  1.00  0.00     0.000 A 
HETATM   23  C15 UNL     1      33.912   4.686  45.253  1.00  0.00     0.002 A 
HETATM   24  C16 UNL     1      33.186   5.192  46.334  1.00  0.00     0.029 A 
ENDBRANCH  17  19
ENDBRANCH  10  17
BRANCH   5  25
HETATM   25  S1  UNL     1      26.320   3.770  49.396  1.00  0.00     0.026 SA
BRANCH  25  26
HETATM   26  O2  UNL     1      27.077   3.582  50.939  1.00  0.00    -0.325 OA
HETATM   27  H5  UNL     1      26.450   3.120  51.574  1.00  0.00     0.228 HD
ENDBRANCH  25  26
ENDBRANCH   5  25
BRANCH   1  28
HETATM   28  O1  UNL     1      24.351   8.583  49.116  1.00  0.00    -0.356 OA
HETATM   29  C1  UNL     1      23.218   8.326  49.900  1.00  0.00     0.210 C 
ENDBRANCH   1  28
TORSDOF 5
ENDMDL
MODEL 7
REMARK VINA RESULT:      -7.6      4.684      8.401
REMARK  5 active torsions:
REMARK  status: ('A' for Active; 'I' for Inactive)
REMARK    1  A    between atoms: O1_2  and  C2_3 
REMARK    2  A    between atoms: C6_7  and  S1_8 
REMARK    3  A    between atoms: S1_8  and  O2_9 
REMARK    4  A    between atoms: C10_14  and  N2_15 
REMARK    5  A    between atoms: N2_15  and  C11_16 
ROOT
HETATM    1  C2  UNL     1      27.099  -0.849  53.322  1.00  0.00     0.072 A 
HETATM    2  C3  UNL     1      27.414   0.397  52.756  1.00  0.00     0.074 A 
HETATM    3  C4  UNL     1      26.429   1.308  52.423  1.00  0.00     0.090 A 
HETATM    4  C5  UNL     1      25.090   1.043  52.630  1.00  0.00     0.013 A 
HETATM    5  C6  UNL     1      24.770  -0.193  53.193  1.00  0.00     0.041 A 
HETATM    6  C7  UNL     1      25.759  -1.092  53.519  1.00  0.00     0.058 A 
HETATM    7  C8  UNL     1      23.814   1.731  52.416  1.00  0.00     0.163 C 
HETATM    8  N1  UNL     1      23.828   2.802  51.469  1.00  0.00    -0.379 N 
HETATM    9  C9  UNL     1      24.870   3.372  50.702  1.00  0.00     0.129 A 
HETATM   10  C10 UNL     1      24.318   4.107  49.703  1.00  0.00     0.160 A 
HETATM   11  N3  UNL     1      25.158   4.731  48.850  1.00  0.00    -0.222 NA
HETATM   12  C17 UNL     1      26.490   4.613  49.003  1.00  0.00     0.238 A 
HETATM   13  N4  UNL     1      27.073   3.881  49.999  1.00  0.00    -0.215 NA
HETATM   14  C18 UNL     1      26.234   3.246  50.867  1.00  0.00     0.202 A 
HETATM   15  O3  UNL     1      26.856   2.507  51.870  1.00  0.00    -0.289 OA
HETATM   16  H9  UNL     1      22.888   3.226  51.332  1.00  0.00     0.160 HD
ENDROOT
BRANCH  10  17
HETATM   17  N2  UNL     1      22.932   4.322  49.440  1.00  0.00    -0.339 N 
HETATM   18  H10 UNL     1      22.169   3.628  49.204  1.00  0.00     0.167 HD
BRANCH  17  19
HETATM   19  C11 UNL     1      22.513   5.688  49.505  1.00  0.00     0.033 A 
HETATM   20  C12 UNL     1      22.473   6.495  48.393  1.00  0.00     0.029 A 
HETATM   21  C13 UNL     1      22.063   7.816  48.398  1.00  0.00     0.002 A 
HETATM   22  C14 UNL     1      21.664   8.379  49.589  1.00  0.00     0.000 A 
HETATM   23  C15 UNL     1      21.677   7.631  50.744  1.00  0.00     0.002 A 
HETATM   24  C16 UNL     1      22.101   6.302  50.684  1.00  0.00     0.029 A 
ENDBRANCH  17  19
ENDBRANCH  10  17
BRANCH   5  25
HETATM   25  S1  UNL     1      23.097  -0.775  53.557  1.00  0.00     0.026 SA
BRANCH  25  26
HETATM   26  O2  UNL     1      23.140  -1.293  55.206  1.00  0.00    -0.325 OA
HETATM   27  H5  UNL     1      24.092  -1.376  55.515  1.00  0.00     0.228 HD
ENDBRANCH  25  26
ENDBRANCH   5  25
BRANCH   1  28
HETATM   28  O1  UNL     1      28.244  -1.569  53.559  1.00  0.00    -0.356 OA
HETATM   29  C1  UNL     1      29.488  -0.930  53.633  1.00  0.00     0.210 C 
ENDBRANCH   1  28
TORSDOF 5
ENDMDL
MODEL 8
REMARK VINA RESULT:      -7.5      5.438      6.836
REMARK  5 active torsions:
REMARK  status: ('A' for Active; 'I' for Inactive)
REMARK    1  A    between atoms: O1_2  and  C2_3 
REMARK    2  A    between atoms: C6_7  and  S1_8 
REMARK    3  A    between atoms: S1_8  and  O2_9 
REMARK    4  A    between atoms: C10_14  and  N2_15 
REMARK    5  A    between atoms: N2_15  and  C11_16 
ROOT
HETATM    1  C2  UNL     1      21.499   8.594  49.633  1.00  0.00     0.072 A 
HETATM    2  C3  UNL     1      21.222   7.440  50.381  1.00  0.00     0.074 A 
HETATM    3  C4  UNL     1      22.231   6.598  50.808  1.00  0.00     0.090 A 
HETATM    4  C5  UNL     1      23.559   6.847  50.524  1.00  0.00     0.013 A 
HETATM    5  C6  UNL     1      23.841   7.993  49.780  1.00  0.00     0.041 A 
HETATM    6  C7  UNL     1      22.828   8.823  49.360  1.00  0.00     0.058 A 
HETATM    7  C8  UNL     1      24.852   6.213  50.793  1.00  0.00     0.163 C 
HETATM    8  N1  UNL     1      24.813   4.829  51.146  1.00  0.00    -0.379 N 
HETATM    9  C9  UNL     1      23.737   3.930  51.328  1.00  0.00     0.129 A 
HETATM   10  C10 UNL     1      24.223   2.663  51.300  1.00  0.00     0.160 A 
HETATM   11  N3  UNL     1      23.341   1.652  51.451  1.00  0.00    -0.222 NA
HETATM   12  C17 UNL     1      22.032   1.915  51.622  1.00  0.00     0.238 A 
HETATM   13  N4  UNL     1      21.515   3.180  51.656  1.00  0.00    -0.215 NA
HETATM   14  C18 UNL     1      22.397   4.209  51.504  1.00  0.00     0.202 A 
HETATM   15  O3  UNL     1      21.842   5.485  51.542  1.00  0.00    -0.289 OA
HETATM   16  H9  UNL     1      25.762   4.426  51.289  1.00  0.00     0.160 HD
ENDROOT
BRANCH  10  17
HETATM   17  N2  UNL     1      25.580   2.251  51.140  1.00  0.00    -0.339 N 
HETATM   18  H10 UNL     1      26.275   2.480  50.375  1.00  0.00     0.167 HD
BRANCH  17  19
HETATM   19  C11 UNL     1      26.074   1.396  52.175  1.00  0.00     0.033 A 
HETATM   20  C12 UNL     1      26.587   0.149  51.912  1.00  0.00     0.029 A 
HETATM   21  C13 UNL     1      27.091  -0.709  52.873  1.00  0.00     0.002 A 
HETATM   22  C14 UNL     1      27.087  -0.304  54.188  1.00  0.00     0.000 A 
HETATM   23  C15 UNL     1      26.589   0.933  54.527  1.00  0.00     0.002 A 
HETATM   24  C16 UNL     1      26.091   1.761  53.519  1.00  0.00     0.029 A 
ENDBRANCH  17  19
ENDBRANCH  10  17
BRANCH   5  25
HETATM   25  S1  UNL     1      25.492   8.534  49.277  1.00  0.00     0.026 SA
BRANCH  25  26
HETATM   26  O2  UNL     1      26.069   9.517  50.577  1.00  0.00    -0.325 OA
HETATM   27  H5  UNL     1      26.864   9.081  51.009  1.00  0.00     0.228 HD
ENDBRANCH  25  26
ENDBRANCH   5  25
BRANCH   1  28
HETATM   28  O1  UNL     1      20.335   9.259  49.331  1.00  0.00    -0.356 OA
HETATM   29  C1  UNL     1      19.222   8.564  48.839  1.00  0.00     0.210 C 
ENDBRANCH   1  28
TORSDOF 5
ENDMDL
MODEL 9
REMARK VINA RESULT:      -7.2      5.558      7.564
REMARK  5 active torsions:
REMARK  status: ('A' for Active; 'I' for Inactive)
REMARK    1  A    between atoms: O1_2  and  C2_3 
REMARK    2  A    between atoms: C6_7  and  S1_8 
REMARK    3  A    between atoms: S1_8  and  O2_9 
REMARK    4  A    between atoms: C10_14  and  N2_15 
REMARK    5  A    between atoms: N2_15  and  C11_16 
ROOT
HETATM    1  C2  UNL     1      23.695   7.300  46.777  1.00  0.00     0.072 A 
HETATM    2  C3  UNL     1      22.804   6.375  47.345  1.00  0.00     0.074 A 
HETATM    3  C4  UNL     1      22.975   5.908  48.635  1.00  0.00     0.090 A 
HETATM    4  C5  UNL     1      24.024   6.324  49.429  1.00  0.00     0.013 A 
HETATM    5  C6  UNL     1      24.913   7.244  48.870  1.00  0.00     0.041 A 
HETATM    6  C7  UNL     1      24.733   7.701  47.586  1.00  0.00     0.058 A 
HETATM    7  C8  UNL     1      24.513   6.064  50.785  1.00  0.00     0.163 C 
HETATM    8  N1  UNL     1      24.053   4.859  51.399  1.00  0.00    -0.379 N 
HETATM    9  C9  UNL     1      23.162   3.854  50.958  1.00  0.00     0.129 A 
HETATM   10  C10 UNL     1      23.332   2.755  51.736  1.00  0.00     0.160 A 
HETATM   11  N3  UNL     1      22.568   1.674  51.465  1.00  0.00    -0.222 NA
HETATM   12  C17 UNL     1      21.678   1.710  50.456  1.00  0.00     0.238 A 
HETATM   13  N4  UNL     1      21.485   2.802  49.658  1.00  0.00    -0.215 NA
HETATM   14  C18 UNL     1      22.251   3.900  49.923  1.00  0.00     0.202 A 
HETATM   15  O3  UNL     1      22.034   4.996  49.093  1.00  0.00    -0.289 OA
HETATM   16  H9  UNL     1      24.463   4.710  52.345  1.00  0.00     0.160 HD
ENDROOT
BRANCH  10  17
HETATM   17  N2  UNL     1      24.225   2.593  52.837  1.00  0.00    -0.339 N 
HETATM   18  H10 UNL     1      24.392   3.217  53.675  1.00  0.00     0.167 HD
BRANCH  17  19
HETATM   19  C11 UNL     1      25.015   1.400  52.799  1.00  0.00     0.033 A 
HETATM   20  C12 UNL     1      26.047   1.234  51.907  1.00  0.00     0.029 A 
HETATM   21  C13 UNL     1      26.849   0.109  51.839  1.00  0.00     0.002 A 
HETATM   22  C14 UNL     1      26.613  -0.925  52.716  1.00  0.00     0.000 A 
HETATM   23  C15 UNL     1      25.597  -0.829  53.638  1.00  0.00     0.002 A 
HETATM   24  C16 UNL     1      24.815   0.328  53.665  1.00  0.00     0.029 A 
ENDBRANCH  17  19
ENDBRANCH  10  17
BRANCH   5  25
HETATM   25  S1  UNL     1      26.363   7.936  49.701  1.00  0.00     0.026 SA
BRANCH  25  26
HETATM   26  O2  UNL     1      27.671   6.881  49.297  1.00  0.00    -0.325 OA
HETATM   27  H5  UNL     1      27.855   6.254  50.060  1.00  0.00     0.228 HD
ENDBRANCH  25  26
ENDBRANCH   5  25
BRANCH   1  28
HETATM   28  O1  UNL     1      23.312   7.605  45.494  1.00  0.00    -0.356 OA
HETATM   29  C1  UNL     1      24.269   7.875  44.507  1.00  0.00     0.210 C 
ENDBRANCH   1  28
TORSDOF 5
ENDMDL
