MODEL 1
REMARK VINA RESULT:      -8.6      0.000      0.000
REMARK  6 active torsions:
REMARK  status: ('A' for Active; 'I' for Inactive)
REMARK    1  A    between atoms: C2_2  and  C3_3 
REMARK       I    between atoms: C3_3  and  N1_5 
REMARK    2  A    between atoms: N1_5  and  C4_6 
REMARK    3  A    between atoms: C4_6  and  C5_7 
REMARK    4  A    between atoms: C5_7  and  C6_8 
REMARK    5  A    between atoms: C5_7  and  C9_11 
REMARK    6  A    between atoms: C10_12  and  C11_13 
ROOT
HETATM    1  C9  UNL     1      23.724   0.718  52.472  1.00  0.00     0.002 A 
HETATM    2  C10 UNL     1      22.819   1.162  51.562  1.00  0.00     0.096 A 
HETATM    3  O2  UNL     1      21.635   0.637  51.880  1.00  0.00    -0.290 OA
HETATM    4  C17 UNL     1      21.703  -0.111  52.924  1.00  0.00     0.183 A 
HETATM    5  N2  UNL     1      20.687  -0.790  53.506  1.00  0.00    -0.217 NA
HETATM    6  C18 UNL     1      20.972  -1.521  54.595  1.00  0.00     0.235 A 
HETATM    7  N3  UNL     1      22.258  -1.539  55.050  1.00  0.00    -0.253 NA
HETATM    8  C19 UNL     1      23.211  -0.849  54.431  1.00  0.00     0.134 A 
HETATM    9  C20 UNL     1      23.001  -0.082  53.320  1.00  0.00     0.044 A 
ENDROOT
BRANCH   1  10
HETATM   10  C5  UNL     1      25.143   1.031  52.514  1.00  0.00     0.062 C 
BRANCH  10  11
HETATM   11  C4  UNL     1      25.498   2.073  53.582  1.00  0.00     0.136 C 
BRANCH  11  12
HETATM   12  N1  UNL     1      26.776   1.745  54.178  1.00  0.00    -0.357 N 
HETATM   13  C3  UNL     1      28.082   1.993  53.708  1.00  0.00     0.237 C 
HETATM   14  O1  UNL     1      28.350   2.570  52.631  1.00  0.00    -0.269 OA
HETATM   15  H4  UNL     1      26.968   1.258  55.110  1.00  0.00     0.162 HD
BRANCH  13  16
HETATM   16  C2  UNL     1      29.387   1.688  54.267  1.00  0.00     0.047 C 
HETATM   17  C1  UNL     1      29.616   0.468  53.760  1.00  0.00     0.037 C 
ENDBRANCH  13  16
ENDBRANCH  11  12
ENDBRANCH  10  11
BRANCH  10  18
HETATM   18  C6  UNL     1      25.971  -0.166  52.928  1.00  0.00    -0.020 C 
HETATM   19  C7  UNL     1      26.491  -1.058  52.094  1.00  0.00    -0.034 C 
HETATM   20  C8  UNL     1      27.269  -2.162  52.685  1.00  0.00     0.036 C 
ENDBRANCH  10  18
ENDBRANCH   1  10
BRANCH   2  21
HETATM   21  C11 UNL     1      22.895   2.024  50.410  1.00  0.00    -0.002 A 
HETATM   22  C12 UNL     1      23.577   3.191  50.235  1.00  0.00     0.014 A 
HETATM   23  C13 UNL     1      23.623   3.999  49.132  1.00  0.00     0.001 A 
HETATM   24  C14 UNL     1      22.905   3.632  48.025  1.00  0.00     0.000 A 
HETATM   25  C15 UNL     1      22.184   2.470  48.102  1.00  0.00     0.001 A 
HETATM   26  C16 UNL     1      22.184   1.709  49.242  1.00  0.00     0.014 A 
ENDBRANCH   2  21
TORSDOF 6
ENDMDL
MODEL 2
REMARK VINA RESULT:      -8.6      2.772      5.427
REMARK  6 active torsions:
REMARK  status: ('A' for Active; 'I' for Inactive)
REMARK    1  A    between atoms: C2_2  and  C3_3 
REMARK       I    between atoms: C3_3  and  N1_5 
REMARK    2  A    between atoms: N1_5  and  C4_6 
REMARK    3  A    between atoms: C4_6  and  C5_7 
REMARK    4  A    between atoms: C5_7  and  C6_8 
REMARK    5  A    between atoms: C5_7  and  C9_11 
REMARK    6  A    between atoms: C10_12  and  C11_13 
ROOT
HETATM    1  C9  UNL     1      25.304   1.961  52.995  1.00  0.00     0.002 A 
HETATM    2  C10 UNL     1      24.471   0.902  53.162  1.00  0.00     0.096 A 
HETATM    3  O2  UNL     1      25.147  -0.045  53.814  1.00  0.00    -0.290 OA
HETATM    4  C17 UNL     1      26.351   0.318  54.082  1.00  0.00     0.183 A 
HETATM    5  N2  UNL     1      27.295  -0.405  54.729  1.00  0.00    -0.217 NA
HETATM    6  C18 UNL     1      28.499   0.161  54.906  1.00  0.00     0.235 A 
HETATM    7  N3  UNL     1      28.703   1.422  54.427  1.00  0.00    -0.253 NA
HETATM    8  C19 UNL     1      27.733   2.079  53.799  1.00  0.00     0.134 A 
HETATM    9  C20 UNL     1      26.482   1.572  53.581  1.00  0.00     0.044 A 
ENDROOT
BRANCH   1  10
HETATM   10  C5  UNL     1      24.995   3.217  52.332  1.00  0.00     0.062 C 
BRANCH  10  11
HETATM   11  C4  UNL     1      25.093   3.130  50.804  1.00  0.00     0.136 C 
BRANCH  11  12
HETATM   12  N1  UNL     1      26.096   4.058  50.326  1.00  0.00    -0.357 N 
HETATM   13  C3  UNL     1      25.994   5.080  49.361  1.00  0.00     0.237 C 
HETATM   14  O1  UNL     1      24.952   5.355  48.726  1.00  0.00    -0.269 OA
HETATM   15  H4  UNL     1      27.115   4.151  50.636  1.00  0.00     0.162 HD
BRANCH  13  16
HETATM   16  C2  UNL     1      26.965   6.034  48.853  1.00  0.00     0.047 C 
HETATM   17  C1  UNL     1      27.972   5.225  48.496  1.00  0.00     0.037 C 
ENDBRANCH  13  16
ENDBRANCH  11  12
ENDBRANCH  10  11
BRANCH  10  18
HETATM   18  C6  UNL     1      23.556   3.630  52.551  1.00  0.00    -0.020 C 
HETATM   19  C7  UNL     1      22.759   4.139  51.619  1.00  0.00    -0.034 C 
HETATM   20  C8  UNL     1      21.384   4.484  52.021  1.00  0.00     0.036 C 
ENDBRANCH  10  18
ENDBRANCH   1  10
BRANCH   2  21
HETATM   21  C11 UNL     1      23.105   0.633  52.794  1.00  0.00    -0.002 A 
HETATM   22  C12 UNL     1      22.533   0.541  51.560  1.00  0.00     0.014 A 
HETATM   23  C13 UNL     1      21.226   0.296  51.237  1.00  0.00     0.001 A 
HETATM   24  C14 UNL     1      20.328   0.109  52.254  1.00  0.00     0.000 A 
HETATM   25  C15 UNL     1      20.806   0.183  53.535  1.00  0.00     0.001 A 
HETATM   26  C16 UNL     1      22.131   0.433  53.785  1.00  0.00     0.014 A 
ENDBRANCH   2  21
TORSDOF 6
ENDMDL
MODEL 3
REMARK VINA RESULT:      -8.5      2.673      6.008
REMARK  6 active torsions:
REMARK  status: ('A' for Active; 'I' for Inactive)
REMARK    1  A    between atoms: C2_2  and  C3_3 
REMARK       I    between atoms: C3_3  and  N1_5 
REMARK    2  A    between atoms: N1_5  and  C4_6 
REMARK    3  A    between atoms: C4_6  and  C5_7 
REMARK    4  A    between atoms: C5_7  and  C6_8 
REMARK    5  A    between atoms: C5_7  and  C9_11 
REMARK    6  A    between atoms: C10_12  and  C11_13 
ROOT
HETATM    1  C9  UNL     1      25.119   1.299  52.830  1.00  0.00     0.002 A 
HETATM    2  C10 UNL     1      24.443   0.340  53.514  1.00  0.00     0.096 A 
HETATM    3  O2  UNL     1      25.314  -0.276  54.314  1.00  0.00    -0.290 OA
HETATM    4  C17 UNL     1      26.500   0.208  54.201  1.00  0.00     0.183 A 
HETATM    5  N2  UNL     1      27.609  -0.190  54.868  1.00  0.00    -0.217 NA
HETATM    6  C18 UNL     1      28.758   0.449  54.600  1.00  0.00     0.235 A 
HETATM    7  N3  UNL     1      28.744   1.456  53.679  1.00  0.00    -0.253 NA
HETATM    8  C19 UNL     1      27.620   1.799  53.059  1.00  0.00     0.134 A 
HETATM    9  C20 UNL     1      26.412   1.198  53.277  1.00  0.00     0.044 A 
ENDROOT
BRANCH   1  10
HETATM   10  C5  UNL     1      24.572   2.213  51.840  1.00  0.00     0.062 C 
BRANCH  10  11
HETATM   11  C4  UNL     1      24.185   3.575  52.430  1.00  0.00     0.136 C 
BRANCH  11  12
HETATM   12  N1  UNL     1      22.748   3.740  52.370  1.00  0.00    -0.357 N 
HETATM   13  C3  UNL     1      21.933   4.187  51.310  1.00  0.00     0.237 C 
HETATM   14  O1  UNL     1      22.359   4.535  50.187  1.00  0.00    -0.269 OA
HETATM   15  H4  UNL     1      22.024   3.534  53.130  1.00  0.00     0.162 HD
BRANCH  13  16
HETATM   16  C2  UNL     1      20.496   4.366  51.200  1.00  0.00     0.047 C 
HETATM   17  C1  UNL     1      20.044   3.400  52.012  1.00  0.00     0.037 C 
ENDBRANCH  13  16
ENDBRANCH  11  12
ENDBRANCH  10  11
BRANCH  10  18
HETATM   18  C6  UNL     1      25.597   2.583  50.790  1.00  0.00    -0.020 C 
HETATM   19  C7  UNL     1      25.816   3.813  50.340  1.00  0.00    -0.034 C 
HETATM   20  C8  UNL     1      26.857   3.980  49.310  1.00  0.00     0.036 C 
ENDBRANCH  10  18
ENDBRANCH   1  10
BRANCH   2  21
HETATM   21  C11 UNL     1      23.071  -0.099  53.533  1.00  0.00    -0.002 A 
HETATM   22  C12 UNL     1      22.034   0.237  52.715  1.00  0.00     0.014 A 
HETATM   23  C13 UNL     1      20.733  -0.186  52.762  1.00  0.00     0.001 A 
HETATM   24  C14 UNL     1      20.371  -1.068  53.745  1.00  0.00     0.000 A 
HETATM   25  C15 UNL     1      21.345  -1.468  54.620  1.00  0.00     0.001 A 
HETATM   26  C16 UNL     1      22.630  -1.002  54.513  1.00  0.00     0.014 A 
ENDBRANCH   2  21
TORSDOF 6
ENDMDL
MODEL 4
REMARK VINA RESULT:      -8.2      2.252      5.437
REMARK  6 active torsions:
REMARK  status: ('A' for Active; 'I' for Inactive)
REMARK    1  A    between atoms: C2_2  and  C3_3 
REMARK       I    between atoms: C3_3  and  N1_5 
REMARK    2  A    between atoms: N1_5  and  C4_6 
REMARK    3  A    between atoms: C4_6  and  C5_7 
REMARK    4  A    between atoms: C5_7  and  C6_8 
REMARK    5  A    between atoms: C5_7  and  C9_11 
REMARK    6  A    between atoms: C10_12  and  C11_13 
ROOT
HETATM    1  C9  UNL     1      24.313   1.086  53.205  1.00  0.00     0.002 A 
HETATM    2  C10 UNL     1      25.058   0.013  53.576  1.00  0.00     0.096 A 
HETATM    3  O2  UNL     1      24.218  -0.980  53.870  1.00  0.00    -0.290 OA
HETATM    4  C17 UNL     1      22.988  -0.635  53.719  1.00  0.00     0.183 A 
HETATM    5  N2  UNL     1      21.894  -1.402  53.933  1.00  0.00    -0.217 NA
HETATM    6  C18 UNL     1      20.693  -0.846  53.717  1.00  0.00     0.235 A 
HETATM    7  N3  UNL     1      20.641   0.451  53.297  1.00  0.00    -0.253 NA
HETATM    8  C19 UNL     1      21.755   1.152  53.105  1.00  0.00     0.134 A 
HETATM    9  C20 UNL     1      23.013   0.657  53.302  1.00  0.00     0.044 A 
ENDROOT
BRANCH   1  10
HETATM   10  C5  UNL     1      24.806   2.393  52.804  1.00  0.00     0.062 C 
BRANCH  10  11
HETATM   11  C4  UNL     1      25.833   2.325  51.666  1.00  0.00     0.136 C 
BRANCH  11  12
HETATM   12  N1  UNL     1      25.877   3.595  50.973  1.00  0.00    -0.357 N 
HETATM   13  C3  UNL     1      26.493   3.937  49.752  1.00  0.00     0.237 C 
HETATM   14  O1  UNL     1      27.142   3.141  49.038  1.00  0.00    -0.269 OA
HETATM   15  H4  UNL     1      25.427   4.522  51.257  1.00  0.00     0.162 HD
BRANCH  13  16
HETATM   16  C2  UNL     1      26.563   5.188  49.018  1.00  0.00     0.047 C 
HETATM   17  C1  UNL     1      25.274   5.555  48.994  1.00  0.00     0.037 C 
ENDBRANCH  13  16
ENDBRANCH  11  12
ENDBRANCH  10  11
BRANCH  10  18
HETATM   18  C6  UNL     1      23.710   3.251  52.212  1.00  0.00    -0.020 C 
HETATM   19  C7  UNL     1      23.328   4.432  52.684  1.00  0.00    -0.034 C 
HETATM   20  C8  UNL     1      22.236   5.122  51.974  1.00  0.00     0.036 C 
ENDBRANCH  10  18
ENDBRANCH   1  10
BRANCH   2  21
HETATM   21  C11 UNL     1      26.472  -0.231  53.701  1.00  0.00    -0.002 A 
HETATM   22  C12 UNL     1      27.290  -1.034  52.964  1.00  0.00     0.014 A 
HETATM   23  C13 UNL     1      28.631  -1.258  53.111  1.00  0.00     0.001 A 
HETATM   24  C14 UNL     1      29.292  -0.611  54.121  1.00  0.00     0.000 A 
HETATM   25  C15 UNL     1      28.556   0.222  54.920  1.00  0.00     0.001 A 
HETATM   26  C16 UNL     1      27.212   0.398  54.714  1.00  0.00     0.014 A 
ENDBRANCH   2  21
TORSDOF 6
ENDMDL
MODEL 5
REMARK VINA RESULT:      -8.2      2.423      6.816
REMARK  6 active torsions:
REMARK  status: ('A' for Active; 'I' for Inactive)
REMARK    1  A    between atoms: C2_2  and  C3_3 
REMARK       I    between atoms: C3_3  and  N1_5 
REMARK    2  A    between atoms: N1_5  and  C4_6 
REMARK    3  A    between atoms: C4_6  and  C5_7 
REMARK    4  A    between atoms: C5_7  and  C6_8 
REMARK    5  A    between atoms: C5_7  and  C9_11 
REMARK    6  A    between atoms: C10_12  and  C11_13 
ROOT
HETATM    1  C9  UNL     1      24.914   2.470  50.886  1.00  0.00     0.002 A 
HETATM    2  C10 UNL     1      26.214   2.219  51.191  1.00  0.00     0.096 A 
HETATM    3  O2  UNL     1      26.955   3.161  50.607  1.00  0.00    -0.290 OA
HETATM    4  C17 UNL     1      26.238   4.002  49.949  1.00  0.00     0.183 A 
HETATM    5  N2  UNL     1      26.677   5.071  49.245  1.00  0.00    -0.217 NA
HETATM    6  C18 UNL     1      25.758   5.826  48.624  1.00  0.00     0.235 A 
HETATM    7  N3  UNL     1      24.444   5.476  48.735  1.00  0.00    -0.253 NA
HETATM    8  C19 UNL     1      24.078   4.412  49.443  1.00  0.00     0.134 A 
HETATM    9  C20 UNL     1      24.952   3.596  50.103  1.00  0.00     0.044 A 
ENDROOT
BRANCH   1  10
HETATM   10  C5  UNL     1      23.756   1.697  51.304  1.00  0.00     0.062 C 
BRANCH  10  11
HETATM   11  C4  UNL     1      23.245   2.084  52.697  1.00  0.00     0.136 C 
BRANCH  11  12
HETATM   12  N1  UNL     1      22.909   0.889  53.442  1.00  0.00    -0.357 N 
HETATM   13  C3  UNL     1      21.649   0.308  53.696  1.00  0.00     0.237 C 
HETATM   14  O1  UNL     1      20.560   0.772  53.292  1.00  0.00    -0.269 OA
HETATM   15  H4  UNL     1      23.568   0.205  53.932  1.00  0.00     0.162 HD
BRANCH  13  16
HETATM   16  C2  UNL     1      21.262  -0.884  54.430  1.00  0.00     0.047 C 
HETATM   17  C1  UNL     1      22.402  -1.189  55.065  1.00  0.00     0.037 C 
ENDBRANCH  13  16
ENDBRANCH  11  12
ENDBRANCH  10  11
BRANCH  10  18
HETATM   18  C6  UNL     1      22.555   1.962  50.423  1.00  0.00    -0.020 C 
HETATM   19  C7  UNL     1      21.785   1.025  49.883  1.00  0.00    -0.034 C 
HETATM   20  C8  UNL     1      20.657   1.476  49.048  1.00  0.00     0.036 C 
ENDBRANCH  10  18
ENDBRANCH   1  10
BRANCH   2  21
HETATM   21  C11 UNL     1      26.885   1.205  51.964  1.00  0.00    -0.002 A 
HETATM   22  C12 UNL     1      26.690  -0.143  51.995  1.00  0.00     0.014 A 
HETATM   23  C13 UNL     1      27.334  -1.085  52.749  1.00  0.00     0.001 A 
HETATM   24  C14 UNL     1      28.319  -0.671  53.606  1.00  0.00     0.000 A 
HETATM   25  C15 UNL     1      28.591   0.670  53.648  1.00  0.00     0.001 A 
HETATM   26  C16 UNL     1      27.903   1.559  52.862  1.00  0.00     0.014 A 
ENDBRANCH   2  21
TORSDOF 6
ENDMDL
MODEL 6
REMARK VINA RESULT:      -7.9      1.626      2.367
REMARK  6 active torsions:
REMARK  status: ('A' for Active; 'I' for Inactive)
REMARK    1  A    between atoms: C2_2  and  C3_3 
REMARK       I    between atoms: C3_3  and  N1_5 
REMARK    2  A    between atoms: N1_5  and  C4_6 
REMARK    3  A    between atoms: C4_6  and  C5_7 
REMARK    4  A    between atoms: C5_7  and  C6_8 
REMARK    5  A    between atoms: C5_7  and  C9_11 
REMARK    6  A    between atoms: C10_12  and  C11_13 
ROOT
HETATM    1  C9  UNL     1      23.345   1.171  52.970  1.00  0.00     0.002 A 
HETATM    2  C10 UNL     1      22.433   1.930  52.309  1.00  0.00     0.096 A 
HETATM    3  O2  UNL     1      21.236   1.372  52.490  1.00  0.00    -0.290 OA
HETATM    4  C17 UNL     1      21.300   0.313  53.216  1.00  0.00     0.183 A 
HETATM    5  N2  UNL     1      20.271  -0.485  53.586  1.00  0.00    -0.217 NA
HETATM    6  C18 UNL     1      20.554  -1.551  54.350  1.00  0.00     0.235 A 
HETATM    7  N3  UNL     1      21.853  -1.770  54.707  1.00  0.00    -0.253 NA
HETATM    8  C19 UNL     1      22.819  -0.947  54.310  1.00  0.00     0.134 A 
HETATM    9  C20 UNL     1      22.610   0.158  53.534  1.00  0.00     0.044 A 
ENDROOT
BRANCH   1  10
HETATM   10  C5  UNL     1      24.779   1.397  53.044  1.00  0.00     0.062 C 
BRANCH  10  11
HETATM   11  C4  UNL     1      25.561   0.159  53.500  1.00  0.00     0.136 C 
BRANCH  11  12
HETATM   12  N1  UNL     1      26.963   0.324  53.183  1.00  0.00    -0.357 N 
HETATM   13  C3  UNL     1      28.101   0.139  53.995  1.00  0.00     0.237 C 
HETATM   14  O1  UNL     1      28.066  -0.215  55.194  1.00  0.00    -0.269 OA
HETATM   15  H4  UNL     1      27.405   0.607  52.250  1.00  0.00     0.162 HD
BRANCH  13  16
HETATM   16  C2  UNL     1      29.520   0.288  53.724  1.00  0.00     0.047 C 
HETATM   17  C1  UNL     1      29.867  -0.969  53.418  1.00  0.00     0.037 C 
ENDBRANCH  13  16
ENDBRANCH  11  12
ENDBRANCH  10  11
BRANCH  10  18
HETATM   18  C6  UNL     1      25.374   1.684  51.682  1.00  0.00    -0.020 C 
HETATM   19  C7  UNL     1      25.945   2.829  51.327  1.00  0.00    -0.034 C 
HETATM   20  C8  UNL     1      26.467   2.924  49.952  1.00  0.00     0.036 C 
ENDBRANCH  10  18
ENDBRANCH   1  10
BRANCH   2  21
HETATM   21  C11 UNL     1      22.515   3.127  51.512  1.00  0.00    -0.002 A 
HETATM   22  C12 UNL     1      22.458   3.283  50.160  1.00  0.00     0.014 A 
HETATM   23  C13 UNL     1      22.550   4.434  49.425  1.00  0.00     0.001 A 
HETATM   24  C14 UNL     1      22.722   5.619  50.089  1.00  0.00     0.000 A 
HETATM   25  C15 UNL     1      22.792   5.567  51.456  1.00  0.00     0.001 A 
HETATM   26  C16 UNL     1      22.692   4.376  52.127  1.00  0.00     0.014 A 
ENDBRANCH   2  21
TORSDOF 6
ENDMDL
MODEL 7
REMARK VINA RESULT:      -7.8      1.562      2.547
REMARK  6 active torsions:
REMARK  status: ('A' for Active; 'I' for Inactive)
REMARK    1  A    between atoms: C2_2  and  C3_3 
REMARK       I    between atoms: C3_3  and  N1_5 
REMARK    2  A    between atoms: N1_5  and  C4_6 
REMARK    3  A    between atoms: C4_6  and  C5_7 
REMARK    4  A    between atoms: C5_7  and  C6_8 
REMARK    5  A    between atoms: C5_7  and  C9_11 
REMARK    6  A    between atoms: C10_12  and  C11_13 
ROOT
HETATM    1  C9  UNL     1      23.423   0.972  51.941  1.00  0.00     0.002 A 
HETATM    2  C10 UNL     1      22.388   1.436  51.194  1.00  0.00     0.096 A 
HETATM    3  O2  UNL     1      21.265   0.919  51.694  1.00  0.00    -0.290 OA
HETATM    4  C17 UNL     1      21.491   0.157  52.704  1.00  0.00     0.183 A 
HETATM    5  N2  UNL     1      20.575  -0.519  53.436  1.00  0.00    -0.217 NA
HETATM    6  C18 UNL     1      21.023  -1.266  54.456  1.00  0.00     0.235 A 
HETATM    7  N3  UNL     1      22.366  -1.303  54.696  1.00  0.00    -0.253 NA
HETATM    8  C19 UNL     1      23.214  -0.615  53.939  1.00  0.00     0.134 A 
HETATM    9  C20 UNL     1      22.836   0.168  52.885  1.00  0.00     0.044 A 
ENDROOT
BRANCH   1  10
HETATM   10  C5  UNL     1      24.833   1.269  51.755  1.00  0.00     0.062 C 
BRANCH  10  11
HETATM   11  C4  UNL     1      25.269   2.570  52.442  1.00  0.00     0.136 C 
BRANCH  11  12
HETATM   12  N1  UNL     1      25.390   3.624  51.457  1.00  0.00    -0.357 N 
HETATM   13  C3  UNL     1      26.163   3.673  50.277  1.00  0.00     0.237 C 
HETATM   14  O1  UNL     1      26.912   2.753  49.882  1.00  0.00    -0.269 OA
HETATM   15  H4  UNL     1      24.894   4.570  51.432  1.00  0.00     0.162 HD
BRANCH  13  16
HETATM   16  C2  UNL     1      26.315   4.699  49.261  1.00  0.00     0.047 C 
HETATM   17  C1  UNL     1      25.385   5.588  49.637  1.00  0.00     0.037 C 
ENDBRANCH  13  16
ENDBRANCH  11  12
ENDBRANCH  10  11
BRANCH  10  18
HETATM   18  C6  UNL     1      25.718   0.233  52.413  1.00  0.00    -0.020 C 
HETATM   19  C7  UNL     1      27.046   0.259  52.422  1.00  0.00    -0.034 C 
HETATM   20  C8  UNL     1      27.738  -0.843  53.114  1.00  0.00     0.036 C 
ENDBRANCH  10  18
ENDBRANCH   1  10
BRANCH   2  21
HETATM   21  C11 UNL     1      22.287   2.312  50.055  1.00  0.00    -0.002 A 
HETATM   22  C12 UNL     1      22.103   3.662  50.002  1.00  0.00     0.014 A 
HETATM   23  C13 UNL     1      21.998   4.471  48.904  1.00  0.00     0.001 A 
HETATM   24  C14 UNL     1      22.085   3.898  47.663  1.00  0.00     0.000 A 
HETATM   25  C15 UNL     1      22.271   2.542  47.609  1.00  0.00     0.001 A 
HETATM   26  C16 UNL     1      22.366   1.793  48.753  1.00  0.00     0.014 A 
ENDBRANCH   2  21
TORSDOF 6
ENDMDL
MODEL 8
REMARK VINA RESULT:      -7.7      1.930      5.413
REMARK  6 active torsions:
REMARK  status: ('A' for Active; 'I' for Inactive)
REMARK    1  A    between atoms: C2_2  and  C3_3 
REMARK       I    between atoms: C3_3  and  N1_5 
REMARK    2  A    between atoms: N1_5  and  C4_6 
REMARK    3  A    between atoms: C4_6  and  C5_7 
REMARK    4  A    between atoms: C5_7  and  C6_8 
REMARK    5  A    between atoms: C5_7  and  C9_11 
REMARK    6  A    between atoms: C10_12  and  C11_13 
ROOT
HETATM    1  C9  UNL     1      25.104   1.617  51.617  1.00  0.00     0.002 A 
HETATM    2  C10 UNL     1      26.012   2.558  51.250  1.00  0.00     0.096 A 
HETATM    3  O2  UNL     1      27.194   2.196  51.752  1.00  0.00    -0.290 OA
HETATM    4  C17 UNL     1      27.122   1.096  52.414  1.00  0.00     0.183 A 
HETATM    5  N2  UNL     1      28.134   0.459  53.048  1.00  0.00    -0.217 NA
HETATM    6  C18 UNL     1      27.845  -0.684  53.688  1.00  0.00     0.235 A 
HETATM    7  N3  UNL     1      26.558  -1.135  53.666  1.00  0.00    -0.253 NA
HETATM    8  C19 UNL     1      25.608  -0.461  53.025  1.00  0.00     0.134 A 
HETATM    9  C20 UNL     1      25.823   0.707  52.349  1.00  0.00     0.044 A 
ENDROOT
BRANCH   1  10
HETATM   10  C5  UNL     1      23.686   1.604  51.298  1.00  0.00     0.062 C 
BRANCH  10  11
HETATM   11  C4  UNL     1      22.811   2.166  52.425  1.00  0.00     0.136 C 
BRANCH  11  12
HETATM   12  N1  UNL     1      22.427   1.098  53.322  1.00  0.00    -0.357 N 
HETATM   13  C3  UNL     1      21.438   0.104  53.172  1.00  0.00     0.237 C 
HETATM   14  O1  UNL     1      20.691  -0.008  52.176  1.00  0.00    -0.269 OA
HETATM   15  H4  UNL     1      22.841   0.850  54.276  1.00  0.00     0.162 HD
BRANCH  13  16
HETATM   16  C2  UNL     1      21.019  -0.985  54.038  1.00  0.00     0.047 C 
HETATM   17  C1  UNL     1      22.060  -1.076  54.876  1.00  0.00     0.037 C 
ENDBRANCH  13  16
ENDBRANCH  11  12
ENDBRANCH  10  11
BRANCH  10  18
HETATM   18  C6  UNL     1      23.362   2.518  50.136  1.00  0.00    -0.020 C 
HETATM   19  C7  UNL     1      22.751   2.142  49.019  1.00  0.00    -0.034 C 
HETATM   20  C8  UNL     1      22.522   3.176  47.994  1.00  0.00     0.036 C 
ENDBRANCH  10  18
ENDBRANCH   1  10
BRANCH   2  21
HETATM   21  C11 UNL     1      25.941   3.775  50.482  1.00  0.00    -0.002 A 
HETATM   22  C12 UNL     1      25.082   4.827  50.589  1.00  0.00     0.014 A 
HETATM   23  C13 UNL     1      25.028   5.969  49.837  1.00  0.00     0.001 A 
HETATM   24  C14 UNL     1      25.939   6.128  48.827  1.00  0.00     0.000 A 
HETATM   25  C15 UNL     1      26.849   5.121  48.639  1.00  0.00     0.001 A 
HETATM   26  C16 UNL     1      26.844   4.003  49.432  1.00  0.00     0.014 A 
ENDBRANCH   2  21
TORSDOF 6
ENDMDL
MODEL 9
REMARK VINA RESULT:      -7.7      2.162      3.322
REMARK  6 active torsions:
REMARK  status: ('A' for Active; 'I' for Inactive)
REMARK    1  A    between atoms: C2_2  and  C3_3 
REMARK       I    between atoms: C3_3  and  N1_5 
REMARK    2  A    between atoms: N1_5  and  C4_6 
REMARK    3  A    between atoms: C4_6  and  C5_7 
REMARK    4  A    between atoms: C5_7  and  C6_8 
REMARK    5  A    between atoms: C5_7  and  C9_11 
REMARK    6  A    between atoms: C10_12  and  C11_13 
ROOT
HETATM    1  C9  UNL     1      23.090   1.904  51.192  1.00  0.00     0.002 A 
HETATM    2  C10 UNL     1      23.340   2.757  50.165  1.00  0.00     0.096 A 
HETATM    3  O2  UNL     1      22.247   2.804  49.403  1.00  0.00    -0.290 OA
HETATM    4  C17 UNL     1      21.309   2.049  49.855  1.00  0.00     0.183 A 
HETATM    5  N2  UNL     1      20.079   1.869  49.320  1.00  0.00    -0.217 NA
HETATM    6  C18 UNL     1      19.244   1.029  49.951  1.00  0.00     0.235 A 
HETATM    7  N3  UNL     1      19.678   0.410  51.086  1.00  0.00    -0.253 NA
HETATM    8  C19 UNL     1      20.900   0.630  51.561  1.00  0.00     0.134 A 
HETATM    9  C20 UNL     1      21.806   1.469  50.977  1.00  0.00     0.044 A 
ENDROOT
BRANCH   1  10
HETATM   10  C5  UNL     1      24.000   1.542  52.266  1.00  0.00     0.062 C 
BRANCH  10  11
HETATM   11  C4  UNL     1      24.482   2.750  53.079  1.00  0.00     0.136 C 
BRANCH  11  12
HETATM   12  N1  UNL     1      25.919   2.873  52.964  1.00  0.00    -0.357 N 
HETATM   13  C3  UNL     1      26.942   2.183  53.647  1.00  0.00     0.237 C 
HETATM   14  O1  UNL     1      26.747   1.306  54.517  1.00  0.00    -0.269 OA
HETATM   15  H4  UNL     1      26.482   3.510  52.315  1.00  0.00     0.162 HD
BRANCH  13  16
HETATM   16  C2  UNL     1      28.390   2.267  53.566  1.00  0.00     0.047 C 
HETATM   17  C1  UNL     1      28.759   1.144  54.196  1.00  0.00     0.037 C 
ENDBRANCH  13  16
ENDBRANCH  11  12
ENDBRANCH  10  11
BRANCH  10  18
HETATM   18  C6  UNL     1      23.323   0.684  53.312  1.00  0.00    -0.020 C 
HETATM   19  C7  UNL     1      23.773  -0.487  53.745  1.00  0.00    -0.034 C 
HETATM   20  C8  UNL     1      22.974  -1.181  54.770  1.00  0.00     0.036 C 
ENDBRANCH  10  18
ENDBRANCH   1  10
BRANCH   2  21
HETATM   21  C11 UNL     1      24.476   3.554  49.778  1.00  0.00    -0.002 A 
HETATM   22  C12 UNL     1      24.554   4.885  49.492  1.00  0.00     0.014 A 
HETATM   23  C13 UNL     1      25.646   5.618  49.114  1.00  0.00     0.001 A 
HETATM   24  C14 UNL     1      26.850   4.977  48.992  1.00  0.00     0.000 A 
HETATM   25  C15 UNL     1      26.876   3.634  49.259  1.00  0.00     0.001 A 
HETATM   26  C16 UNL     1      25.740   2.962  49.633  1.00  0.00     0.014 A 
ENDBRANCH   2  21
TORSDOF 6
ENDMDL
