MODEL 1
REMARK VINA RESULT:      -7.3      0.000      0.000
REMARK  3 active torsions:
REMARK  status: ('A' for Active; 'I' for Inactive)
REMARK    1  A    between atoms: C2_2  and  C3_3 
REMARK       I    between atoms: C3_3  and  N1_5 
REMARK    2  A    between atoms: N1_5  and  C4_6 
REMARK    3  A    between atoms: C12_17  and  S1_18 
ROOT
HETATM    1  C4  UNL     1      27.041   1.516  53.402  1.00  0.00     0.052 C 
HETATM    2  C5  UNL     1      25.808   1.837  53.611  1.00  0.00     0.031 C 
HETATM    3  C6  UNL     1      24.496   1.897  53.053  1.00  0.00     0.000 C 
HETATM    4  C7  UNL     1      23.851   1.569  51.969  1.00  0.00    -0.000 C 
HETATM    5  C8  UNL     1      22.579   1.549  51.209  1.00  0.00     0.205 C 
HETATM    6  O2  UNL     1      22.875   2.251  50.003  1.00  0.00    -0.329 OA
HETATM    7  C9  UNL     1      23.369   3.503  49.906  1.00  0.00     0.202 A 
HETATM    8  N2  UNL     1      24.477   2.837  50.250  1.00  0.00    -0.038 NA
HETATM    9  C10 UNL     1      25.655   3.368  50.417  1.00  0.00     0.719 A 
HETATM   10  N3  UNL     1      25.696   4.681  50.211  1.00  0.00    -0.074 NA
HETATM   11  C11 UNL     1      24.649   5.432  49.865  1.00  0.00     0.159 A 
HETATM   12  C12 UNL     1      23.423   4.840  49.701  1.00  0.00     0.072 A 
HETATM   13  N4  UNL     1      26.844   2.711  50.841  1.00  0.00    -0.224 NA
HETATM   14  C14 UNL     1      26.993   2.141  52.016  1.00  0.00     0.355 C 
ENDROOT
BRANCH   1  15
HETATM   15  N1  UNL     1      28.396   1.200  53.287  1.00  0.00    -0.336 N 
HETATM   16  C3  UNL     1      28.646  -0.121  53.771  1.00  0.00     0.137 C 
HETATM   17  O1  UNL     1      27.499  -0.557  54.145  1.00  0.00    -0.287 OA
HETATM   18  H4  UNL     1      29.136   1.823  52.912  1.00  0.00     0.168 HD
BRANCH  16  19
HETATM   19  C2  UNL     1      29.998  -0.719  53.773  1.00  0.00     0.046 C 
HETATM   20  C1  UNL     1      29.381  -1.823  53.332  1.00  0.00     0.176 C 
ENDBRANCH  16  19
ENDBRANCH   1  15
BRANCH  12  21
HETATM   21  S1  UNL     1      21.721   5.180  49.295  1.00  0.00    -0.129 SA
HETATM   22  C13 UNL     1      20.694   4.930  50.791  1.00  0.00     0.096 C 
ENDBRANCH  12  21
TORSDOF 3
ENDMDL
MODEL 2
REMARK VINA RESULT:      -7.2      1.930      2.212
REMARK  3 active torsions:
REMARK  status: ('A' for Active; 'I' for Inactive)
REMARK    1  A    between atoms: C2_2  and  C3_3 
REMARK       I    between atoms: C3_3  and  N1_5 
REMARK    2  A    between atoms: N1_5  and  C4_6 
REMARK    3  A    between atoms: C12_17  and  S1_18 
ROOT
HETATM    1  C4  UNL     1      26.317  -0.660  53.519  1.00  0.00     0.052 C 
HETATM    2  C5  UNL     1      25.168  -0.466  54.076  1.00  0.00     0.031 C 
HETATM    3  C6  UNL     1      23.765  -0.317  53.861  1.00  0.00     0.000 C 
HETATM    4  C7  UNL     1      22.887  -0.365  52.900  1.00  0.00    -0.000 C 
HETATM    5  C8  UNL     1      21.476  -0.236  52.464  1.00  0.00     0.205 C 
HETATM    6  O2  UNL     1      21.506   0.781  51.465  1.00  0.00    -0.329 OA
HETATM    7  C9  UNL     1      21.987   2.034  51.610  1.00  0.00     0.202 A 
HETATM    8  N2  UNL     1      23.132   1.351  51.503  1.00  0.00    -0.038 NA
HETATM    9  C10 UNL     1      24.326   1.870  51.546  1.00  0.00     0.719 A 
HETATM   10  N3  UNL     1      24.342   3.190  51.707  1.00  0.00    -0.074 NA
HETATM   11  C11 UNL     1      23.257   3.958  51.822  1.00  0.00     0.159 A 
HETATM   12  C12 UNL     1      22.016   3.376  51.776  1.00  0.00     0.072 A 
HETATM   13  N4  UNL     1      25.568   1.177  51.498  1.00  0.00    -0.224 NA
HETATM   14  C14 UNL     1      25.968   0.316  52.407  1.00  0.00     0.355 C 
ENDROOT
BRANCH   1  15
HETATM   15  N1  UNL     1      27.605  -0.870  53.025  1.00  0.00    -0.336 N 
HETATM   16  C3  UNL     1      28.580  -0.590  54.032  1.00  0.00     0.137 C 
HETATM   17  O1  UNL     1      27.899  -0.240  55.062  1.00  0.00    -0.287 OA
HETATM   18  H4  UNL     1      27.846  -1.179  52.064  1.00  0.00     0.168 HD
BRANCH  16  19
HETATM   19  C2  UNL     1      30.032  -0.724  53.786  1.00  0.00     0.046 C 
HETATM   20  C1  UNL     1      29.721  -1.942  53.322  1.00  0.00     0.176 C 
ENDBRANCH  16  19
ENDBRANCH   1  15
BRANCH  12  21
HETATM   21  S1  UNL     1      20.273   3.736  51.867  1.00  0.00    -0.129 SA
HETATM   22  C13 UNL     1      19.793   4.717  50.396  1.00  0.00     0.096 C 
ENDBRANCH  12  21
TORSDOF 3
ENDMDL
MODEL 3
REMARK VINA RESULT:      -7.0      3.634      7.221
REMARK  3 active torsions:
REMARK  status: ('A' for Active; 'I' for Inactive)
REMARK    1  A    between atoms: C2_2  and  C3_3 
REMARK       I    between atoms: C3_3  and  N1_5 
REMARK    2  A    between atoms: N1_5  and  C4_6 
REMARK    3  A    between atoms: C12_17  and  S1_18 
ROOT
HETATM    1  C4  UNL     1      21.500   1.138  52.607  1.00  0.00     0.052 C 
HETATM    2  C5  UNL     1      22.439   2.022  52.666  1.00  0.00     0.031 C 
HETATM    3  C6  UNL     1      23.793   2.326  52.336  1.00  0.00     0.000 C 
HETATM    4  C7  UNL     1      24.810   1.814  51.704  1.00  0.00    -0.000 C 
HETATM    5  C8  UNL     1      26.224   1.928  51.274  1.00  0.00     0.205 C 
HETATM    6  O2  UNL     1      26.858   0.777  51.827  1.00  0.00    -0.329 OA
HETATM    7  C9  UNL     1      26.872   0.417  53.127  1.00  0.00     0.202 A 
HETATM    8  N2  UNL     1      25.629   0.054  52.795  1.00  0.00    -0.038 NA
HETATM    9  C10 UNL     1      24.761  -0.488  53.601  1.00  0.00     0.719 A 
HETATM   10  N3  UNL     1      25.208  -0.674  54.839  1.00  0.00    -0.074 NA
HETATM   11  C11 UNL     1      26.429  -0.348  55.267  1.00  0.00     0.159 A 
HETATM   12  C12 UNL     1      27.315   0.225  54.391  1.00  0.00     0.072 A 
HETATM   13  N4  UNL     1      23.411  -0.832  53.308  1.00  0.00    -0.224 NA
HETATM   14  C14 UNL     1      22.482   0.038  52.979  1.00  0.00     0.355 C 
ENDROOT
BRANCH   1  15
HETATM   15  N1  UNL     1      20.415   0.259  52.596  1.00  0.00    -0.336 N 
HETATM   16  C3  UNL     1      19.502   0.602  51.552  1.00  0.00     0.137 C 
HETATM   17  O1  UNL     1      20.026   1.625  50.980  1.00  0.00    -0.287 OA
HETATM   18  H4  UNL     1      20.268  -0.535  53.248  1.00  0.00     0.168 HD
BRANCH  16  19
HETATM   19  C2  UNL     1      18.258  -0.158  51.307  1.00  0.00     0.046 C 
HETATM   20  C1  UNL     1      18.434  -0.618  52.553  1.00  0.00     0.176 C 
ENDBRANCH  16  19
ENDBRANCH   1  15
BRANCH  12  21
HETATM   21  S1  UNL     1      28.968   0.879  54.265  1.00  0.00    -0.129 SA
HETATM   22  C13 UNL     1      30.055  -0.396  53.525  1.00  0.00     0.096 C 
ENDBRANCH  12  21
TORSDOF 3
ENDMDL
MODEL 4
REMARK VINA RESULT:      -6.6      2.201      3.138
REMARK  3 active torsions:
REMARK  status: ('A' for Active; 'I' for Inactive)
REMARK    1  A    between atoms: C2_2  and  C3_3 
REMARK       I    between atoms: C3_3  and  N1_5 
REMARK    2  A    between atoms: N1_5  and  C4_6 
REMARK    3  A    between atoms: C12_17  and  S1_18 
ROOT
HETATM    1  C4  UNL     1      26.721   1.011  52.016  1.00  0.00     0.052 C 
HETATM    2  C5  UNL     1      26.190   1.871  51.213  1.00  0.00     0.031 C 
HETATM    3  C6  UNL     1      25.237   2.924  51.077  1.00  0.00     0.000 C 
HETATM    4  C7  UNL     1      24.402   3.620  51.795  1.00  0.00    -0.000 C 
HETATM    5  C8  UNL     1      23.367   4.679  51.866  1.00  0.00     0.205 C 
HETATM    6  O2  UNL     1      22.222   4.021  52.404  1.00  0.00    -0.329 OA
HETATM    7  C9  UNL     1      21.622   2.920  51.905  1.00  0.00     0.202 A 
HETATM    8  N2  UNL     1      22.695   2.365  52.480  1.00  0.00    -0.038 NA
HETATM    9  C10 UNL     1      22.974   1.093  52.485  1.00  0.00     0.719 A 
HETATM   10  N3  UNL     1      22.081   0.335  51.855  1.00  0.00    -0.074 NA
HETATM   11  C11 UNL     1      20.981   0.793  51.254  1.00  0.00     0.159 A 
HETATM   12  C12 UNL     1      20.721   2.139  51.265  1.00  0.00     0.072 A 
HETATM   13  N4  UNL     1      24.132   0.467  53.028  1.00  0.00    -0.224 NA
HETATM   14  C14 UNL     1      25.356   0.680  52.599  1.00  0.00     0.355 C 
ENDROOT
BRANCH   1  15
HETATM   15  N1  UNL     1      27.363   0.048  52.796  1.00  0.00    -0.336 N 
HETATM   16  C3  UNL     1      28.555   0.583  53.374  1.00  0.00     0.137 C 
HETATM   17  O1  UNL     1      28.606   1.796  52.958  1.00  0.00    -0.287 OA
HETATM   18  H4  UNL     1      27.042  -0.928  52.945  1.00  0.00     0.168 HD
BRANCH  16  19
HETATM   19  C2  UNL     1      29.440  -0.217  54.247  1.00  0.00     0.046 C 
HETATM   20  C1  UNL     1      29.289  -1.175  53.322  1.00  0.00     0.176 C 
ENDBRANCH  16  19
ENDBRANCH   1  15
BRANCH  12  21
HETATM   21  S1  UNL     1      19.557   3.367  50.707  1.00  0.00    -0.129 SA
HETATM   22  C13 UNL     1      20.339   4.370  49.389  1.00  0.00     0.096 C 
ENDBRANCH  12  21
TORSDOF 3
ENDMDL
MODEL 5
REMARK VINA RESULT:      -6.4      2.086      3.258
REMARK  3 active torsions:
REMARK  status: ('A' for Active; 'I' for Inactive)
REMARK    1  A    between atoms: C2_2  and  C3_3 
REMARK       I    between atoms: C3_3  and  N1_5 
REMARK    2  A    between atoms: N1_5  and  C4_6 
REMARK    3  A    between atoms: C12_17  and  S1_18 
ROOT
HETATM    1  C4  UNL     1      26.561   1.928  51.590  1.00  0.00     0.052 C 
HETATM    2  C5  UNL     1      26.520   2.626  50.505  1.00  0.00     0.031 C 
HETATM    3  C6  UNL     1      25.850   3.671  49.802  1.00  0.00     0.000 C 
HETATM    4  C7  UNL     1      24.892   4.538  49.968  1.00  0.00    -0.000 C 
HETATM    5  C8  UNL     1      24.064   5.635  49.413  1.00  0.00     0.205 C 
HETATM    6  O2  UNL     1      22.725   5.157  49.517  1.00  0.00    -0.329 OA
HETATM    7  C9  UNL     1      22.243   4.005  49.004  1.00  0.00     0.202 A 
HETATM    8  N2  UNL     1      22.907   3.533  50.064  1.00  0.00    -0.038 NA
HETATM    9  C10 UNL     1      22.994   2.278  50.403  1.00  0.00     0.719 A 
HETATM   10  N3  UNL     1      22.345   1.448  49.591  1.00  0.00    -0.074 NA
HETATM   11  C11 UNL     1      21.654   1.821  48.512  1.00  0.00     0.159 A 
HETATM   12  C12 UNL     1      21.588   3.151  48.184  1.00  0.00     0.072 A 
HETATM   13  N4  UNL     1      23.738   1.726  51.483  1.00  0.00    -0.224 NA
HETATM   14  C14 UNL     1      25.047   1.788  51.585  1.00  0.00     0.355 C 
ENDROOT
BRANCH   1  15
HETATM   15  N1  UNL     1      26.700   1.119  52.720  1.00  0.00    -0.336 N 
HETATM   16  C3  UNL     1      27.944   1.378  53.373  1.00  0.00     0.137 C 
HETATM   17  O1  UNL     1      28.502   2.293  52.667  1.00  0.00    -0.287 OA
HETATM   18  H4  UNL     1      26.013   0.417  53.054  1.00  0.00     0.168 HD
BRANCH  16  19
HETATM   19  C2  UNL     1      28.359   0.662  54.598  1.00  0.00     0.046 C 
HETATM   20  C1  UNL     1      29.341   0.166  53.832  1.00  0.00     0.176 C 
ENDBRANCH  16  19
ENDBRANCH   1  15
BRANCH  12  21
HETATM   21  S1  UNL     1      20.921   4.289  46.986  1.00  0.00    -0.129 SA
HETATM   22  C13 UNL     1      21.714   3.974  45.365  1.00  0.00     0.096 C 
ENDBRANCH  12  21
TORSDOF 3
ENDMDL
MODEL 6
REMARK VINA RESULT:      -6.4      4.118      6.481
REMARK  3 active torsions:
REMARK  status: ('A' for Active; 'I' for Inactive)
REMARK    1  A    between atoms: C2_2  and  C3_3 
REMARK       I    between atoms: C3_3  and  N1_5 
REMARK    2  A    between atoms: N1_5  and  C4_6 
REMARK    3  A    between atoms: C12_17  and  S1_18 
ROOT
HETATM    1  C4  UNL     1      20.026   0.398  51.571  1.00  0.00     0.052 C 
HETATM    2  C5  UNL     1      21.239   0.635  51.198  1.00  0.00     0.031 C 
HETATM    3  C6  UNL     1      22.440   1.352  51.481  1.00  0.00     0.000 C 
HETATM    4  C7  UNL     1      22.942   2.153  52.378  1.00  0.00    -0.000 C 
HETATM    5  C8  UNL     1      24.080   2.982  52.843  1.00  0.00     0.205 C 
HETATM    6  O2  UNL     1      23.537   4.295  52.961  1.00  0.00    -0.329 OA
HETATM    7  C9  UNL     1      22.914   4.995  51.991  1.00  0.00     0.202 A 
HETATM    8  N2  UNL     1      21.941   4.142  52.328  1.00  0.00    -0.038 NA
HETATM    9  C10 UNL     1      20.756   4.097  51.789  1.00  0.00     0.719 A 
HETATM   10  N3  UNL     1      20.557   5.000  50.834  1.00  0.00    -0.074 NA
HETATM   11  C11 UNL     1      21.461   5.894  50.428  1.00  0.00     0.159 A 
HETATM   12  C12 UNL     1      22.699   5.909  51.016  1.00  0.00     0.072 A 
HETATM   13  N4  UNL     1      19.716   3.168  52.072  1.00  0.00    -0.224 NA
HETATM   14  C14 UNL     1      19.803   1.874  51.860  1.00  0.00     0.355 C 
ENDROOT
BRANCH   1  15
HETATM   15  N1  UNL     1      18.707   0.067  51.885  1.00  0.00    -0.336 N 
HETATM   16  C3  UNL     1      18.666  -0.845  52.984  1.00  0.00     0.137 C 
HETATM   17  O1  UNL     1      19.895  -1.035  53.300  1.00  0.00    -0.287 OA
HETATM   18  H4  UNL     1      17.859   0.416  51.399  1.00  0.00     0.168 HD
BRANCH  16  19
HETATM   19  C2  UNL     1      17.397  -1.370  53.531  1.00  0.00     0.046 C 
HETATM   20  C1  UNL     1      18.058  -2.531  53.633  1.00  0.00     0.176 C 
ENDBRANCH  16  19
ENDBRANCH   1  15
BRANCH  12  21
HETATM   21  S1  UNL     1      24.278   6.735  50.985  1.00  0.00    -0.129 SA
HETATM   22  C13 UNL     1      25.458   5.721  50.018  1.00  0.00     0.096 C 
ENDBRANCH  12  21
TORSDOF 3
ENDMDL
MODEL 7
REMARK VINA RESULT:      -6.1      3.644      7.665
REMARK  3 active torsions:
REMARK  status: ('A' for Active; 'I' for Inactive)
REMARK    1  A    between atoms: C2_2  and  C3_3 
REMARK       I    between atoms: C3_3  and  N1_5 
REMARK    2  A    between atoms: N1_5  and  C4_6 
REMARK    3  A    between atoms: C12_17  and  S1_18 
ROOT
HETATM    1  C4  UNL     1      19.539   2.296  51.197  1.00  0.00     0.052 C 
HETATM    2  C5  UNL     1      20.157   1.188  50.959  1.00  0.00     0.031 C 
HETATM    3  C6  UNL     1      21.066   0.214  51.470  1.00  0.00     0.000 C 
HETATM    4  C7  UNL     1      21.730  -0.067  52.555  1.00  0.00    -0.000 C 
HETATM    5  C8  UNL     1      22.684  -0.953  53.265  1.00  0.00     0.205 C 
HETATM    6  O2  UNL     1      23.749  -0.088  53.652  1.00  0.00    -0.329 OA
HETATM    7  C9  UNL     1      24.480   0.700  52.836  1.00  0.00     0.202 A 
HETATM    8  N2  UNL     1      23.353   1.416  52.910  1.00  0.00    -0.038 NA
HETATM    9  C10 UNL     1      23.139   2.551  52.307  1.00  0.00     0.719 A 
HETATM   10  N3  UNL     1      24.164   2.982  51.577  1.00  0.00    -0.074 NA
HETATM   11  C11 UNL     1      25.327   2.343  51.442  1.00  0.00     0.159 A 
HETATM   12  C12 UNL     1      25.515   1.148  52.089  1.00  0.00     0.072 A 
HETATM   13  N4  UNL     1      21.938   3.314  52.307  1.00  0.00    -0.224 NA
HETATM   14  C14 UNL     1      20.797   2.894  51.806  1.00  0.00     0.355 C 
ENDROOT
BRANCH   1  15
HETATM   15  N1  UNL     1      18.819   3.483  51.348  1.00  0.00    -0.336 N 
HETATM   16  C3  UNL     1      17.439   3.206  51.590  1.00  0.00     0.137 C 
HETATM   17  O1  UNL     1      17.354   1.925  51.584  1.00  0.00    -0.287 OA
HETATM   18  H4  UNL     1      19.210   4.443  51.291  1.00  0.00     0.168 HD
BRANCH  16  19
HETATM   19  C2  UNL     1      16.439   4.277  51.786  1.00  0.00     0.046 C 
HETATM   20  C1  UNL     1      15.592   3.275  52.055  1.00  0.00     0.176 C 
ENDBRANCH  16  19
ENDBRANCH   1  15
BRANCH  12  21
HETATM   21  S1  UNL     1      26.696  -0.162  52.341  1.00  0.00    -0.129 SA
HETATM   22  C13 UNL     1      27.382  -0.024  54.034  1.00  0.00     0.096 C 
ENDBRANCH  12  21
TORSDOF 3
ENDMDL
MODEL 8
REMARK VINA RESULT:      -6.0      2.822      4.330
REMARK  3 active torsions:
REMARK  status: ('A' for Active; 'I' for Inactive)
REMARK    1  A    between atoms: C2_2  and  C3_3 
REMARK       I    between atoms: C3_3  and  N1_5 
REMARK    2  A    between atoms: N1_5  and  C4_6 
REMARK    3  A    between atoms: C12_17  and  S1_18 
ROOT
HETATM    1  C4  UNL     1      25.676   2.983  50.618  1.00  0.00     0.052 C 
HETATM    2  C5  UNL     1      25.745   3.932  49.745  1.00  0.00     0.031 C 
HETATM    3  C6  UNL     1      25.649   5.339  49.524  1.00  0.00     0.000 C 
HETATM    4  C7  UNL     1      25.479   6.448  50.186  1.00  0.00    -0.000 C 
HETATM    5  C8  UNL     1      25.336   7.924  50.171  1.00  0.00     0.205 C 
HETATM    6  O2  UNL     1      24.070   8.164  50.781  1.00  0.00    -0.329 OA
HETATM    7  C9  UNL     1      22.883   7.652  50.392  1.00  0.00     0.202 A 
HETATM    8  N2  UNL     1      23.412   6.586  51.002  1.00  0.00    -0.038 NA
HETATM    9  C10 UNL     1      22.838   5.423  51.120  1.00  0.00     0.719 A 
HETATM   10  N3  UNL     1      21.628   5.353  50.573  1.00  0.00    -0.074 NA
HETATM   11  C11 UNL     1      21.015   6.359  49.946  1.00  0.00     0.159 A 
HETATM   12  C12 UNL     1      21.652   7.569  49.837  1.00  0.00     0.072 A 
HETATM   13  N4  UNL     1      23.386   4.247  51.705  1.00  0.00    -0.224 NA
HETATM   14  C14 UNL     1      24.445   3.618  51.244  1.00  0.00     0.355 C 
ENDROOT
BRANCH   1  15
HETATM   15  N1  UNL     1      25.629   1.883  51.475  1.00  0.00    -0.336 N 
HETATM   16  C3  UNL     1      26.883   1.707  52.136  1.00  0.00     0.137 C 
HETATM   17  O1  UNL     1      27.625   2.657  51.693  1.00  0.00    -0.287 OA
HETATM   18  H4  UNL     1      24.811   1.261  51.623  1.00  0.00     0.168 HD
BRANCH  16  19
HETATM   19  C2  UNL     1      27.122   0.614  53.102  1.00  0.00     0.046 C 
HETATM   20  C1  UNL     1      26.573  -0.173  52.167  1.00  0.00     0.176 C 
ENDBRANCH  16  19
ENDBRANCH   1  15
BRANCH  12  21
HETATM   21  S1  UNL     1      21.472   9.216  49.182  1.00  0.00    -0.129 SA
HETATM   22  C13 UNL     1      22.626   9.424  47.775  1.00  0.00     0.096 C 
ENDBRANCH  12  21
TORSDOF 3
ENDMDL
MODEL 9
REMARK VINA RESULT:      -6.0      3.751      5.423
REMARK  3 active torsions:
REMARK  status: ('A' for Active; 'I' for Inactive)
REMARK    1  A    between atoms: C2_2  and  C3_3 
REMARK       I    between atoms: C3_3  and  N1_5 
REMARK    2  A    between atoms: N1_5  and  C4_6 
REMARK    3  A    between atoms: C12_17  and  S1_18 
ROOT
HETATM    1  C4  UNL     1      26.325   5.085  48.994  1.00  0.00     0.052 C 
HETATM    2  C5  UNL     1      25.063   5.337  48.880  1.00  0.00     0.031 C 
HETATM    3  C6  UNL     1      23.838   5.552  49.578  1.00  0.00     0.000 C 
HETATM    4  C7  UNL     1      23.382   5.658  50.794  1.00  0.00    -0.000 C 
HETATM    5  C8  UNL     1      22.226   5.850  51.702  1.00  0.00     0.205 C 
HETATM    6  O2  UNL     1      22.230   4.691  52.532  1.00  0.00    -0.329 OA
HETATM    7  C9  UNL     1      22.192   3.407  52.117  1.00  0.00     0.202 A 
HETATM    8  N2  UNL     1      23.470   3.703  51.856  1.00  0.00    -0.038 NA
HETATM    9  C10 UNL     1      24.343   2.886  51.338  1.00  0.00     0.719 A 
HETATM   10  N3  UNL     1      23.864   1.674  51.072  1.00  0.00    -0.074 NA
HETATM   11  C11 UNL     1      22.609   1.283  51.296  1.00  0.00     0.159 A 
HETATM   12  C12 UNL     1      21.717   2.171  51.840  1.00  0.00     0.072 A 
HETATM   13  N4  UNL     1      25.691   3.175  50.987  1.00  0.00    -0.224 NA
HETATM   14  C14 UNL     1      26.044   4.049  50.071  1.00  0.00     0.355 C 
ENDROOT
BRANCH   1  15
HETATM   15  N1  UNL     1      27.695   4.820  49.000  1.00  0.00    -0.336 N 
HETATM   16  C3  UNL     1      28.407   5.842  48.299  1.00  0.00     0.137 C 
HETATM   17  O1  UNL     1      27.503   6.664  47.908  1.00  0.00    -0.287 OA
HETATM   18  H4  UNL     1      28.155   4.000  49.439  1.00  0.00     0.168 HD
BRANCH  16  19
HETATM   19  C2  UNL     1      29.877   5.818  48.144  1.00  0.00     0.046 C 
HETATM   20  C1  UNL     1      29.703   6.948  47.445  1.00  0.00     0.176 C 
ENDBRANCH  16  19
ENDBRANCH   1  15
BRANCH  12  21
HETATM   21  S1  UNL     1      20.022   2.345  52.362  1.00  0.00    -0.129 SA
HETATM   22  C13 UNL     1      19.183   3.544  51.260  1.00  0.00     0.096 C 
ENDBRANCH  12  21
TORSDOF 3
ENDMDL
