MODEL 1
REMARK VINA RESULT:      -7.2      0.000      0.000
REMARK  5 active torsions:
REMARK  status: ('A' for Active; 'I' for Inactive)
REMARK    1  A    between atoms: O1_2  and  C2_3 
REMARK    2  A    between atoms: C10_13  and  N3_14 
REMARK       I    between atoms: N3_14  and  C11_15 
REMARK    3  A    between atoms: C11_15  and  C12_17 
REMARK    4  A    between atoms: C13_18  and  C14_19 
REMARK    5  A    between atoms: C14_19  and  N4_20 
ROOT
HETATM    1  C2  UNL     1      23.639   1.560  53.019  1.00  0.00     0.093 A 
HETATM    2  C3  UNL     1      24.506   2.562  52.915  1.00  0.00     0.041 A 
HETATM    3  C4  UNL     1      25.885   2.038  53.014  1.00  0.00     0.319 A 
HETATM    4  N1  UNL     1      27.134   2.244  53.014  1.00  0.00    -0.433 NA
HETATM    5  C5  UNL     1      28.127   1.241  53.167  1.00  0.00     0.153 A 
HETATM    6  C6  UNL     1      27.559  -0.101  53.320  1.00  0.00     0.038 A 
HETATM    7  C7  UNL     1      28.750  -0.965  53.459  1.00  0.00     0.096 C 
HETATM    8  N2  UNL     1      29.721  -1.664  53.552  1.00  0.00    -0.192 NA
HETATM    9  C8  UNL     1      26.380  -0.754  53.371  1.00  0.00     0.022 A 
HETATM   10  C9  UNL     1      24.919  -0.715  53.331  1.00  0.00     0.034 A 
HETATM   11  C10 UNL     1      23.931   0.120  53.204  1.00  0.00     0.068 A 
ENDROOT
BRANCH  11  12
HETATM   12  N3  UNL     1      22.629  -0.477  53.241  1.00  0.00    -0.321 N 
HETATM   13  C11 UNL     1      22.051  -1.089  54.374  1.00  0.00     0.245 C 
HETATM   14  O2  UNL     1      22.663  -1.152  55.459  1.00  0.00    -0.268 OA
HETATM   15  H10 UNL     1      22.109  -0.430  52.336  1.00  0.00     0.169 HD
BRANCH  13  16
HETATM   16  C12 UNL     1      20.711  -1.654  54.253  1.00  0.00     0.072 C 
HETATM   17  C13 UNL     1      19.757  -1.006  53.602  1.00  0.00     0.008 C 
BRANCH  17  18
HETATM   18  C14 UNL     1      18.370  -1.521  53.438  1.00  0.00     0.299 C 
BRANCH  18  19
HETATM   19  N4  UNL     1      17.836  -0.922  52.238  1.00  0.00     0.083 N 
HETATM   20  C15 UNL     1      18.702   0.081  51.687  1.00  0.00     0.309 C 
HETATM   21  C16 UNL     1      16.472  -0.509  52.364  1.00  0.00     0.309 C 
ENDBRANCH  18  19
ENDBRANCH  17  18
ENDBRANCH  13  16
ENDBRANCH  11  12
BRANCH   1  22
HETATM   22  O1  UNL     1      22.350   2.077  52.924  1.00  0.00    -0.354 OA
HETATM   23  C1  UNL     1      21.899   2.878  51.872  1.00  0.00     0.210 C 
ENDBRANCH   1  22
TORSDOF 5
ENDMDL
MODEL 2
REMARK VINA RESULT:      -7.1      4.137      7.886
REMARK  5 active torsions:
REMARK  status: ('A' for Active; 'I' for Inactive)
REMARK    1  A    between atoms: O1_2  and  C2_3 
REMARK    2  A    between atoms: C10_13  and  N3_14 
REMARK       I    between atoms: N3_14  and  C11_15 
REMARK    3  A    between atoms: C11_15  and  C12_17 
REMARK    4  A    between atoms: C13_18  and  C14_19 
REMARK    5  A    between atoms: C14_19  and  N4_20 
ROOT
HETATM    1  C2  UNL     1      24.470   3.147  52.154  1.00  0.00     0.093 A 
HETATM    2  C3  UNL     1      23.655   2.434  52.923  1.00  0.00     0.041 A 
HETATM    3  C4  UNL     1      24.234   1.092  53.150  1.00  0.00     0.319 A 
HETATM    4  N1  UNL     1      24.156  -0.056  53.679  1.00  0.00    -0.433 NA
HETATM    5  C5  UNL     1      25.126  -1.084  53.546  1.00  0.00     0.153 A 
HETATM    6  C6  UNL     1      26.269  -0.682  52.720  1.00  0.00     0.038 A 
HETATM    7  C7  UNL     1      27.133  -1.881  52.721  1.00  0.00     0.096 C 
HETATM    8  N2  UNL     1      27.839  -2.851  52.740  1.00  0.00    -0.192 NA
HETATM    9  C8  UNL     1      26.750   0.358  52.009  1.00  0.00     0.022 A 
HETATM   10  C9  UNL     1      26.594   1.729  51.526  1.00  0.00     0.034 A 
HETATM   11  C10 UNL     1      25.771   2.735  51.578  1.00  0.00     0.068 A 
ENDROOT
BRANCH  11  12
HETATM   12  N3  UNL     1      26.194   3.898  50.856  1.00  0.00    -0.321 N 
HETATM   13  C11 UNL     1      25.797   4.222  49.540  1.00  0.00     0.245 C 
HETATM   14  O2  UNL     1      25.021   3.486  48.898  1.00  0.00    -0.268 OA
HETATM   15  H10 UNL     1      26.845   4.520  51.386  1.00  0.00     0.169 HD
BRANCH  13  16
HETATM   16  C12 UNL     1      26.315   5.447  48.938  1.00  0.00     0.072 C 
HETATM   17  C13 UNL     1      27.577   5.529  48.547  1.00  0.00     0.008 C 
BRANCH  17  18
HETATM   18  C14 UNL     1      28.173   6.743  47.926  1.00  0.00     0.299 C 
BRANCH  18  19
HETATM   19  N4  UNL     1      29.546   6.814  48.367  1.00  0.00     0.083 N 
HETATM   20  C15 UNL     1      30.154   8.083  48.084  1.00  0.00     0.309 C 
HETATM   21  C16 UNL     1      30.333   5.688  47.968  1.00  0.00     0.309 C 
ENDBRANCH  18  19
ENDBRANCH  17  18
ENDBRANCH  13  16
ENDBRANCH  11  12
BRANCH   1  22
HETATM   22  O1  UNL     1      23.906   4.404  51.954  1.00  0.00    -0.354 OA
HETATM   23  C1  UNL     1      22.633   4.773  52.393  1.00  0.00     0.210 C 
ENDBRANCH   1  22
TORSDOF 5
ENDMDL
MODEL 3
REMARK VINA RESULT:      -7.1      3.587      7.562
REMARK  5 active torsions:
REMARK  status: ('A' for Active; 'I' for Inactive)
REMARK    1  A    between atoms: O1_2  and  C2_3 
REMARK    2  A    between atoms: C10_13  and  N3_14 
REMARK       I    between atoms: N3_14  and  C11_15 
REMARK    3  A    between atoms: C11_15  and  C12_17 
REMARK    4  A    between atoms: C13_18  and  C14_19 
REMARK    5  A    between atoms: C14_19  and  N4_20 
ROOT
HETATM    1  C2  UNL     1      27.038   0.678  53.540  1.00  0.00     0.093 A 
HETATM    2  C3  UNL     1      27.064   0.072  54.721  1.00  0.00     0.041 A 
HETATM    3  C4  UNL     1      25.727  -0.483  55.025  1.00  0.00     0.319 A 
HETATM    4  N1  UNL     1      24.961  -1.121  55.805  1.00  0.00    -0.433 NA
HETATM    5  C5  UNL     1      23.590  -1.397  55.559  1.00  0.00     0.153 A 
HETATM    6  C6  UNL     1      23.128  -0.869  54.272  1.00  0.00     0.038 A 
HETATM    7  C7  UNL     1      21.705  -1.267  54.228  1.00  0.00     0.096 C 
HETATM    8  N2  UNL     1      20.556  -1.608  54.189  1.00  0.00    -0.192 NA
HETATM    9  C8  UNL     1      23.555  -0.183  53.192  1.00  0.00     0.022 A 
HETATM   10  C9  UNL     1      24.635   0.505  52.487  1.00  0.00     0.034 A 
HETATM   11  C10 UNL     1      25.891   0.816  52.612  1.00  0.00     0.068 A 
ENDROOT
BRANCH  11  12
HETATM   12  N3  UNL     1      26.445   1.545  51.511  1.00  0.00    -0.321 N 
HETATM   13  C11 UNL     1      25.939   2.764  51.011  1.00  0.00     0.245 C 
HETATM   14  O2  UNL     1      24.936   3.306  51.518  1.00  0.00    -0.268 OA
HETATM   15  H10 UNL     1      27.285   1.098  51.079  1.00  0.00     0.169 HD
BRANCH  13  16
HETATM   16  C12 UNL     1      26.616   3.388  49.878  1.00  0.00     0.072 C 
HETATM   17  C13 UNL     1      26.514   4.689  49.659  1.00  0.00     0.008 C 
BRANCH  17  18
HETATM   18  C14 UNL     1      27.176   5.391  48.526  1.00  0.00     0.299 C 
BRANCH  18  19
HETATM   19  N4  UNL     1      26.839   6.791  48.641  1.00  0.00     0.083 N 
HETATM   20  C15 UNL     1      27.984   7.648  48.522  1.00  0.00     0.309 C 
HETATM   21  C16 UNL     1      26.003   7.087  49.763  1.00  0.00     0.309 C 
ENDBRANCH  18  19
ENDBRANCH  17  18
ENDBRANCH  13  16
ENDBRANCH  11  12
BRANCH   1  22
HETATM   22  O1  UNL     1      28.304   1.192  53.276  1.00  0.00    -0.354 OA
HETATM   23  C1  UNL     1      29.497   0.605  53.705  1.00  0.00     0.210 C 
ENDBRANCH   1  22
TORSDOF 5
ENDMDL
MODEL 4
REMARK VINA RESULT:      -7.0      4.269      7.642
REMARK  5 active torsions:
REMARK  status: ('A' for Active; 'I' for Inactive)
REMARK    1  A    between atoms: O1_2  and  C2_3 
REMARK    2  A    between atoms: C10_13  and  N3_14 
REMARK       I    between atoms: N3_14  and  C11_15 
REMARK    3  A    between atoms: C11_15  and  C12_17 
REMARK    4  A    between atoms: C13_18  and  C14_19 
REMARK    5  A    between atoms: C14_19  and  N4_20 
ROOT
HETATM    1  C2  UNL     1      24.528   3.255  52.103  1.00  0.00     0.093 A 
HETATM    2  C3  UNL     1      23.712   2.572  52.898  1.00  0.00     0.041 A 
HETATM    3  C4  UNL     1      24.263   1.220  53.134  1.00  0.00     0.319 A 
HETATM    4  N1  UNL     1      24.168   0.083  53.682  1.00  0.00    -0.433 NA
HETATM    5  C5  UNL     1      25.109  -0.971  53.544  1.00  0.00     0.153 A 
HETATM    6  C6  UNL     1      26.244  -0.609  52.690  1.00  0.00     0.038 A 
HETATM    7  C7  UNL     1      27.079  -1.829  52.692  1.00  0.00     0.096 C 
HETATM    8  N2  UNL     1      27.761  -2.816  52.712  1.00  0.00    -0.192 NA
HETATM    9  C8  UNL     1      26.736   0.409  51.955  1.00  0.00     0.022 A 
HETATM   10  C9  UNL     1      26.604   1.776  51.454  1.00  0.00     0.034 A 
HETATM   11  C10 UNL     1      25.807   2.802  51.507  1.00  0.00     0.068 A 
ENDROOT
BRANCH  11  12
HETATM   12  N3  UNL     1      26.244   3.944  50.760  1.00  0.00    -0.321 N 
HETATM   13  C11 UNL     1      25.807   4.274  49.458  1.00  0.00     0.245 C 
HETATM   14  O2  UNL     1      24.981   3.562  48.852  1.00  0.00    -0.268 OA
HETATM   15  H10 UNL     1      26.936   4.545  51.259  1.00  0.00     0.169 HD
BRANCH  13  16
HETATM   16  C12 UNL     1      26.346   5.474  48.826  1.00  0.00     0.072 C 
HETATM   17  C13 UNL     1      27.640   5.583  48.569  1.00  0.00     0.008 C 
BRANCH  17  18
HETATM   18  C14 UNL     1      28.258   6.776  47.928  1.00  0.00     0.299 C 
BRANCH  18  19
HETATM   19  N4  UNL     1      27.412   7.905  48.232  1.00  0.00     0.083 N 
HETATM   20  C15 UNL     1      26.947   8.583  47.055  1.00  0.00     0.309 C 
HETATM   21  C16 UNL     1      27.957   8.776  49.229  1.00  0.00     0.309 C 
ENDBRANCH  18  19
ENDBRANCH  17  18
ENDBRANCH  13  16
ENDBRANCH  11  12
BRANCH   1  22
HETATM   22  O1  UNL     1      23.991   4.521  51.895  1.00  0.00    -0.354 OA
HETATM   23  C1  UNL     1      22.638   4.772  51.652  1.00  0.00     0.210 C 
ENDBRANCH   1  22
TORSDOF 5
ENDMDL
MODEL 5
REMARK VINA RESULT:      -6.7      4.068      8.357
REMARK  5 active torsions:
REMARK  status: ('A' for Active; 'I' for Inactive)
REMARK    1  A    between atoms: O1_2  and  C2_3 
REMARK    2  A    between atoms: C10_13  and  N3_14 
REMARK       I    between atoms: N3_14  and  C11_15 
REMARK    3  A    between atoms: C11_15  and  C12_17 
REMARK    4  A    between atoms: C13_18  and  C14_19 
REMARK    5  A    between atoms: C14_19  and  N4_20 
ROOT
HETATM    1  C2  UNL     1      26.176   1.888  52.425  1.00  0.00     0.093 A 
HETATM    2  C3  UNL     1      26.300   0.684  52.972  1.00  0.00     0.041 A 
HETATM    3  C4  UNL     1      24.960   0.093  53.181  1.00  0.00     0.319 A 
HETATM    4  N1  UNL     1      24.241  -0.870  53.579  1.00  0.00    -0.433 NA
HETATM    5  C5  UNL     1      22.823  -0.903  53.536  1.00  0.00     0.153 A 
HETATM    6  C6  UNL     1      22.245   0.315  52.961  1.00  0.00     0.038 A 
HETATM    7  C7  UNL     1      20.789   0.063  53.014  1.00  0.00     0.096 C 
HETATM    8  N2  UNL     1      19.610  -0.154  53.042  1.00  0.00    -0.192 NA
HETATM    9  C8  UNL     1      22.591   1.508  52.437  1.00  0.00     0.022 A 
HETATM   10  C9  UNL     1      23.636   2.457  52.054  1.00  0.00     0.034 A 
HETATM   11  C10 UNL     1      24.929   2.594  52.051  1.00  0.00     0.068 A 
ENDROOT
BRANCH  11  12
HETATM   12  N3  UNL     1      25.403   3.831  51.506  1.00  0.00    -0.321 N 
HETATM   13  C11 UNL     1      25.538   4.110  50.129  1.00  0.00     0.245 C 
HETATM   14  O2  UNL     1      25.241   3.262  49.264  1.00  0.00    -0.268 OA
HETATM   15  H10 UNL     1      25.655   4.548  52.223  1.00  0.00     0.169 HD
BRANCH  13  16
HETATM   16  C12 UNL     1      26.037   5.422  49.729  1.00  0.00     0.072 C 
HETATM   17  C13 UNL     1      26.803   5.560  48.659  1.00  0.00     0.008 C 
BRANCH  17  18
HETATM   18  C14 UNL     1      27.346   6.865  48.193  1.00  0.00     0.299 C 
BRANCH  18  19
HETATM   19  N4  UNL     1      28.631   6.598  47.590  1.00  0.00     0.083 N 
HETATM   20  C15 UNL     1      29.309   5.490  48.201  1.00  0.00     0.309 C 
HETATM   21  C16 UNL     1      29.444   7.765  47.435  1.00  0.00     0.309 C 
ENDBRANCH  18  19
ENDBRANCH  17  18
ENDBRANCH  13  16
ENDBRANCH  11  12
BRANCH   1  22
HETATM   22  O1  UNL     1      27.447   2.424  52.239  1.00  0.00    -0.354 OA
HETATM   23  C1  UNL     1      28.470   2.371  53.188  1.00  0.00     0.210 C 
ENDBRANCH   1  22
TORSDOF 5
ENDMDL
MODEL 6
REMARK VINA RESULT:      -6.6      3.372      7.694
REMARK  5 active torsions:
REMARK  status: ('A' for Active; 'I' for Inactive)
REMARK    1  A    between atoms: O1_2  and  C2_3 
REMARK    2  A    between atoms: C10_13  and  N3_14 
REMARK       I    between atoms: N3_14  and  C11_15 
REMARK    3  A    between atoms: C11_15  and  C12_17 
REMARK    4  A    between atoms: C13_18  and  C14_19 
REMARK    5  A    between atoms: C14_19  and  N4_20 
ROOT
HETATM    1  C2  UNL     1      25.626   0.392  53.353  1.00  0.00     0.093 A 
HETATM    2  C3  UNL     1      25.400  -0.350  54.431  1.00  0.00     0.041 A 
HETATM    3  C4  UNL     1      23.957  -0.659  54.529  1.00  0.00     0.319 A 
HETATM    4  N1  UNL     1      23.000  -1.223  55.137  1.00  0.00    -0.433 NA
HETATM    5  C5  UNL     1      21.640  -1.184  54.731  1.00  0.00     0.153 A 
HETATM    6  C6  UNL     1      21.437  -0.415  53.500  1.00  0.00     0.038 A 
HETATM    7  C7  UNL     1      19.980  -0.510  53.271  1.00  0.00     0.096 C 
HETATM    8  N2  UNL     1      18.799  -0.606  53.080  1.00  0.00    -0.192 NA
HETATM    9  C8  UNL     1      22.107   0.301  52.574  1.00  0.00     0.022 A 
HETATM   10  C9  UNL     1      23.371   0.841  52.076  1.00  0.00     0.034 A 
HETATM   11  C10 UNL     1      24.640   0.874  52.358  1.00  0.00     0.068 A 
ENDROOT
BRANCH  11  12
HETATM   12  N3  UNL     1      25.445   1.610  51.428  1.00  0.00    -0.321 N 
HETATM   13  C11 UNL     1      25.355   3.001  51.204  1.00  0.00     0.245 C 
HETATM   14  O2  UNL     1      24.535   3.706  51.826  1.00  0.00    -0.268 OA
HETATM   15  H10 UNL     1      26.134   1.028  50.902  1.00  0.00     0.169 HD
BRANCH  13  16
HETATM   16  C12 UNL     1      26.247   3.607  50.221  1.00  0.00     0.072 C 
HETATM   17  C13 UNL     1      25.971   4.789  49.691  1.00  0.00     0.008 C 
BRANCH  17  18
HETATM   18  C14 UNL     1      26.834   5.466  48.685  1.00  0.00     0.299 C 
BRANCH  18  19
HETATM   19  N4  UNL     1      26.603   6.885  48.818  1.00  0.00     0.083 N 
HETATM   20  C15 UNL     1      27.782   7.664  48.564  1.00  0.00     0.309 C 
HETATM   21  C16 UNL     1      25.916   7.244  50.021  1.00  0.00     0.309 C 
ENDBRANCH  18  19
ENDBRANCH  17  18
ENDBRANCH  13  16
ENDBRANCH  11  12
BRANCH   1  22
HETATM   22  O1  UNL     1      26.988   0.670  53.282  1.00  0.00    -0.354 OA
HETATM   23  C1  UNL     1      27.907   0.361  54.286  1.00  0.00     0.210 C 
ENDBRANCH   1  22
TORSDOF 5
ENDMDL
MODEL 7
REMARK VINA RESULT:      -6.6      2.387      3.938
REMARK  5 active torsions:
REMARK  status: ('A' for Active; 'I' for Inactive)
REMARK    1  A    between atoms: O1_2  and  C2_3 
REMARK    2  A    between atoms: C10_13  and  N3_14 
REMARK       I    between atoms: N3_14  and  C11_15 
REMARK    3  A    between atoms: C11_15  and  C12_17 
REMARK    4  A    between atoms: C13_18  and  C14_19 
REMARK    5  A    between atoms: C14_19  and  N4_20 
ROOT
HETATM    1  C2  UNL     1      22.536   0.241  53.146  1.00  0.00     0.093 A 
HETATM    2  C3  UNL     1      23.164  -0.815  53.652  1.00  0.00     0.041 A 
HETATM    3  C4  UNL     1      24.582  -0.476  53.903  1.00  0.00     0.319 A 
HETATM    4  N1  UNL     1      25.730  -0.819  54.313  1.00  0.00    -0.433 NA
HETATM    5  C5  UNL     1      26.875   0.021  54.327  1.00  0.00     0.153 A 
HETATM    6  C6  UNL     1      26.598   1.367  53.819  1.00  0.00     0.038 A 
HETATM    7  C7  UNL     1      27.904   2.051  53.927  1.00  0.00     0.096 C 
HETATM    8  N2  UNL     1      28.961   2.607  54.034  1.00  0.00    -0.192 NA
HETATM    9  C8  UNL     1      25.603   2.128  53.318  1.00  0.00     0.022 A 
HETATM   10  C9  UNL     1      24.204   2.261  52.916  1.00  0.00     0.034 A 
HETATM   11  C10 UNL     1      23.098   1.580  52.854  1.00  0.00     0.068 A 
ENDROOT
BRANCH  11  12
HETATM   12  N3  UNL     1      21.973   2.302  52.338  1.00  0.00    -0.321 N 
HETATM   13  C11 UNL     1      21.690   2.486  50.967  1.00  0.00     0.245 C 
HETATM   14  O2  UNL     1      22.431   2.012  50.083  1.00  0.00    -0.268 OA
HETATM   15  H10 UNL     1      21.347   2.704  53.071  1.00  0.00     0.169 HD
BRANCH  13  16
HETATM   16  C12 UNL     1      20.502   3.249  50.598  1.00  0.00     0.072 C 
HETATM   17  C13 UNL     1      19.439   3.274  51.387  1.00  0.00     0.008 C 
BRANCH  17  18
HETATM   18  C14 UNL     1      18.195   4.029  51.075  1.00  0.00     0.299 C 
BRANCH  18  19
HETATM   19  N4  UNL     1      17.111   3.357  51.753  1.00  0.00     0.083 N 
HETATM   20  C15 UNL     1      16.723   2.138  51.103  1.00  0.00     0.309 C 
HETATM   21  C16 UNL     1      16.016   4.219  52.075  1.00  0.00     0.309 C 
ENDBRANCH  18  19
ENDBRANCH  17  18
ENDBRANCH  13  16
ENDBRANCH  11  12
BRANCH   1  22
HETATM   22  O1  UNL     1      21.206  -0.100  52.917  1.00  0.00    -0.354 OA
HETATM   23  C1  UNL     1      20.339  -0.586  53.898  1.00  0.00     0.210 C 
ENDBRANCH   1  22
TORSDOF 5
ENDMDL
MODEL 8
REMARK VINA RESULT:      -6.5      4.445      6.000
REMARK  5 active torsions:
REMARK  status: ('A' for Active; 'I' for Inactive)
REMARK    1  A    between atoms: O1_2  and  C2_3 
REMARK    2  A    between atoms: C10_13  and  N3_14 
REMARK       I    between atoms: N3_14  and  C11_15 
REMARK    3  A    between atoms: C11_15  and  C12_17 
REMARK    4  A    between atoms: C13_18  and  C14_19 
REMARK    5  A    between atoms: C14_19  and  N4_20 
ROOT
HETATM    1  C2  UNL     1      23.792   5.153  49.309  1.00  0.00     0.093 A 
HETATM    2  C3  UNL     1      23.970   6.389  48.858  1.00  0.00     0.041 A 
HETATM    3  C4  UNL     1      25.399   6.601  48.538  1.00  0.00     0.319 A 
HETATM    4  N1  UNL     1      26.323   7.357  48.117  1.00  0.00    -0.433 NA
HETATM    5  C5  UNL     1      27.690   6.991  48.008  1.00  0.00     0.153 A 
HETATM    6  C6  UNL     1      27.944   5.611  48.430  1.00  0.00     0.038 A 
HETATM    7  C7  UNL     1      29.400   5.452  48.233  1.00  0.00     0.096 C 
HETATM    8  N2  UNL     1      30.579   5.323  48.053  1.00  0.00    -0.192 NA
HETATM    9  C8  UNL     1      27.318   4.516  48.909  1.00  0.00     0.022 A 
HETATM   10  C9  UNL     1      26.084   3.864  49.344  1.00  0.00     0.034 A 
HETATM   11  C10 UNL     1      24.812   4.094  49.489  1.00  0.00     0.068 A 
ENDROOT
BRANCH  11  12
HETATM   12  N3  UNL     1      24.052   2.987  49.989  1.00  0.00    -0.321 N 
HETATM   13  C11 UNL     1      24.032   2.562  51.336  1.00  0.00     0.245 C 
HETATM   14  O2  UNL     1      24.701   3.148  52.210  1.00  0.00    -0.268 OA
HETATM   15  H10 UNL     1      23.489   2.490  49.264  1.00  0.00     0.169 HD
BRANCH  13  16
HETATM   16  C12 UNL     1      23.205   1.414  51.691  1.00  0.00     0.072 C 
HETATM   17  C13 UNL     1      23.570   0.589  52.660  1.00  0.00     0.008 C 
BRANCH  17  18
HETATM   18  C14 UNL     1      22.777  -0.600  53.076  1.00  0.00     0.299 C 
BRANCH  18  19
HETATM   19  N4  UNL     1      22.372  -0.381  54.444  1.00  0.00     0.083 N 
HETATM   20  C15 UNL     1      22.818  -1.422  55.326  1.00  0.00     0.309 C 
HETATM   21  C16 UNL     1      20.988  -0.050  54.586  1.00  0.00     0.309 C 
ENDBRANCH  18  19
ENDBRANCH  17  18
ENDBRANCH  13  16
ENDBRANCH  11  12
BRANCH   1  22
HETATM   22  O1  UNL     1      22.443   4.977  49.604  1.00  0.00    -0.354 OA
HETATM   23  C1  UNL     1      21.668   5.894  50.316  1.00  0.00     0.210 C 
ENDBRANCH   1  22
TORSDOF 5
ENDMDL
MODEL 9
REMARK VINA RESULT:      -6.5      4.296      8.237
REMARK  5 active torsions:
REMARK  status: ('A' for Active; 'I' for Inactive)
REMARK    1  A    between atoms: O1_2  and  C2_3 
REMARK    2  A    between atoms: C10_13  and  N3_14 
REMARK       I    between atoms: N3_14  and  C11_15 
REMARK    3  A    between atoms: C11_15  and  C12_17 
REMARK    4  A    between atoms: C13_18  and  C14_19 
REMARK    5  A    between atoms: C14_19  and  N4_20 
ROOT
HETATM    1  C2  UNL     1      23.063   2.867  50.331  1.00  0.00     0.093 A 
HETATM    2  C3  UNL     1      22.066   2.000  50.470  1.00  0.00     0.041 A 
HETATM    3  C4  UNL     1      22.400   1.024  51.530  1.00  0.00     0.319 A 
HETATM    4  N1  UNL     1      22.083   0.013  52.222  1.00  0.00    -0.433 NA
HETATM    5  C5  UNL     1      22.893  -0.573  53.230  1.00  0.00     0.153 A 
HETATM    6  C6  UNL     1      24.167   0.128  53.412  1.00  0.00     0.038 A 
HETATM    7  C7  UNL     1      24.830  -0.638  54.488  1.00  0.00     0.096 C 
HETATM    8  N2  UNL     1      25.356  -1.252  55.375  1.00  0.00    -0.192 NA
HETATM    9  C8  UNL     1      24.880   1.172  52.943  1.00  0.00     0.022 A 
HETATM   10  C9  UNL     1      24.994   2.305  52.025  1.00  0.00     0.034 A 
HETATM   11  C10 UNL     1      24.339   2.915  51.082  1.00  0.00     0.068 A 
ENDROOT
BRANCH  11  12
HETATM   12  N3  UNL     1      25.009   4.049  50.518  1.00  0.00    -0.321 N 
HETATM   13  C11 UNL     1      26.115   3.981  49.642  1.00  0.00     0.245 C 
HETATM   14  O2  UNL     1      26.596   2.885  49.289  1.00  0.00    -0.268 OA
HETATM   15  H10 UNL     1      24.614   4.970  50.808  1.00  0.00     0.169 HD
BRANCH  13  16
HETATM   16  C12 UNL     1      26.691   5.228  49.150  1.00  0.00     0.072 C 
HETATM   17  C13 UNL     1      27.864   5.239  48.537  1.00  0.00     0.008 C 
BRANCH  17  18
HETATM   18  C14 UNL     1      28.511   6.471  48.010  1.00  0.00     0.299 C 
BRANCH  18  19
HETATM   19  N4  UNL     1      29.880   6.460  48.469  1.00  0.00     0.083 N 
HETATM   20  C15 UNL     1      30.509   7.746  48.368  1.00  0.00     0.309 C 
HETATM   21  C16 UNL     1      30.656   5.388  47.926  1.00  0.00     0.309 C 
ENDBRANCH  18  19
ENDBRANCH  17  18
ENDBRANCH  13  16
ENDBRANCH  11  12
BRANCH   1  22
HETATM   22  O1  UNL     1      22.727   3.774  49.330  1.00  0.00    -0.354 OA
HETATM   23  C1  UNL     1      22.462   3.421  48.005  1.00  0.00     0.210 C 
ENDBRANCH   1  22
TORSDOF 5
ENDMDL
