MODEL 1
REMARK VINA RESULT:      -8.3      0.000      0.000
REMARK  3 active torsions:
REMARK  status: ('A' for Active; 'I' for Inactive)
REMARK    1  A    between atoms: O1_2  and  C2_3 
REMARK    2  A    between atoms: C10_14  and  N3_15 
REMARK    3  A    between atoms: N3_15  and  C11_16 
ROOT
HETATM    1  C2  UNL     1      27.612   7.339  48.639  1.00  0.00     0.070 A 
HETATM    2  C3  UNL     1      28.289   6.176  48.267  1.00  0.00     0.037 A 
HETATM    3  C4  UNL     1      27.801   4.926  48.574  1.00  0.00     0.014 A 
HETATM    4  C5  UNL     1      26.605   4.735  49.273  1.00  0.00    -0.006 A 
HETATM    5  C6  UNL     1      25.969   5.920  49.619  1.00  0.00     0.088 A 
HETATM    6  C7  UNL     1      26.434   7.178  49.325  1.00  0.00     0.074 A 
HETATM    7  O2  UNL     1      24.772   5.982  50.311  1.00  0.00    -0.289 OA
HETATM    8  C8  UNL     1      24.050   4.974  50.926  1.00  0.00     0.202 A 
HETATM    9  N1  UNL     1      23.135   5.434  51.813  1.00  0.00    -0.215 NA
HETATM   10  C9  UNL     1      22.338   4.597  52.509  1.00  0.00     0.238 A 
HETATM   11  N2  UNL     1      22.496   3.283  52.279  1.00  0.00    -0.222 NA
HETATM   12  C10 UNL     1      23.392   2.789  51.407  1.00  0.00     0.160 A 
HETATM   13  C17 UNL     1      24.227   3.624  50.676  1.00  0.00     0.129 A 
HETATM   14  N4  UNL     1      25.093   2.888  49.839  1.00  0.00    -0.379 N 
HETATM   15  C18 UNL     1      26.407   3.301  49.421  1.00  0.00     0.161 C 
HETATM   16  H15 UNL     1      24.630   1.993  49.575  1.00  0.00     0.160 HD
ENDROOT
BRANCH  12  17
HETATM   17  N3  UNL     1      23.386   1.366  51.316  1.00  0.00    -0.338 N 
HETATM   18  H8  UNL     1      23.079   0.603  50.690  1.00  0.00     0.167 HD
BRANCH  17  19
HETATM   19  C11 UNL     1      24.009   0.730  52.449  1.00  0.00     0.047 A 
HETATM   20  C12 UNL     1      23.550  -0.115  53.376  1.00  0.00     0.019 A 
HETATM   21 BR1  UNL     1      21.811  -0.876  53.613  1.00  0.00    -0.053 Br
HETATM   22  C13 UNL     1      24.578  -0.506  54.350  1.00  0.00     0.082 A 
HETATM   23  C14 UNL     1      25.778   0.212  53.917  1.00  0.00    -0.077 A 
HETATM   24  C15 UNL     1      27.160   0.227  54.493  1.00  0.00     0.044 C 
HETATM   25  C16 UNL     1      25.424   0.896  52.849  1.00  0.00     0.033 A 
ENDBRANCH  17  19
ENDBRANCH  12  17
BRANCH   1  26
HETATM   26  O1  UNL     1      28.000   8.623  48.393  1.00  0.00    -0.356 OA
HETATM   27  C1  UNL     1      28.977   9.300  49.167  1.00  0.00     0.210 C 
ENDBRANCH   1  26
TORSDOF 3
ENDMDL
MODEL 2
REMARK VINA RESULT:      -8.2      3.586      7.171
REMARK  3 active torsions:
REMARK  status: ('A' for Active; 'I' for Inactive)
REMARK    1  A    between atoms: O1_2  and  C2_3 
REMARK    2  A    between atoms: C10_14  and  N3_15 
REMARK    3  A    between atoms: N3_15  and  C11_16 
ROOT
HETATM    1  C2  UNL     1      27.024  -0.488  53.395  1.00  0.00     0.070 A 
HETATM    2  C3  UNL     1      25.699  -0.546  53.830  1.00  0.00     0.037 A 
HETATM    3  C4  UNL     1      24.728   0.272  53.299  1.00  0.00     0.014 A 
HETATM    4  C5  UNL     1      24.997   1.208  52.296  1.00  0.00    -0.006 A 
HETATM    5  C6  UNL     1      26.327   1.226  51.896  1.00  0.00     0.088 A 
HETATM    6  C7  UNL     1      27.314   0.421  52.410  1.00  0.00     0.074 A 
HETATM    7  O2  UNL     1      26.829   2.067  50.919  1.00  0.00    -0.289 OA
HETATM    8  C8  UNL     1      26.225   3.125  50.262  1.00  0.00     0.202 A 
HETATM    9  N1  UNL     1      27.107   3.949  49.647  1.00  0.00    -0.215 NA
HETATM   10  C9  UNL     1      26.702   5.035  48.958  1.00  0.00     0.238 A 
HETATM   11  N2  UNL     1      25.379   5.261  48.911  1.00  0.00    -0.222 NA
HETATM   12  C10 UNL     1      24.473   4.467  49.509  1.00  0.00     0.160 A 
HETATM   13  C17 UNL     1      24.858   3.342  50.226  1.00  0.00     0.129 A 
HETATM   14  N4  UNL     1      23.745   2.672  50.777  1.00  0.00    -0.379 N 
HETATM   15  C18 UNL     1      23.749   1.891  51.985  1.00  0.00     0.161 C 
HETATM   16  H15 UNL     1      22.915   2.836  50.169  1.00  0.00     0.160 HD
ENDROOT
BRANCH  12  17
HETATM   17  N3  UNL     1      23.123   4.890  49.326  1.00  0.00    -0.338 N 
HETATM   18  H8  UNL     1      22.341   5.326  49.842  1.00  0.00     0.167 HD
BRANCH  17  19
HETATM   19  C11 UNL     1      22.641   4.659  47.987  1.00  0.00     0.047 A 
HETATM   20  C12 UNL     1      22.192   3.566  47.365  1.00  0.00     0.019 A 
HETATM   21 BR1  UNL     1      21.985   1.773  47.996  1.00  0.00    -0.053 Br
HETATM   22  C13 UNL     1      21.797   3.824  45.973  1.00  0.00     0.082 A 
HETATM   23  C14 UNL     1      22.056   5.252  45.783  1.00  0.00    -0.077 A 
HETATM   24  C15 UNL     1      21.853   6.123  44.582  1.00  0.00     0.044 C 
HETATM   25  C16 UNL     1      22.529   5.690  46.931  1.00  0.00     0.033 A 
ENDBRANCH  17  19
ENDBRANCH  12  17
BRANCH   1  26
HETATM   26  O1  UNL     1      28.065  -1.244  53.848  1.00  0.00    -0.356 OA
HETATM   27  C1  UNL     1      29.413  -0.801  53.823  1.00  0.00     0.210 C 
ENDBRANCH   1  26
TORSDOF 3
ENDMDL
MODEL 3
REMARK VINA RESULT:      -8.0      3.331      7.712
REMARK  3 active torsions:
REMARK  status: ('A' for Active; 'I' for Inactive)
REMARK    1  A    between atoms: O1_2  and  C2_3 
REMARK    2  A    between atoms: C10_14  and  N3_15 
REMARK    3  A    between atoms: N3_15  and  C11_16 
ROOT
HETATM    1  C2  UNL     1      22.538  -0.655  53.352  1.00  0.00     0.070 A 
HETATM    2  C3  UNL     1      23.907  -0.529  53.601  1.00  0.00     0.037 A 
HETATM    3  C4  UNL     1      24.565   0.668  53.433  1.00  0.00     0.014 A 
HETATM    4  C5  UNL     1      23.915   1.831  53.008  1.00  0.00    -0.006 A 
HETATM    5  C6  UNL     1      22.557   1.656  52.776  1.00  0.00     0.088 A 
HETATM    6  C7  UNL     1      21.878   0.473  52.936  1.00  0.00     0.074 A 
HETATM    7  O2  UNL     1      21.709   2.663  52.352  1.00  0.00    -0.289 OA
HETATM    8  C8  UNL     1      22.000   3.948  51.928  1.00  0.00     0.202 A 
HETATM    9  N1  UNL     1      20.985   4.530  51.244  1.00  0.00    -0.215 NA
HETATM   10  C9  UNL     1      21.087   5.782  50.753  1.00  0.00     0.238 A 
HETATM   11  N2  UNL     1      22.245   6.425  50.974  1.00  0.00    -0.222 NA
HETATM   12  C10 UNL     1      23.274   5.881  51.648  1.00  0.00     0.160 A 
HETATM   13  C17 UNL     1      23.200   4.595  52.166  1.00  0.00     0.129 A 
HETATM   14  N4  UNL     1      24.398   4.229  52.817  1.00  0.00    -0.379 N 
HETATM   15  C18 UNL     1      24.912   2.890  52.939  1.00  0.00     0.161 C 
HETATM   16  H15 UNL     1      24.854   5.086  53.195  1.00  0.00     0.160 HD
ENDROOT
BRANCH  12  17
HETATM   17  N3  UNL     1      24.404   6.742  51.772  1.00  0.00    -0.338 N 
HETATM   18  H8  UNL     1      24.976   7.219  52.488  1.00  0.00     0.167 HD
BRANCH  17  19
HETATM   19  C11 UNL     1      24.983   7.092  50.499  1.00  0.00     0.047 A 
HETATM   20  C12 UNL     1      25.612   6.373  49.565  1.00  0.00     0.019 A 
HETATM   21 BR1  UNL     1      26.030   4.508  49.504  1.00  0.00    -0.053 Br
HETATM   22  C13 UNL     1      26.028   7.180  48.410  1.00  0.00     0.082 A 
HETATM   23  C14 UNL     1      25.575   8.534  48.733  1.00  0.00    -0.077 A 
HETATM   24  C15 UNL     1      25.693   9.808  47.953  1.00  0.00     0.044 C 
HETATM   25  C16 UNL     1      24.994   8.450  49.911  1.00  0.00     0.033 A 
ENDBRANCH  17  19
ENDBRANCH  12  17
BRANCH   1  26
HETATM   26  O1  UNL     1      21.786  -1.785  53.481  1.00  0.00    -0.356 OA
HETATM   27  C1  UNL     1      20.555  -1.821  54.186  1.00  0.00     0.210 C 
ENDBRANCH   1  26
TORSDOF 3
ENDMDL
MODEL 4
REMARK VINA RESULT:      -8.0      3.145      6.997
REMARK  3 active torsions:
REMARK  status: ('A' for Active; 'I' for Inactive)
REMARK    1  A    between atoms: O1_2  and  C2_3 
REMARK    2  A    between atoms: C10_14  and  N3_15 
REMARK    3  A    between atoms: N3_15  and  C11_16 
ROOT
HETATM    1  C2  UNL     1      27.117  -0.312  53.578  1.00  0.00     0.070 A 
HETATM    2  C3  UNL     1      25.762  -0.555  53.811  1.00  0.00     0.037 A 
HETATM    3  C4  UNL     1      24.778   0.119  53.125  1.00  0.00     0.014 A 
HETATM    4  C5  UNL     1      25.063   1.084  52.154  1.00  0.00    -0.006 A 
HETATM    5  C6  UNL     1      26.423   1.289  51.957  1.00  0.00     0.088 A 
HETATM    6  C7  UNL     1      27.423   0.630  52.629  1.00  0.00     0.074 A 
HETATM    7  O2  UNL     1      26.945   2.192  51.048  1.00  0.00    -0.289 OA
HETATM    8  C8  UNL     1      26.305   3.156  50.288  1.00  0.00     0.202 A 
HETATM    9  N1  UNL     1      27.147   4.096  49.794  1.00  0.00    -0.215 NA
HETATM   10  C9  UNL     1      26.704   5.115  49.030  1.00  0.00     0.238 A 
HETATM   11  N2  UNL     1      25.384   5.153  48.782  1.00  0.00    -0.222 NA
HETATM   12  C10 UNL     1      24.518   4.239  49.254  1.00  0.00     0.160 A 
HETATM   13  C17 UNL     1      24.943   3.179  50.043  1.00  0.00     0.129 A 
HETATM   14  N4  UNL     1      23.863   2.359  50.436  1.00  0.00    -0.379 N 
HETATM   15  C18 UNL     1      23.794   1.585  51.647  1.00  0.00     0.161 C 
HETATM   16  H15 UNL     1      23.120   2.406  49.707  1.00  0.00     0.160 HD
ENDROOT
BRANCH  12  17
HETATM   17  N3  UNL     1      23.166   4.469  48.863  1.00  0.00    -0.338 N 
HETATM   18  H8  UNL     1      22.415   4.056  48.285  1.00  0.00     0.167 HD
BRANCH  17  19
HETATM   19  C11 UNL     1      22.609   5.664  49.447  1.00  0.00     0.047 A 
HETATM   20  C12 UNL     1      22.152   5.942  50.670  1.00  0.00     0.019 A 
HETATM   21 BR1  UNL     1      22.034   4.845  52.233  1.00  0.00    -0.053 Br
HETATM   22  C13 UNL     1      21.679   7.327  50.801  1.00  0.00     0.082 A 
HETATM   23  C14 UNL     1      21.898   7.909  49.475  1.00  0.00    -0.077 A 
HETATM   24  C15 UNL     1      21.626   9.292  48.967  1.00  0.00     0.044 C 
HETATM   25  C16 UNL     1      22.419   6.950  48.740  1.00  0.00     0.033 A 
ENDBRANCH  17  19
ENDBRANCH  12  17
BRANCH   1  26
HETATM   26  O1  UNL     1      28.173  -0.915  54.196  1.00  0.00    -0.356 OA
HETATM   27  C1  UNL     1      29.405  -1.176  53.545  1.00  0.00     0.210 C 
ENDBRANCH   1  26
TORSDOF 3
ENDMDL
MODEL 5
REMARK VINA RESULT:      -7.9      4.773      7.212
REMARK  3 active torsions:
REMARK  status: ('A' for Active; 'I' for Inactive)
REMARK    1  A    between atoms: O1_2  and  C2_3 
REMARK    2  A    between atoms: C10_14  and  N3_15 
REMARK    3  A    between atoms: N3_15  and  C11_16 
ROOT
HETATM    1  C2  UNL     1      27.422  -0.619  53.093  1.00  0.00     0.070 A 
HETATM    2  C3  UNL     1      27.486   0.575  52.370  1.00  0.00     0.037 A 
HETATM    3  C4  UNL     1      26.364   1.334  52.127  1.00  0.00     0.014 A 
HETATM    4  C5  UNL     1      25.094   0.968  52.582  1.00  0.00    -0.006 A 
HETATM    5  C6  UNL     1      25.081  -0.224  53.296  1.00  0.00     0.088 A 
HETATM    6  C7  UNL     1      26.186  -0.999  53.553  1.00  0.00     0.074 A 
HETATM    7  O2  UNL     1      23.942  -0.784  53.846  1.00  0.00    -0.289 OA
HETATM    8  C8  UNL     1      22.615  -0.421  53.698  1.00  0.00     0.202 A 
HETATM    9  N1  UNL     1      21.748  -1.394  54.069  1.00  0.00    -0.215 NA
HETATM   10  C9  UNL     1      20.413  -1.221  53.994  1.00  0.00     0.238 A 
HETATM   11  N2  UNL     1      19.983  -0.035  53.533  1.00  0.00    -0.222 NA
HETATM   12  C10 UNL     1      20.811   0.954  53.155  1.00  0.00     0.160 A 
HETATM   13  C17 UNL     1      22.191   0.807  53.220  1.00  0.00     0.129 A 
HETATM   14  N4  UNL     1      22.858   1.963  52.759  1.00  0.00    -0.379 N 
HETATM   15  C18 UNL     1      24.157   1.991  52.140  1.00  0.00     0.161 C 
HETATM   16  H15 UNL     1      22.257   2.794  52.937  1.00  0.00     0.160 HD
ENDROOT
BRANCH  12  17
HETATM   17  N3  UNL     1      20.141   2.129  52.703  1.00  0.00    -0.338 N 
HETATM   18  H8  UNL     1      20.055   3.137  52.916  1.00  0.00     0.167 HD
BRANCH  17  19
HETATM   19  C11 UNL     1      19.289   1.886  51.566  1.00  0.00     0.047 A 
HETATM   20  C12 UNL     1      19.546   1.531  50.305  1.00  0.00     0.019 A 
HETATM   21 BR1  UNL     1      21.208   1.179  49.426  1.00  0.00    -0.053 Br
HETATM   22  C13 UNL     1      18.330   1.392  49.492  1.00  0.00     0.082 A 
HETATM   23  C14 UNL     1      17.240   1.710  50.417  1.00  0.00    -0.077 A 
HETATM   24  C15 UNL     1      15.759   1.740  50.197  1.00  0.00     0.044 C 
HETATM   25  C16 UNL     1      17.813   1.983  51.571  1.00  0.00     0.033 A 
ENDBRANCH  17  19
ENDBRANCH  12  17
BRANCH   1  26
HETATM   26  O1  UNL     1      28.461  -1.449  53.391  1.00  0.00    -0.356 OA
HETATM   27  C1  UNL     1      29.770  -0.981  53.677  1.00  0.00     0.210 C 
ENDBRANCH   1  26
TORSDOF 3
ENDMDL
MODEL 6
REMARK VINA RESULT:      -7.6      1.698      2.363
REMARK  3 active torsions:
REMARK  status: ('A' for Active; 'I' for Inactive)
REMARK    1  A    between atoms: O1_2  and  C2_3 
REMARK    2  A    between atoms: C10_14  and  N3_15 
REMARK    3  A    between atoms: N3_15  and  C11_16 
ROOT
HETATM    1  C2  UNL     1      29.086   8.981  47.837  1.00  0.00     0.070 A 
HETATM    2  C3  UNL     1      29.772   7.832  47.439  1.00  0.00     0.037 A 
HETATM    3  C4  UNL     1      29.293   6.572  47.713  1.00  0.00     0.014 A 
HETATM    4  C5  UNL     1      28.096   6.355  48.403  1.00  0.00    -0.006 A 
HETATM    5  C6  UNL     1      27.450   7.526  48.776  1.00  0.00     0.088 A 
HETATM    6  C7  UNL     1      27.907   8.794  48.514  1.00  0.00     0.074 A 
HETATM    7  O2  UNL     1      26.250   7.561  49.464  1.00  0.00    -0.289 OA
HETATM    8  C8  UNL     1      25.533   6.533  50.051  1.00  0.00     0.202 A 
HETATM    9  N1  UNL     1      24.612   6.964  50.946  1.00  0.00    -0.215 NA
HETATM   10  C9  UNL     1      23.819   6.105  51.618  1.00  0.00     0.238 A 
HETATM   11  N2  UNL     1      23.988   4.798  51.357  1.00  0.00    -0.222 NA
HETATM   12  C10 UNL     1      24.891   4.332  50.477  1.00  0.00     0.160 A 
HETATM   13  C17 UNL     1      25.722   5.191  49.770  1.00  0.00     0.129 A 
HETATM   14  N4  UNL     1      26.597   4.482  48.918  1.00  0.00    -0.379 N 
HETATM   15  C18 UNL     1      27.909   4.915  48.515  1.00  0.00     0.161 C 
HETATM   16  H15 UNL     1      26.141   3.591  48.631  1.00  0.00     0.160 HD
ENDROOT
BRANCH  12  17
HETATM   17  N3  UNL     1      24.896   2.912  50.350  1.00  0.00    -0.338 N 
HETATM   18  H8  UNL     1      24.607   2.162  49.701  1.00  0.00     0.167 HD
BRANCH  17  19
HETATM   19  C11 UNL     1      25.502   2.252  51.479  1.00  0.00     0.047 A 
HETATM   20  C12 UNL     1      25.015   1.434  52.416  1.00  0.00     0.019 A 
HETATM   21 BR1  UNL     1      23.245   0.758  52.678  1.00  0.00    -0.053 Br
HETATM   22  C13 UNL     1      26.035   0.999  53.380  1.00  0.00     0.082 A 
HETATM   23  C14 UNL     1      27.263   1.658  52.928  1.00  0.00    -0.077 A 
HETATM   24  C15 UNL     1      28.651   1.609  53.487  1.00  0.00     0.044 C 
HETATM   25  C16 UNL     1      26.928   2.353  51.862  1.00  0.00     0.033 A 
ENDBRANCH  17  19
ENDBRANCH  12  17
BRANCH   1  26
HETATM   26  O1  UNL     1      29.464  10.273  47.623  1.00  0.00    -0.356 OA
HETATM   27  C1  UNL     1      30.804  10.655  47.358  1.00  0.00     0.210 C 
ENDBRANCH   1  26
TORSDOF 3
ENDMDL
MODEL 7
REMARK VINA RESULT:      -7.6      5.950      8.574
REMARK  3 active torsions:
REMARK  status: ('A' for Active; 'I' for Inactive)
REMARK    1  A    between atoms: O1_2  and  C2_3 
REMARK    2  A    between atoms: C10_14  and  N3_15 
REMARK    3  A    between atoms: N3_15  and  C11_16 
ROOT
HETATM    1  C2  UNL     1      16.699  -0.484  52.274  1.00  0.00     0.070 A 
HETATM    2  C3  UNL     1      17.025   0.289  51.158  1.00  0.00     0.037 A 
HETATM    3  C4  UNL     1      18.329   0.600  50.850  1.00  0.00     0.014 A 
HETATM    4  C5  UNL     1      19.410   0.166  51.625  1.00  0.00    -0.006 A 
HETATM    5  C6  UNL     1      19.035  -0.600  52.721  1.00  0.00     0.088 A 
HETATM    6  C7  UNL     1      17.742  -0.924  53.050  1.00  0.00     0.074 A 
HETATM    7  O2  UNL     1      19.929  -1.140  53.629  1.00  0.00    -0.289 OA
HETATM    8  C8  UNL     1      21.292  -0.936  53.761  1.00  0.00     0.202 A 
HETATM    9  N1  UNL     1      21.779  -1.324  54.964  1.00  0.00    -0.215 NA
HETATM   10  C9  UNL     1      23.085  -1.201  55.274  1.00  0.00     0.238 A 
HETATM   11  N2  UNL     1      23.883  -0.674  54.330  1.00  0.00    -0.222 NA
HETATM   12  C10 UNL     1      23.437  -0.278  53.125  1.00  0.00     0.160 A 
HETATM   13  C17 UNL     1      22.098  -0.390  52.776  1.00  0.00     0.129 A 
HETATM   14  N4  UNL     1      21.858   0.101  51.475  1.00  0.00    -0.379 N 
HETATM   15  C18 UNL     1      20.625   0.682  51.011  1.00  0.00     0.161 C 
HETATM   16  H15 UNL     1      22.720  -0.020  50.903  1.00  0.00     0.160 HD
ENDROOT
BRANCH  12  17
HETATM   17  N3  UNL     1      24.456   0.247  52.276  1.00  0.00    -0.338 N 
HETATM   18  H8  UNL     1      24.575   0.821  51.426  1.00  0.00     0.167 HD
BRANCH  17  19
HETATM   19  C11 UNL     1      25.784  -0.112  52.707  1.00  0.00     0.047 A 
HETATM   20  C12 UNL     1      26.752   0.577  53.317  1.00  0.00     0.019 A 
HETATM   21 BR1  UNL     1      26.802   2.396  53.905  1.00  0.00    -0.053 Br
HETATM   22  C13 UNL     1      27.955  -0.229  53.566  1.00  0.00     0.082 A 
HETATM   23  C14 UNL     1      27.623  -1.549  53.026  1.00  0.00    -0.077 A 
HETATM   24  C15 UNL     1      28.432  -2.809  52.981  1.00  0.00     0.044 C 
HETATM   25  C16 UNL     1      26.400  -1.448  52.551  1.00  0.00     0.033 A 
ENDBRANCH  17  19
ENDBRANCH  12  17
BRANCH   1  26
HETATM   26  O1  UNL     1      15.448  -0.851  52.676  1.00  0.00    -0.356 OA
HETATM   27  C1  UNL     1      14.468   0.079  53.107  1.00  0.00     0.210 C 
ENDBRANCH   1  26
TORSDOF 3
ENDMDL
MODEL 8
REMARK VINA RESULT:      -7.4      4.682      6.926
REMARK  3 active torsions:
REMARK  status: ('A' for Active; 'I' for Inactive)
REMARK    1  A    between atoms: O1_2  and  C2_3 
REMARK    2  A    between atoms: C10_14  and  N3_15 
REMARK    3  A    between atoms: N3_15  and  C11_16 
ROOT
HETATM    1  C2  UNL     1      27.245  -0.666  53.177  1.00  0.00     0.070 A 
HETATM    2  C3  UNL     1      27.613   0.594  52.700  1.00  0.00     0.037 A 
HETATM    3  C4  UNL     1      26.679   1.573  52.450  1.00  0.00     0.014 A 
HETATM    4  C5  UNL     1      25.310   1.378  52.656  1.00  0.00    -0.006 A 
HETATM    5  C6  UNL     1      24.994   0.113  53.132  1.00  0.00     0.088 A 
HETATM    6  C7  UNL     1      25.906  -0.881  53.389  1.00  0.00     0.074 A 
HETATM    7  O2  UNL     1      23.706  -0.309  53.411  1.00  0.00    -0.289 OA
HETATM    8  C8  UNL     1      22.495   0.308  53.153  1.00  0.00     0.202 A 
HETATM    9  N1  UNL     1      21.437  -0.536  53.220  1.00  0.00    -0.215 NA
HETATM   10  C9  UNL     1      20.176  -0.112  52.998  1.00  0.00     0.238 A 
HETATM   11  N2  UNL     1      20.019   1.189  52.707  1.00  0.00    -0.222 NA
HETATM   12  C10 UNL     1      21.043   2.057  52.632  1.00  0.00     0.160 A 
HETATM   13  C17 UNL     1      22.352   1.652  52.855  1.00  0.00     0.129 A 
HETATM   14  N4  UNL     1      23.259   2.724  52.708  1.00  0.00    -0.379 N 
HETATM   15  C18 UNL     1      24.630   2.612  52.285  1.00  0.00     0.161 C 
HETATM   16  H15 UNL     1      22.774   3.614  52.951  1.00  0.00     0.160 HD
ENDROOT
BRANCH  12  17
HETATM   17  N3  UNL     1      20.649   3.391  52.316  1.00  0.00    -0.338 N 
HETATM   18  H8  UNL     1      20.566   4.327  52.745  1.00  0.00     0.167 HD
BRANCH  17  19
HETATM   19  C11 UNL     1      20.216   3.538  50.949  1.00  0.00     0.047 A 
HETATM   20  C12 UNL     1      19.019   3.757  50.399  1.00  0.00     0.019 A 
HETATM   21 BR1  UNL     1      17.301   3.982  51.209  1.00  0.00    -0.053 Br
HETATM   22  C13 UNL     1      19.072   3.840  48.933  1.00  0.00     0.082 A 
HETATM   23  C14 UNL     1      20.486   3.641  48.611  1.00  0.00    -0.077 A 
HETATM   24  C15 UNL     1      21.185   3.622  47.286  1.00  0.00     0.044 C 
HETATM   25  C16 UNL     1      21.099   3.474  49.763  1.00  0.00     0.033 A 
ENDBRANCH  17  19
ENDBRANCH  12  17
BRANCH   1  26
HETATM   26  O1  UNL     1      28.078  -1.708  53.457  1.00  0.00    -0.356 OA
HETATM   27  C1  UNL     1      29.492  -1.592  53.457  1.00  0.00     0.210 C 
ENDBRANCH   1  26
TORSDOF 3
ENDMDL
MODEL 9
REMARK VINA RESULT:      -7.3      4.182      6.942
REMARK  3 active torsions:
REMARK  status: ('A' for Active; 'I' for Inactive)
REMARK    1  A    between atoms: O1_2  and  C2_3 
REMARK    2  A    between atoms: C10_14  and  N3_15 
REMARK    3  A    between atoms: N3_15  and  C11_16 
ROOT
HETATM    1  C2  UNL     1      26.552   0.730  54.411  1.00  0.00     0.070 A 
HETATM    2  C3  UNL     1      25.778  -0.431  54.366  1.00  0.00     0.037 A 
HETATM    3  C4  UNL     1      24.533  -0.448  53.781  1.00  0.00     0.014 A 
HETATM    4  C5  UNL     1      23.961   0.686  53.195  1.00  0.00    -0.006 A 
HETATM    5  C6  UNL     1      24.769   1.814  53.262  1.00  0.00     0.088 A 
HETATM    6  C7  UNL     1      26.014   1.856  53.840  1.00  0.00     0.074 A 
HETATM    7  O2  UNL     1      24.416   3.049  52.749  1.00  0.00    -0.289 OA
HETATM    8  C8  UNL     1      23.209   3.483  52.230  1.00  0.00     0.202 A 
HETATM    9  N1  UNL     1      23.106   4.832  52.165  1.00  0.00    -0.215 NA
HETATM   10  C9  UNL     1      22.000   5.437  51.687  1.00  0.00     0.238 A 
HETATM   11  N2  UNL     1      21.003   4.636  51.277  1.00  0.00    -0.222 NA
HETATM   12  C10 UNL     1      21.067   3.294  51.326  1.00  0.00     0.160 A 
HETATM   13  C17 UNL     1      22.192   2.641  51.814  1.00  0.00     0.129 A 
HETATM   14  N4  UNL     1      22.030   1.239  51.785  1.00  0.00    -0.379 N 
HETATM   15  C18 UNL     1      22.651   0.304  52.687  1.00  0.00     0.161 C 
HETATM   16  H15 UNL     1      21.385   0.988  51.007  1.00  0.00     0.160 HD
ENDROOT
BRANCH  12  17
HETATM   17  N3  UNL     1      19.899   2.641  50.835  1.00  0.00    -0.338 N 
HETATM   18  H8  UNL     1      19.138   2.014  51.146  1.00  0.00     0.167 HD
BRANCH  17  19
HETATM   19  C11 UNL     1      19.644   2.920  49.444  1.00  0.00     0.047 A 
HETATM   20  C12 UNL     1      20.340   2.672  48.332  1.00  0.00     0.019 A 
HETATM   21 BR1  UNL     1      22.030   1.811  48.088  1.00  0.00    -0.053 Br
HETATM   22  C13 UNL     1      19.662   3.147  47.118  1.00  0.00     0.082 A 
HETATM   23  C14 UNL     1      18.417   3.742  47.609  1.00  0.00    -0.077 A 
HETATM   24  C15 UNL     1      17.292   4.392  46.863  1.00  0.00     0.044 C 
HETATM   25  C16 UNL     1      18.439   3.598  48.917  1.00  0.00     0.033 A 
ENDBRANCH  17  19
ENDBRANCH  12  17
BRANCH   1  26
HETATM   26  O1  UNL     1      27.792   0.863  54.962  1.00  0.00    -0.356 OA
HETATM   27  C1  UNL     1      28.967   1.056  54.191  1.00  0.00     0.210 C 
ENDBRANCH   1  26
TORSDOF 3
ENDMDL
