MODEL 1
REMARK VINA RESULT:      -8.5      0.000      0.000
REMARK  8 active torsions:
REMARK  status: ('A' for Active; 'I' for Inactive)
REMARK    1  A    between atoms: C3_3  and  C4_4 
REMARK    2  A    between atoms: C4_4  and  N1_5 
REMARK    3  A    between atoms: N1_5  and  C5_6 
REMARK    4  A    between atoms: C7_8  and  N2_9 
REMARK    5  A    between atoms: N2_9  and  C8_10 
REMARK    6  A    between atoms: C8_10  and  C9_11 
REMARK    7  A    between atoms: C9_11  and  C10_12 
REMARK    8  A    between atoms: C17_20  and  N4_21 
ROOT
HETATM    1  C5  UNL     1      27.522   2.375  52.521  1.00  0.00     0.146 A 
HETATM    2  C6  UNL     1      26.781   1.263  52.939  1.00  0.00     0.101 A 
HETATM    3  C7  UNL     1      27.093   0.459  53.993  1.00  0.00     0.146 A 
HETATM    4  N3  UNL     1      28.221   0.808  54.658  1.00  0.00    -0.046 NA
HETATM    5  C17 UNL     1      28.979   1.861  54.312  1.00  0.00     0.724 A 
HETATM    6  N5  UNL     1      28.611   2.608  53.264  1.00  0.00    -0.046 NA
ENDROOT
BRANCH   3   7
HETATM    7  N2  UNL     1      26.329  -0.689  54.419  1.00  0.00    -0.374 N 
HETATM    8  H8  UNL     1      26.874  -1.577  54.555  1.00  0.00     0.161 HD
BRANCH   7   9
HETATM    9  C8  UNL     1      24.937  -0.665  54.651  1.00  0.00     0.126 C 
BRANCH   9  10
HETATM   10  C9  UNL     1      24.121  -0.903  53.422  1.00  0.00     0.058 C 
BRANCH  10  11
HETATM   11  C10 UNL     1      22.929  -0.058  53.277  1.00  0.00    -0.051 A 
HETATM   12  C11 UNL     1      23.171   1.122  52.553  1.00  0.00     0.007 A 
HETATM   13  C12 UNL     1      22.254   2.125  52.276  1.00  0.00     0.001 A 
HETATM   14  C13 UNL     1      20.976   1.954  52.756  1.00  0.00     0.001 A 
HETATM   15  C14 UNL     1      20.698   0.824  53.462  1.00  0.00     0.007 A 
HETATM   16  C15 UNL     1      21.635  -0.149  53.717  1.00  0.00    -0.056 A 
HETATM   17  C16 UNL     1      21.299  -1.372  54.460  1.00  0.00     0.049 C 
ENDBRANCH  10  11
ENDBRANCH   9  10
ENDBRANCH   7   9
ENDBRANCH   3   7
BRANCH   1  18
HETATM   18  N1  UNL     1      26.964   3.021  51.389  1.00  0.00    -0.370 N 
HETATM   19  H6  UNL     1      27.071   4.018  51.740  1.00  0.00     0.161 HD
BRANCH  18  20
HETATM   20  C4  UNL     1      26.397   2.686  50.124  1.00  0.00     0.156 C 
BRANCH  20  21
HETATM   21  C3  UNL     1      25.408   3.644  49.630  1.00  0.00    -0.056 A 
HETATM   22  C2  UNL     1      24.217   3.777  49.132  1.00  0.00    -0.079 A 
HETATM   23  C1  UNL     1      23.095   2.883  48.761  1.00  0.00     0.044 C 
HETATM   24  C20 UNL     1      24.340   5.228  49.025  1.00  0.00     0.042 A 
HETATM   25  C18 UNL     1      25.670   5.070  49.616  1.00  0.00     0.016 A 
HETATM   26  C19 UNL     1      26.854   5.411  48.727  1.00  0.00     0.015 C 
ENDBRANCH  20  21
ENDBRANCH  18  20
ENDBRANCH   1  18
BRANCH   5  27
HETATM   27  N4  UNL     1      30.166   2.252  54.989  1.00  0.00    -0.231 N 
HETATM   28  H20 UNL     1      30.754   2.705  54.275  1.00  0.00     0.174 HD
HETATM   29  H21 UNL     1      30.142   1.996  55.984  1.00  0.00     0.174 HD
ENDBRANCH   5  27
TORSDOF 8
ENDMDL
MODEL 2
REMARK VINA RESULT:      -8.4      0.639      1.417
REMARK  8 active torsions:
REMARK  status: ('A' for Active; 'I' for Inactive)
REMARK    1  A    between atoms: C3_3  and  C4_4 
REMARK    2  A    between atoms: C4_4  and  N1_5 
REMARK    3  A    between atoms: N1_5  and  C5_6 
REMARK    4  A    between atoms: C7_8  and  N2_9 
REMARK    5  A    between atoms: N2_9  and  C8_10 
REMARK    6  A    between atoms: C8_10  and  C9_11 
REMARK    7  A    between atoms: C9_11  and  C10_12 
REMARK    8  A    between atoms: C17_20  and  N4_21 
ROOT
HETATM    1  C5  UNL     1      27.541   2.328  52.496  1.00  0.00     0.146 A 
HETATM    2  C6  UNL     1      26.788   1.232  52.935  1.00  0.00     0.101 A 
HETATM    3  C7  UNL     1      27.082   0.456  54.016  1.00  0.00     0.146 A 
HETATM    4  N3  UNL     1      28.204   0.818  54.685  1.00  0.00    -0.046 NA
HETATM    5  C17 UNL     1      28.972   1.856  54.320  1.00  0.00     0.724 A 
HETATM    6  N5  UNL     1      28.622   2.576  53.246  1.00  0.00    -0.046 NA
ENDROOT
BRANCH   3   7
HETATM    7  N2  UNL     1      26.305  -0.674  54.464  1.00  0.00    -0.374 N 
HETATM    8  H8  UNL     1      26.845  -1.560  54.639  1.00  0.00     0.161 HD
BRANCH   7   9
HETATM    9  C8  UNL     1      24.910  -0.639  54.667  1.00  0.00     0.126 C 
BRANCH   9  10
HETATM   10  C9  UNL     1      24.117  -0.855  53.419  1.00  0.00     0.058 C 
BRANCH  10  11
HETATM   11  C10 UNL     1      22.907  -0.034  53.285  1.00  0.00    -0.051 A 
HETATM   12  C11 UNL     1      23.121   1.157  52.569  1.00  0.00     0.007 A 
HETATM   13  C12 UNL     1      22.182   2.142  52.304  1.00  0.00     0.001 A 
HETATM   14  C13 UNL     1      20.909   1.941  52.787  1.00  0.00     0.001 A 
HETATM   15  C14 UNL     1      20.658   0.799  53.486  1.00  0.00     0.007 A 
HETATM   16  C15 UNL     1      21.616  -0.156  53.729  1.00  0.00    -0.056 A 
HETATM   17  C16 UNL     1      21.309  -1.392  54.464  1.00  0.00     0.049 C 
ENDBRANCH  10  11
ENDBRANCH   9  10
ENDBRANCH   7   9
ENDBRANCH   3   7
BRANCH   1  18
HETATM   18  N1  UNL     1      27.003   2.945  51.339  1.00  0.00    -0.370 N 
HETATM   19  H6  UNL     1      27.878   3.472  51.051  1.00  0.00     0.161 HD
BRANCH  18  20
HETATM   20  C4  UNL     1      25.773   3.002  50.619  1.00  0.00     0.156 C 
BRANCH  20  21
HETATM   21  C3  UNL     1      25.612   4.195  49.786  1.00  0.00    -0.056 A 
HETATM   22  C2  UNL     1      26.228   5.050  49.029  1.00  0.00    -0.079 A 
HETATM   23  C1  UNL     1      27.615   5.275  48.559  1.00  0.00     0.044 C 
HETATM   24  C20 UNL     1      25.009   5.810  48.766  1.00  0.00     0.042 A 
HETATM   25  C18 UNL     1      24.319   4.822  49.598  1.00  0.00     0.016 A 
HETATM   26  C19 UNL     1      23.744   5.323  50.913  1.00  0.00     0.015 C 
ENDBRANCH  20  21
ENDBRANCH  18  20
ENDBRANCH   1  18
BRANCH   5  27
HETATM   27  N4  UNL     1      30.152   2.260  55.002  1.00  0.00    -0.231 N 
HETATM   28  H20 UNL     1      30.458   1.434  55.536  1.00  0.00     0.174 HD
HETATM   29  H21 UNL     1      30.397   3.237  54.799  1.00  0.00     0.174 HD
ENDBRANCH   5  27
TORSDOF 8
ENDMDL
MODEL 3
REMARK VINA RESULT:      -8.3      2.207      6.768
REMARK  8 active torsions:
REMARK  status: ('A' for Active; 'I' for Inactive)
REMARK    1  A    between atoms: C3_3  and  C4_4 
REMARK    2  A    between atoms: C4_4  and  N1_5 
REMARK    3  A    between atoms: N1_5  and  C5_6 
REMARK    4  A    between atoms: C7_8  and  N2_9 
REMARK    5  A    between atoms: N2_9  and  C8_10 
REMARK    6  A    between atoms: C8_10  and  C9_11 
REMARK    7  A    between atoms: C9_11  and  C10_12 
REMARK    8  A    between atoms: C17_20  and  N4_21 
ROOT
HETATM    1  C5  UNL     1      24.274  -0.559  53.830  1.00  0.00     0.146 A 
HETATM    2  C6  UNL     1      24.207   0.637  53.106  1.00  0.00     0.101 A 
HETATM    3  C7  UNL     1      23.069   1.340  52.850  1.00  0.00     0.146 A 
HETATM    4  N3  UNL     1      21.938   0.795  53.361  1.00  0.00    -0.046 NA
HETATM    5  C17 UNL     1      21.930  -0.348  54.065  1.00  0.00     0.724 A 
HETATM    6  N5  UNL     1      23.087  -0.986  54.278  1.00  0.00    -0.046 NA
ENDROOT
BRANCH   3   7
HETATM    7  N2  UNL     1      23.003   2.571  52.100  1.00  0.00    -0.374 N 
HETATM    8  H8  UNL     1      22.037   2.939  51.908  1.00  0.00     0.161 HD
BRANCH   7   9
HETATM    9  C8  UNL     1      24.136   3.271  51.634  1.00  0.00     0.126 C 
BRANCH   9  10
HETATM   10  C9  UNL     1      24.361   3.134  50.163  1.00  0.00     0.058 C 
BRANCH  10  11
HETATM   11  C10 UNL     1      25.164   4.196  49.542  1.00  0.00    -0.051 A 
HETATM   12  C11 UNL     1      26.521   3.857  49.406  1.00  0.00     0.007 A 
HETATM   13  C12 UNL     1      27.525   4.659  48.885  1.00  0.00     0.001 A 
HETATM   14  C13 UNL     1      27.163   5.915  48.454  1.00  0.00     0.001 A 
HETATM   15  C14 UNL     1      25.857   6.283  48.566  1.00  0.00     0.007 A 
HETATM   16  C15 UNL     1      24.889   5.459  49.089  1.00  0.00    -0.056 A 
HETATM   17  C16 UNL     1      23.481   5.875  49.173  1.00  0.00     0.049 C 
ENDBRANCH  10  11
ENDBRANCH   9  10
ENDBRANCH   7   9
ENDBRANCH   3   7
BRANCH   1  18
HETATM   18  N1  UNL     1      25.591  -1.074  53.934  1.00  0.00    -0.370 N 
HETATM   19  H6  UNL     1      25.522  -1.413  54.938  1.00  0.00     0.161 HD
BRANCH  18  20
HETATM   20  C4  UNL     1      26.764  -1.206  53.134  1.00  0.00     0.156 C 
BRANCH  20  21
HETATM   21  C3  UNL     1      27.789  -0.193  53.389  1.00  0.00    -0.056 A 
HETATM   22  C2  UNL     1      28.115   1.051  53.218  1.00  0.00    -0.079 A 
HETATM   23  C1  UNL     1      27.516   2.248  52.582  1.00  0.00     0.044 C 
HETATM   24  C20 UNL     1      29.394   0.890  53.905  1.00  0.00     0.042 A 
HETATM   25  C18 UNL     1      29.002  -0.505  54.118  1.00  0.00     0.016 A 
HETATM   26  C19 UNL     1      29.829  -1.560  53.403  1.00  0.00     0.015 C 
ENDBRANCH  20  21
ENDBRANCH  18  20
ENDBRANCH   1  18
BRANCH   5  27
HETATM   27  N4  UNL     1      20.761  -0.943  54.614  1.00  0.00    -0.231 N 
HETATM   28  H20 UNL     1      19.972  -0.389  54.251  1.00  0.00     0.174 HD
HETATM   29  H21 UNL     1      20.986  -1.748  55.212  1.00  0.00     0.174 HD
ENDBRANCH   5  27
TORSDOF 8
ENDMDL
MODEL 4
REMARK VINA RESULT:      -8.0      1.392      5.057
REMARK  8 active torsions:
REMARK  status: ('A' for Active; 'I' for Inactive)
REMARK    1  A    between atoms: C3_3  and  C4_4 
REMARK    2  A    between atoms: C4_4  and  N1_5 
REMARK    3  A    between atoms: N1_5  and  C5_6 
REMARK    4  A    between atoms: C7_8  and  N2_9 
REMARK    5  A    between atoms: N2_9  and  C8_10 
REMARK    6  A    between atoms: C8_10  and  C9_11 
REMARK    7  A    between atoms: C9_11  and  C10_12 
REMARK    8  A    between atoms: C17_20  and  N4_21 
ROOT
HETATM    1  C5  UNL     1      26.329   0.977  53.730  1.00  0.00     0.146 A 
HETATM    2  C6  UNL     1      26.208   1.696  52.534  1.00  0.00     0.101 A 
HETATM    3  C7  UNL     1      27.160   2.516  52.007  1.00  0.00     0.146 A 
HETATM    4  N3  UNL     1      28.297   2.608  52.739  1.00  0.00    -0.046 NA
HETATM    5  C17 UNL     1      28.480   1.947  53.893  1.00  0.00     0.724 A 
HETATM    6  N5  UNL     1      27.501   1.158  54.351  1.00  0.00    -0.046 NA
ENDROOT
BRANCH   3   7
HETATM    7  N2  UNL     1      27.030   3.257  50.776  1.00  0.00    -0.374 N 
HETATM    8  H8  UNL     1      27.868   3.827  50.495  1.00  0.00     0.161 HD
BRANCH   7   9
HETATM    9  C8  UNL     1      25.873   3.247  49.969  1.00  0.00     0.126 C 
BRANCH   9  10
HETATM   10  C9  UNL     1      25.178   4.567  49.903  1.00  0.00     0.058 C 
BRANCH  10  11
HETATM   11  C10 UNL     1      23.768   4.565  50.317  1.00  0.00    -0.051 A 
HETATM   12  C11 UNL     1      23.596   4.755  51.699  1.00  0.00     0.007 A 
HETATM   13  C12 UNL     1      22.392   4.773  52.386  1.00  0.00     0.001 A 
HETATM   14  C13 UNL     1      21.246   4.587  51.648  1.00  0.00     0.001 A 
HETATM   15  C14 UNL     1      21.368   4.400  50.304  1.00  0.00     0.007 A 
HETATM   16  C15 UNL     1      22.580   4.389  49.658  1.00  0.00    -0.056 A 
HETATM   17  C16 UNL     1      22.679   4.211  48.201  1.00  0.00     0.049 C 
ENDBRANCH  10  11
ENDBRANCH   9  10
ENDBRANCH   7   9
ENDBRANCH   3   7
BRANCH   1  18
HETATM   18  N1  UNL     1      25.177   0.210  54.037  1.00  0.00    -0.370 N 
HETATM   19  H6  UNL     1      25.122   0.461  55.067  1.00  0.00     0.161 HD
BRANCH  18  20
HETATM   20  C4  UNL     1      24.255  -0.661  53.385  1.00  0.00     0.156 C 
BRANCH  20  21
HETATM   21  C3  UNL     1      22.868  -0.194  53.397  1.00  0.00    -0.056 A 
HETATM   22  C2  UNL     1      21.657  -0.480  53.763  1.00  0.00    -0.079 A 
HETATM   23  C1  UNL     1      20.973  -1.595  54.460  1.00  0.00     0.044 C 
HETATM   24  C20 UNL     1      21.115   0.757  53.208  1.00  0.00     0.042 A 
HETATM   25  C18 UNL     1      22.490   1.083  52.826  1.00  0.00     0.016 A 
HETATM   26  C19 UNL     1      22.787   1.139  51.337  1.00  0.00     0.015 C 
ENDBRANCH  20  21
ENDBRANCH  18  20
ENDBRANCH   1  18
BRANCH   5  27
HETATM   27  N4  UNL     1      29.660   2.023  54.682  1.00  0.00    -0.231 N 
HETATM   28  H20 UNL     1      29.338   2.044  55.660  1.00  0.00     0.174 HD
HETATM   29  H21 UNL     1      30.509   2.036  54.103  1.00  0.00     0.174 HD
ENDBRANCH   5  27
TORSDOF 8
ENDMDL
MODEL 5
REMARK VINA RESULT:      -7.9      2.281      6.516
REMARK  8 active torsions:
REMARK  status: ('A' for Active; 'I' for Inactive)
REMARK    1  A    between atoms: C3_3  and  C4_4 
REMARK    2  A    between atoms: C4_4  and  N1_5 
REMARK    3  A    between atoms: N1_5  and  C5_6 
REMARK    4  A    between atoms: C7_8  and  N2_9 
REMARK    5  A    between atoms: N2_9  and  C8_10 
REMARK    6  A    between atoms: C8_10  and  C9_11 
REMARK    7  A    between atoms: C9_11  and  C10_12 
REMARK    8  A    between atoms: C17_20  and  N4_21 
ROOT
HETATM    1  C5  UNL     1      23.953  -0.296  53.251  1.00  0.00     0.146 A 
HETATM    2  C6  UNL     1      23.539   0.932  52.720  1.00  0.00     0.101 A 
HETATM    3  C7  UNL     1      22.267   1.419  52.759  1.00  0.00     0.146 A 
HETATM    4  N3  UNL     1      21.370   0.610  53.373  1.00  0.00    -0.046 NA
HETATM    5  C17 UNL     1      21.697  -0.578  53.903  1.00  0.00     0.724 A 
HETATM    6  N5  UNL     1      22.967  -0.994  53.829  1.00  0.00    -0.046 NA
ENDROOT
BRANCH   3   7
HETATM    7  N2  UNL     1      21.844   2.684  52.208  1.00  0.00    -0.374 N 
HETATM    8  H8  UNL     1      20.805   2.839  52.163  1.00  0.00     0.161 HD
BRANCH   7   9
HETATM    9  C8  UNL     1      22.732   3.678  51.746  1.00  0.00     0.126 C 
BRANCH   9  10
HETATM   10  C9  UNL     1      22.929   3.664  50.265  1.00  0.00     0.058 C 
BRANCH  10  11
HETATM   11  C10 UNL     1      24.263   4.064  49.797  1.00  0.00    -0.051 A 
HETATM   12  C11 UNL     1      25.250   3.093  50.037  1.00  0.00     0.007 A 
HETATM   13  C12 UNL     1      26.599   3.193  49.735  1.00  0.00     0.001 A 
HETATM   14  C13 UNL     1      27.023   4.360  49.140  1.00  0.00     0.001 A 
HETATM   15  C14 UNL     1      26.098   5.327  48.889  1.00  0.00     0.007 A 
HETATM   16  C15 UNL     1      24.767   5.191  49.204  1.00  0.00    -0.056 A 
HETATM   17  C16 UNL     1      23.787   6.243  48.896  1.00  0.00     0.049 C 
ENDBRANCH  10  11
ENDBRANCH   9  10
ENDBRANCH   7   9
ENDBRANCH   3   7
BRANCH   1  18
HETATM   18  N1  UNL     1      25.335  -0.548  53.059  1.00  0.00    -0.370 N 
HETATM   19  H6  UNL     1      25.465  -1.206  53.882  1.00  0.00     0.161 HD
BRANCH  18  20
HETATM   20  C4  UNL     1      26.387  -0.176  52.171  1.00  0.00     0.156 C 
BRANCH  20  21
HETATM   21  C3  UNL     1      27.519   0.490  52.817  1.00  0.00    -0.056 A 
HETATM   22  C2  UNL     1      28.651   0.306  53.424  1.00  0.00    -0.079 A 
HETATM   23  C1  UNL     1      29.488  -0.849  53.824  1.00  0.00     0.044 C 
HETATM   24  C20 UNL     1      28.863   1.737  53.625  1.00  0.00     0.042 A 
HETATM   25  C18 UNL     1      27.599   1.934  52.912  1.00  0.00     0.016 A 
HETATM   26  C19 UNL     1      26.446   2.506  53.719  1.00  0.00     0.015 C 
ENDBRANCH  20  21
ENDBRANCH  18  20
ENDBRANCH   1  18
BRANCH   5  27
HETATM   27  N4  UNL     1      20.778  -1.447  54.553  1.00  0.00    -0.231 N 
HETATM   28  H20 UNL     1      20.479  -0.946  55.403  1.00  0.00     0.174 HD
HETATM   29  H21 UNL     1      20.646  -2.323  54.034  1.00  0.00     0.174 HD
ENDBRANCH   5  27
TORSDOF 8
ENDMDL
MODEL 6
REMARK VINA RESULT:      -7.8      2.427      7.059
REMARK  8 active torsions:
REMARK  status: ('A' for Active; 'I' for Inactive)
REMARK    1  A    between atoms: C3_3  and  C4_4 
REMARK    2  A    between atoms: C4_4  and  N1_5 
REMARK    3  A    between atoms: N1_5  and  C5_6 
REMARK    4  A    between atoms: C7_8  and  N2_9 
REMARK    5  A    between atoms: N2_9  and  C8_10 
REMARK    6  A    between atoms: C8_10  and  C9_11 
REMARK    7  A    between atoms: C9_11  and  C10_12 
REMARK    8  A    between atoms: C17_20  and  N4_21 
ROOT
HETATM    1  C5  UNL     1      24.402   0.989  52.514  1.00  0.00     0.146 A 
HETATM    2  C6  UNL     1      24.566   2.375  52.632  1.00  0.00     0.101 A 
HETATM    3  C7  UNL     1      23.569   3.298  52.532  1.00  0.00     0.146 A 
HETATM    4  N3  UNL     1      22.338   2.780  52.301  1.00  0.00    -0.046 NA
HETATM    5  C17 UNL     1      22.109   1.463  52.177  1.00  0.00     0.724 A 
HETATM    6  N5  UNL     1      23.137   0.613  52.286  1.00  0.00    -0.046 NA
ENDROOT
BRANCH   3   7
HETATM    7  N2  UNL     1      23.742   4.725  52.652  1.00  0.00    -0.374 N 
HETATM    8  H8  UNL     1      23.608   5.123  53.616  1.00  0.00     0.161 HD
BRANCH   7   9
HETATM    9  C8  UNL     1      24.070   5.572  51.572  1.00  0.00     0.126 C 
BRANCH   9  10
HETATM   10  C9  UNL     1      24.294   4.844  50.287  1.00  0.00     0.058 C 
BRANCH  10  11
HETATM   11  C10 UNL     1      25.575   5.111  49.620  1.00  0.00    -0.051 A 
HETATM   12  C11 UNL     1      25.710   6.442  49.190  1.00  0.00     0.007 A 
HETATM   13  C12 UNL     1      26.790   6.985  48.510  1.00  0.00     0.001 A 
HETATM   14  C13 UNL     1      27.839   6.141  48.224  1.00  0.00     0.001 A 
HETATM   15  C14 UNL     1      27.749   4.843  48.624  1.00  0.00     0.007 A 
HETATM   16  C15 UNL     1      26.661   4.340  49.298  1.00  0.00    -0.056 A 
HETATM   17  C16 UNL     1      26.604   2.940  49.741  1.00  0.00     0.049 C 
ENDBRANCH  10  11
ENDBRANCH   9  10
ENDBRANCH   7   9
ENDBRANCH   3   7
BRANCH   1  18
HETATM   18  N1  UNL     1      25.616   0.271  52.654  1.00  0.00    -0.370 N 
HETATM   19  H6  UNL     1      25.908   0.304  51.634  1.00  0.00     0.161 HD
BRANCH  18  20
HETATM   20  C4  UNL     1      26.382  -0.366  53.675  1.00  0.00     0.156 C 
BRANCH  20  21
HETATM   21  C3  UNL     1      27.788   0.038  53.719  1.00  0.00    -0.056 A 
HETATM   22  C2  UNL     1      28.607   1.039  53.626  1.00  0.00    -0.079 A 
HETATM   23  C1  UNL     1      28.506   2.499  53.392  1.00  0.00     0.044 C 
HETATM   24  C20 UNL     1      29.782   0.197  53.828  1.00  0.00     0.042 A 
HETATM   25  C18 UNL     1      28.847  -0.922  53.962  1.00  0.00     0.016 A 
HETATM   26  C19 UNL     1      28.898  -1.984  52.876  1.00  0.00     0.015 C 
ENDBRANCH  20  21
ENDBRANCH  18  20
ENDBRANCH   1  18
BRANCH   5  27
HETATM   27  N4  UNL     1      20.830   0.891  51.935  1.00  0.00    -0.231 N 
HETATM   28  H20 UNL     1      20.149   1.621  52.188  1.00  0.00     0.174 HD
HETATM   29  H21 UNL     1      20.902  -0.071  51.580  1.00  0.00     0.174 HD
ENDBRANCH   5  27
TORSDOF 8
ENDMDL
MODEL 7
REMARK VINA RESULT:      -7.7      1.076      5.231
REMARK  8 active torsions:
REMARK  status: ('A' for Active; 'I' for Inactive)
REMARK    1  A    between atoms: C3_3  and  C4_4 
REMARK    2  A    between atoms: C4_4  and  N1_5 
REMARK    3  A    between atoms: N1_5  and  C5_6 
REMARK    4  A    between atoms: C7_8  and  N2_9 
REMARK    5  A    between atoms: N2_9  and  C8_10 
REMARK    6  A    between atoms: C8_10  and  C9_11 
REMARK    7  A    between atoms: C9_11  and  C10_12 
REMARK    8  A    between atoms: C17_20  and  N4_21 
ROOT
HETATM    1  C5  UNL     1      26.370   0.921  53.752  1.00  0.00     0.146 A 
HETATM    2  C6  UNL     1      26.208   1.674  52.583  1.00  0.00     0.101 A 
HETATM    3  C7  UNL     1      27.133   2.529  52.062  1.00  0.00     0.146 A 
HETATM    4  N3  UNL     1      28.284   2.620  52.771  1.00  0.00    -0.046 NA
HETATM    5  C17 UNL     1      28.506   1.928  53.899  1.00  0.00     0.724 A 
HETATM    6  N5  UNL     1      27.552   1.105  54.353  1.00  0.00    -0.046 NA
ENDROOT
BRANCH   3   7
HETATM    7  N2  UNL     1      26.961   3.306  50.858  1.00  0.00    -0.374 N 
HETATM    8  H8  UNL     1      27.557   4.169  50.781  1.00  0.00     0.161 HD
BRANCH   7   9
HETATM    9  C8  UNL     1      26.064   2.967  49.823  1.00  0.00     0.126 C 
BRANCH   9  10
HETATM   10  C9  UNL     1      25.277   4.128  49.309  1.00  0.00     0.058 C 
BRANCH  10  11
HETATM   11  C10 UNL     1      23.817   4.007  49.422  1.00  0.00    -0.051 A 
HETATM   12  C11 UNL     1      23.328   2.767  48.978  1.00  0.00     0.007 A 
HETATM   13  C12 UNL     1      22.000   2.369  48.936  1.00  0.00     0.001 A 
HETATM   14  C13 UNL     1      21.061   3.276  49.371  1.00  0.00     0.001 A 
HETATM   15  C14 UNL     1      21.493   4.490  49.810  1.00  0.00     0.007 A 
HETATM   16  C15 UNL     1      22.820   4.848  49.837  1.00  0.00    -0.056 A 
HETATM   17  C16 UNL     1      23.258   6.158  50.342  1.00  0.00     0.049 C 
ENDBRANCH  10  11
ENDBRANCH   9  10
ENDBRANCH   7   9
ENDBRANCH   3   7
BRANCH   1  18
HETATM   18  N1  UNL     1      25.241   0.122  54.059  1.00  0.00    -0.370 N 
HETATM   19  H6  UNL     1      25.298   0.212  55.116  1.00  0.00     0.161 HD
BRANCH  18  20
HETATM   20  C4  UNL     1      24.238  -0.635  53.385  1.00  0.00     0.156 C 
BRANCH  20  21
HETATM   21  C3  UNL     1      22.982   0.084  53.163  1.00  0.00    -0.056 A 
HETATM   22  C2  UNL     1      22.453   1.243  52.920  1.00  0.00    -0.079 A 
HETATM   23  C1  UNL     1      22.935   2.629  52.711  1.00  0.00     0.044 C 
HETATM   24  C20 UNL     1      21.093   0.710  52.929  1.00  0.00     0.042 A 
HETATM   25  C18 UNL     1      21.703  -0.599  53.174  1.00  0.00     0.016 A 
HETATM   26  C19 UNL     1      21.421  -1.238  54.523  1.00  0.00     0.015 C 
ENDBRANCH  20  21
ENDBRANCH  18  20
ENDBRANCH   1  18
BRANCH   5  27
HETATM   27  N4  UNL     1      29.702   2.002  54.664  1.00  0.00    -0.231 N 
HETATM   28  H20 UNL     1      29.484   2.623  55.457  1.00  0.00     0.174 HD
HETATM   29  H21 UNL     1      30.456   1.438  54.252  1.00  0.00     0.174 HD
ENDBRANCH   5  27
TORSDOF 8
ENDMDL
MODEL 8
REMARK VINA RESULT:      -7.5      2.141      3.508
REMARK  8 active torsions:
REMARK  status: ('A' for Active; 'I' for Inactive)
REMARK    1  A    between atoms: C3_3  and  C4_4 
REMARK    2  A    between atoms: C4_4  and  N1_5 
REMARK    3  A    between atoms: N1_5  and  C5_6 
REMARK    4  A    between atoms: C7_8  and  N2_9 
REMARK    5  A    between atoms: N2_9  and  C8_10 
REMARK    6  A    between atoms: C8_10  and  C9_11 
REMARK    7  A    between atoms: C9_11  and  C10_12 
REMARK    8  A    between atoms: C17_20  and  N4_21 
ROOT
HETATM    1  C5  UNL     1      24.933   2.339  53.431  1.00  0.00     0.146 A 
HETATM    2  C6  UNL     1      23.848   1.508  53.124  1.00  0.00     0.101 A 
HETATM    3  C7  UNL     1      23.812   0.159  53.306  1.00  0.00     0.146 A 
HETATM    4  N3  UNL     1      24.944  -0.373  53.829  1.00  0.00    -0.046 NA
HETATM    5  C17 UNL     1      26.020   0.363  54.146  1.00  0.00     0.724 A 
HETATM    6  N5  UNL     1      25.985   1.685  53.940  1.00  0.00    -0.046 NA
ENDROOT
BRANCH   3   7
HETATM    7  N2  UNL     1      22.693  -0.694  52.986  1.00  0.00    -0.374 N 
HETATM    8  H8  UNL     1      22.881  -1.728  53.020  1.00  0.00     0.161 HD
BRANCH   7   9
HETATM    9  C8  UNL     1      21.411  -0.215  52.645  1.00  0.00     0.126 C 
BRANCH   9  10
HETATM   10  C9  UNL     1      21.246   0.071  51.188  1.00  0.00     0.058 C 
BRANCH  10  11
HETATM   11  C10 UNL     1      20.906   1.458  50.846  1.00  0.00    -0.051 A 
HETATM   12  C11 UNL     1      20.461   2.208  51.949  1.00  0.00     0.007 A 
HETATM   13  C12 UNL     1      20.045   3.530  51.936  1.00  0.00     0.001 A 
HETATM   14  C13 UNL     1      20.067   4.181  50.724  1.00  0.00     0.001 A 
HETATM   15  C14 UNL     1      20.492   3.492  49.629  1.00  0.00     0.007 A 
HETATM   16  C15 UNL     1      20.898   2.180  49.682  1.00  0.00    -0.056 A 
HETATM   17  C16 UNL     1      21.377   1.469  48.488  1.00  0.00     0.049 C 
ENDBRANCH  10  11
ENDBRANCH   9  10
ENDBRANCH   7   9
ENDBRANCH   3   7
BRANCH   1  18
HETATM   18  N1  UNL     1      24.693   3.702  53.130  1.00  0.00    -0.370 N 
HETATM   19  H6  UNL     1      25.646   4.071  53.418  1.00  0.00     0.161 HD
BRANCH  18  20
HETATM   20  C4  UNL     1      23.645   4.528  52.624  1.00  0.00     0.156 C 
BRANCH  20  21
HETATM   21  C3  UNL     1      23.704   4.765  51.181  1.00  0.00    -0.056 A 
HETATM   22  C2  UNL     1      24.034   4.254  50.036  1.00  0.00    -0.079 A 
HETATM   23  C1  UNL     1      24.603   2.977  49.546  1.00  0.00     0.044 C 
HETATM   24  C20 UNL     1      23.644   5.455  49.301  1.00  0.00     0.042 A 
HETATM   25  C18 UNL     1      23.247   6.010  50.596  1.00  0.00     0.016 A 
HETATM   26  C19 UNL     1      24.052   7.195  51.103  1.00  0.00     0.015 C 
ENDBRANCH  20  21
ENDBRANCH  18  20
ENDBRANCH   1  18
BRANCH   5  27
HETATM   27  N4  UNL     1      27.220  -0.166  54.696  1.00  0.00    -0.231 N 
HETATM   28  H20 UNL     1      27.872   0.630  54.751  1.00  0.00     0.174 HD
HETATM   29  H21 UNL     1      27.141  -1.170  54.895  1.00  0.00     0.174 HD
ENDBRANCH   5  27
TORSDOF 8
ENDMDL
MODEL 9
REMARK VINA RESULT:      -7.5      3.170      7.192
REMARK  8 active torsions:
REMARK  status: ('A' for Active; 'I' for Inactive)
REMARK    1  A    between atoms: C3_3  and  C4_4 
REMARK    2  A    between atoms: C4_4  and  N1_5 
REMARK    3  A    between atoms: N1_5  and  C5_6 
REMARK    4  A    between atoms: C7_8  and  N2_9 
REMARK    5  A    between atoms: N2_9  and  C8_10 
REMARK    6  A    between atoms: C8_10  and  C9_11 
REMARK    7  A    between atoms: C9_11  and  C10_12 
REMARK    8  A    between atoms: C17_20  and  N4_21 
ROOT
HETATM    1  C5  UNL     1      21.828   0.074  52.872  1.00  0.00     0.146 A 
HETATM    2  C6  UNL     1      22.125   1.425  52.656  1.00  0.00     0.101 A 
HETATM    3  C7  UNL     1      21.224   2.381  52.294  1.00  0.00     0.146 A 
HETATM    4  N3  UNL     1      19.953   1.936  52.145  1.00  0.00    -0.046 NA
HETATM    5  C17 UNL     1      19.599   0.656  52.336  1.00  0.00     0.724 A 
HETATM    6  N5  UNL     1      20.537  -0.231  52.691  1.00  0.00    -0.046 NA
ENDROOT
BRANCH   3   7
HETATM    7  N2  UNL     1      21.534   3.773  52.070  1.00  0.00    -0.374 N 
HETATM    8  H8  UNL     1      21.043   4.458  52.699  1.00  0.00     0.161 HD
BRANCH   7   9
HETATM    9  C8  UNL     1      22.432   4.231  51.083  1.00  0.00     0.126 C 
BRANCH   9  10
HETATM   10  C9  UNL     1      23.730   4.722  51.634  1.00  0.00     0.058 C 
BRANCH  10  11
HETATM   11  C10 UNL     1      24.813   4.893  50.656  1.00  0.00    -0.051 A 
HETATM   12  C11 UNL     1      25.489   3.697  50.362  1.00  0.00     0.007 A 
HETATM   13  C12 UNL     1      26.566   3.546  49.503  1.00  0.00     0.001 A 
HETATM   14  C13 UNL     1      27.026   4.678  48.870  1.00  0.00     0.001 A 
HETATM   15  C14 UNL     1      26.398   5.859  49.126  1.00  0.00     0.007 A 
HETATM   16  C15 UNL     1      25.331   5.969  49.986  1.00  0.00    -0.056 A 
HETATM   17  C16 UNL     1      24.657   7.254  50.222  1.00  0.00     0.049 C 
ENDBRANCH  10  11
ENDBRANCH   9  10
ENDBRANCH   7   9
ENDBRANCH   3   7
BRANCH   1  18
HETATM   18  N1  UNL     1      22.963  -0.694  53.233  1.00  0.00    -0.370 N 
HETATM   19  H6  UNL     1      22.672  -1.595  52.753  1.00  0.00     0.161 HD
BRANCH  18  20
HETATM   20  C4  UNL     1      24.179  -0.546  53.964  1.00  0.00     0.156 C 
BRANCH  20  21
HETATM   21  C3  UNL     1      25.359  -0.299  53.134  1.00  0.00    -0.056 A 
HETATM   22  C2  UNL     1      26.408  -0.839  52.594  1.00  0.00    -0.079 A 
HETATM   23  C1  UNL     1      27.024  -2.186  52.542  1.00  0.00     0.044 C 
HETATM   24  C20 UNL     1      26.848   0.421  52.003  1.00  0.00     0.042 A 
HETATM   25  C18 UNL     1      25.646   1.015  52.592  1.00  0.00     0.016 A 
HETATM   26  C19 UNL     1      25.863   2.039  53.693  1.00  0.00     0.015 C 
ENDBRANCH  20  21
ENDBRANCH  18  20
ENDBRANCH   1  18
BRANCH   5  27
HETATM   27  N4  UNL     1      18.275   0.159  52.187  1.00  0.00    -0.231 N 
HETATM   28  H20 UNL     1      18.043   0.286  51.192  1.00  0.00     0.174 HD
HETATM   29  H21 UNL     1      17.895  -0.190  53.075  1.00  0.00     0.174 HD
ENDBRANCH   5  27
TORSDOF 8
ENDMDL
