MODEL 1
REMARK VINA RESULT:      -6.7      0.000      0.000
REMARK  5 active torsions:
REMARK  status: ('A' for Active; 'I' for Inactive)
REMARK    1  A    between atoms: O1_2  and  C2_3 
REMARK    2  A    between atoms: C4_5  and  C5_6 
REMARK    3  A    between atoms: C6_7  and  C7_8 
REMARK    4  A    between atoms: C11_16  and  O3_17 
REMARK    5  A    between atoms: C13_19  and  O4_20 
ROOT
HETATM    1  C2  UNL     1      26.136   2.468  51.277  1.00  0.00     0.105 A 
HETATM    2  C3  UNL     1      24.768   2.334  51.151  1.00  0.00     0.052 A 
HETATM    3  C4  UNL     1      23.979   1.567  52.007  1.00  0.00    -0.021 A 
HETATM    4  C10 UNL     1      24.674   0.933  53.014  1.00  0.00     0.052 A 
HETATM    5  C11 UNL     1      26.034   1.020  53.200  1.00  0.00     0.105 A 
HETATM    6  C13 UNL     1      26.762   1.787  52.330  1.00  0.00     0.135 A 
ENDROOT
BRANCH   3   7
HETATM    7  C5  UNL     1      22.547   1.495  51.742  1.00  0.00    -0.002 A 
HETATM    8  C6  UNL     1      21.901   0.387  52.157  1.00  0.00     0.029 A 
HETATM    9  C8  UNL     1      20.485   0.566  51.768  1.00  0.00     0.250 A 
HETATM   10  O2  UNL     1      19.381  -0.041  51.837  1.00  0.00    -0.268 OA
HETATM   11  N1  UNL     1      20.345   1.828  51.109  1.00  0.00    -0.339 N 
HETATM   12  C9  UNL     1      21.648   2.465  51.058  1.00  0.00     0.192 A 
HETATM   13  H7  UNL     1      19.621   2.432  50.660  1.00  0.00     0.164 HD
HETATM   14 BR2  UNL     1      21.663   4.102  52.076  1.00  0.00    -0.063 Br
BRANCH   8  15
HETATM   15  C7  UNL     1      22.153  -0.881  52.842  1.00  0.00     0.130 C 
HETATM   16 BR1  UNL     1      21.600  -0.649  54.706  1.00  0.00    -0.091 Br
ENDBRANCH   8  15
ENDBRANCH   3   7
BRANCH   1  17
HETATM   17  O1  UNL     1      27.000   3.178  50.516  1.00  0.00    -0.353 OA
HETATM   18  C1  UNL     1      26.806   3.957  49.386  1.00  0.00     0.210 C 
ENDBRANCH   1  17
BRANCH   5  19
HETATM   19  O3  UNL     1      26.608   0.328  54.257  1.00  0.00    -0.353 OA
HETATM   20  C12 UNL     1      25.807  -0.440  55.138  1.00  0.00     0.210 C 
ENDBRANCH   5  19
BRANCH   6  21
HETATM   21  O4  UNL     1      28.125   1.830  52.578  1.00  0.00    -0.351 OA
HETATM   22  C14 UNL     1      28.718   2.561  53.616  1.00  0.00     0.210 C 
ENDBRANCH   6  21
TORSDOF 5
ENDMDL
MODEL 2
REMARK VINA RESULT:      -6.6      3.261      5.225
REMARK  5 active torsions:
REMARK  status: ('A' for Active; 'I' for Inactive)
REMARK    1  A    between atoms: O1_2  and  C2_3 
REMARK    2  A    between atoms: C4_5  and  C5_6 
REMARK    3  A    between atoms: C6_7  and  C7_8 
REMARK    4  A    between atoms: C11_16  and  O3_17 
REMARK    5  A    between atoms: C13_19  and  O4_20 
ROOT
HETATM    1  C2  UNL     1      23.382   4.380  51.516  1.00  0.00     0.105 A 
HETATM    2  C3  UNL     1      24.050   3.552  52.397  1.00  0.00     0.052 A 
HETATM    3  C4  UNL     1      24.204   2.179  52.209  1.00  0.00    -0.021 A 
HETATM    4  C10 UNL     1      23.629   1.689  51.057  1.00  0.00     0.052 A 
HETATM    5  C11 UNL     1      22.950   2.453  50.136  1.00  0.00     0.105 A 
HETATM    6  C13 UNL     1      22.828   3.797  50.368  1.00  0.00     0.135 A 
ENDROOT
BRANCH   3   7
HETATM    7  C5  UNL     1      24.913   1.421  53.233  1.00  0.00    -0.002 A 
HETATM    8  C6  UNL     1      24.406   0.217  53.565  1.00  0.00     0.029 A 
HETATM    9  C8  UNL     1      25.299  -0.330  54.611  1.00  0.00     0.250 A 
HETATM   10  O2  UNL     1      25.421  -1.357  55.334  1.00  0.00    -0.268 OA
HETATM   11  N1  UNL     1      26.342   0.615  54.867  1.00  0.00    -0.339 N 
HETATM   12  C9  UNL     1      26.135   1.768  54.010  1.00  0.00     0.192 A 
HETATM   13  H7  UNL     1      27.191   0.743  55.459  1.00  0.00     0.164 HD
HETATM   14 BR2  UNL     1      27.588   1.977  52.761  1.00  0.00    -0.063 Br
BRANCH   8  15
HETATM   15  C7  UNL     1      23.299  -0.678  53.228  1.00  0.00     0.130 C 
HETATM   16 BR1  UNL     1      21.774  -0.151  54.338  1.00  0.00    -0.091 Br
ENDBRANCH   8  15
ENDBRANCH   3   7
BRANCH   1  17
HETATM   17  O1  UNL     1      23.171   5.714  51.589  1.00  0.00    -0.353 OA
HETATM   18  C1  UNL     1      23.969   6.793  51.241  1.00  0.00     0.210 C 
ENDBRANCH   1  17
BRANCH   5  19
HETATM   19  O3  UNL     1      22.419   1.831  49.014  1.00  0.00    -0.353 OA
HETATM   20  C12 UNL     1      21.275   1.001  49.122  1.00  0.00     0.210 C 
ENDBRANCH   5  19
BRANCH   6  21
HETATM   21  O4  UNL     1      22.133   4.504  49.399  1.00  0.00    -0.351 OA
HETATM   22  C14 UNL     1      20.759   4.774  49.452  1.00  0.00     0.210 C 
ENDBRANCH   6  21
TORSDOF 5
ENDMDL
MODEL 3
REMARK VINA RESULT:      -6.6      2.563      4.445
REMARK  5 active torsions:
REMARK  status: ('A' for Active; 'I' for Inactive)
REMARK    1  A    between atoms: O1_2  and  C2_3 
REMARK    2  A    between atoms: C4_5  and  C5_6 
REMARK    3  A    between atoms: C6_7  and  C7_8 
REMARK    4  A    between atoms: C11_16  and  O3_17 
REMARK    5  A    between atoms: C13_19  and  O4_20 
ROOT
HETATM    1  C2  UNL     1      24.004  -0.018  53.081  1.00  0.00     0.105 A 
HETATM    2  C3  UNL     1      23.765   0.977  52.154  1.00  0.00     0.052 A 
HETATM    3  C4  UNL     1      24.592   2.085  51.972  1.00  0.00    -0.021 A 
HETATM    4  C10 UNL     1      25.692   2.123  52.800  1.00  0.00     0.052 A 
HETATM    5  C11 UNL     1      25.993   1.169  53.744  1.00  0.00     0.105 A 
HETATM    6  C13 UNL     1      25.148   0.101  53.882  1.00  0.00     0.135 A 
ENDROOT
BRANCH   3   7
HETATM    7  C5  UNL     1      24.204   3.073  50.971  1.00  0.00    -0.002 A 
HETATM    8  C6  UNL     1      23.265   3.971  51.329  1.00  0.00     0.029 A 
HETATM    9  C8  UNL     1      23.058   4.841  50.150  1.00  0.00     0.250 A 
HETATM   10  O2  UNL     1      22.366   5.834  49.794  1.00  0.00    -0.268 OA
HETATM   11  N1  UNL     1      23.922   4.402  49.097  1.00  0.00    -0.339 N 
HETATM   12  C9  UNL     1      24.678   3.258  49.572  1.00  0.00     0.192 A 
HETATM   13  H7  UNL     1      24.182   4.634  48.113  1.00  0.00     0.164 HD
HETATM   14 BR2  UNL     1      26.564   3.647  49.634  1.00  0.00    -0.063 Br
BRANCH   8  15
HETATM   15  C7  UNL     1      22.423   4.337  52.468  1.00  0.00     0.130 C 
HETATM   16 BR1  UNL     1      20.723   3.388  52.258  1.00  0.00    -0.091 Br
ENDBRANCH   8  15
ENDBRANCH   3   7
BRANCH   1  17
HETATM   17  O1  UNL     1      23.283  -1.132  53.347  1.00  0.00    -0.353 OA
HETATM   18  C1  UNL     1      22.015  -1.301  53.880  1.00  0.00     0.210 C 
ENDBRANCH   1  17
BRANCH   5  19
HETATM   19  O3  UNL     1      27.137   1.330  54.514  1.00  0.00    -0.353 OA
HETATM   20  C12 UNL     1      28.406   0.949  54.010  1.00  0.00     0.210 C 
ENDBRANCH   5  19
BRANCH   6  21
HETATM   21  O4  UNL     1      25.513  -0.821  54.852  1.00  0.00    -0.351 OA
HETATM   22  C14 UNL     1      25.007  -0.837  56.158  1.00  0.00     0.210 C 
ENDBRANCH   6  21
TORSDOF 5
ENDMDL
MODEL 4
REMARK VINA RESULT:      -6.6      1.654      3.634
REMARK  5 active torsions:
REMARK  status: ('A' for Active; 'I' for Inactive)
REMARK    1  A    between atoms: O1_2  and  C2_3 
REMARK    2  A    between atoms: C4_5  and  C5_6 
REMARK    3  A    between atoms: C6_7  and  C7_8 
REMARK    4  A    between atoms: C11_16  and  O3_17 
REMARK    5  A    between atoms: C13_19  and  O4_20 
ROOT
HETATM    1  C2  UNL     1      25.724  -0.274  53.099  1.00  0.00     0.105 A 
HETATM    2  C3  UNL     1      24.357  -0.429  53.224  1.00  0.00     0.052 A 
HETATM    3  C4  UNL     1      23.427   0.541  52.853  1.00  0.00    -0.021 A 
HETATM    4  C10 UNL     1      23.976   1.697  52.342  1.00  0.00     0.052 A 
HETATM    5  C11 UNL     1      25.325   1.920  52.189  1.00  0.00     0.105 A 
HETATM    6  C13 UNL     1      26.195   0.934  52.569  1.00  0.00     0.135 A 
ENDROOT
BRANCH   3   7
HETATM    7  C5  UNL     1      22.013   0.253  53.063  1.00  0.00    -0.002 A 
HETATM    8  C6  UNL     1      21.215   0.280  51.977  1.00  0.00     0.029 A 
HETATM    9  C8  UNL     1      19.853  -0.039  52.461  1.00  0.00     0.250 A 
HETATM   10  O2  UNL     1      18.681  -0.180  52.017  1.00  0.00    -0.268 OA
HETATM   11  N1  UNL     1      19.905  -0.250  53.874  1.00  0.00    -0.339 N 
HETATM   12  C9  UNL     1      21.275  -0.065  54.316  1.00  0.00     0.192 A 
HETATM   13  H7  UNL     1      19.287  -0.491  54.681  1.00  0.00     0.164 HD
HETATM   14 BR2  UNL     1      22.003  -1.700  55.031  1.00  0.00    -0.063 Br
BRANCH   8  15
HETATM   15  C7  UNL     1      21.272   0.515  50.534  1.00  0.00     0.130 C 
HETATM   16 BR1  UNL     1      20.767   2.383  50.234  1.00  0.00    -0.091 Br
ENDBRANCH   8  15
ENDBRANCH   3   7
BRANCH   1  17
HETATM   17  O1  UNL     1      26.716  -1.136  53.420  1.00  0.00    -0.353 OA
HETATM   18  C1  UNL     1      27.266  -2.204  52.729  1.00  0.00     0.210 C 
ENDBRANCH   1  17
BRANCH   5  19
HETATM   19  O3  UNL     1      25.744   3.132  51.658  1.00  0.00    -0.353 OA
HETATM   20  C12 UNL     1      25.690   3.366  50.261  1.00  0.00     0.210 C 
ENDBRANCH   5  19
BRANCH   6  21
HETATM   21  O4  UNL     1      27.538   1.228  52.386  1.00  0.00    -0.351 OA
HETATM   22  C14 UNL     1      28.340   1.880  53.332  1.00  0.00     0.210 C 
ENDBRANCH   6  21
TORSDOF 5
ENDMDL
MODEL 5
REMARK VINA RESULT:      -6.6      1.548      2.541
REMARK  5 active torsions:
REMARK  status: ('A' for Active; 'I' for Inactive)
REMARK    1  A    between atoms: O1_2  and  C2_3 
REMARK    2  A    between atoms: C4_5  and  C5_6 
REMARK    3  A    between atoms: C6_7  and  C7_8 
REMARK    4  A    between atoms: C11_16  and  O3_17 
REMARK    5  A    between atoms: C13_19  and  O4_20 
ROOT
HETATM    1  C2  UNL     1      25.232   2.075  51.930  1.00  0.00     0.105 A 
HETATM    2  C3  UNL     1      23.888   1.775  52.029  1.00  0.00     0.052 A 
HETATM    3  C4  UNL     1      23.391   0.603  52.597  1.00  0.00    -0.021 A 
HETATM    4  C10 UNL     1      24.357  -0.261  53.066  1.00  0.00     0.052 A 
HETATM    5  C11 UNL     1      25.711  -0.029  53.001  1.00  0.00     0.105 A 
HETATM    6  C13 UNL     1      26.145   1.138  52.434  1.00  0.00     0.135 A 
ENDROOT
BRANCH   3   7
HETATM    7  C5  UNL     1      21.947   0.405  52.613  1.00  0.00    -0.002 A 
HETATM    8  C6  UNL     1      21.308   0.459  51.427  1.00  0.00     0.029 A 
HETATM    9  C8  UNL     1      19.875   0.233  51.721  1.00  0.00     0.250 A 
HETATM   10  O2  UNL     1      18.768   0.154  51.122  1.00  0.00    -0.268 OA
HETATM   11  N1  UNL     1      19.719   0.048  53.131  1.00  0.00    -0.339 N 
HETATM   12  C9  UNL     1      21.024   0.158  53.756  1.00  0.00     0.192 A 
HETATM   13  H7  UNL     1      18.982  -0.138  53.847  1.00  0.00     0.164 HD
HETATM   14 BR2  UNL     1      21.543  -1.503  54.584  1.00  0.00    -0.063 Br
BRANCH   8  15
HETATM   15  C7  UNL     1      21.577   0.660  50.004  1.00  0.00     0.130 C 
HETATM   16 BR1  UNL     1      21.075   2.505  49.577  1.00  0.00    -0.091 Br
ENDBRANCH   8  15
ENDBRANCH   3   7
BRANCH   1  17
HETATM   17  O1  UNL     1      25.829   3.170  51.406  1.00  0.00    -0.353 OA
HETATM   18  C1  UNL     1      26.094   3.535  50.096  1.00  0.00     0.210 C 
ENDBRANCH   1  17
BRANCH   5  19
HETATM   19  O3  UNL     1      26.577  -0.986  53.514  1.00  0.00    -0.353 OA
HETATM   20  C12 UNL     1      27.021  -2.063  52.708  1.00  0.00     0.210 C 
ENDBRANCH   5  19
BRANCH   6  21
HETATM   21  O4  UNL     1      27.521   1.306  52.403  1.00  0.00    -0.351 OA
HETATM   22  C14 UNL     1      28.252   2.022  53.361  1.00  0.00     0.210 C 
ENDBRANCH   6  21
TORSDOF 5
ENDMDL
MODEL 6
REMARK VINA RESULT:      -6.5      2.591      4.280
REMARK  5 active torsions:
REMARK  status: ('A' for Active; 'I' for Inactive)
REMARK    1  A    between atoms: O1_2  and  C2_3 
REMARK    2  A    between atoms: C4_5  and  C5_6 
REMARK    3  A    between atoms: C6_7  and  C7_8 
REMARK    4  A    between atoms: C11_16  and  O3_17 
REMARK    5  A    between atoms: C13_19  and  O4_20 
ROOT
HETATM    1  C2  UNL     1      25.937   1.219  53.621  1.00  0.00     0.105 A 
HETATM    2  C3  UNL     1      25.546   2.146  52.676  1.00  0.00     0.052 A 
HETATM    3  C4  UNL     1      24.402   2.019  51.889  1.00  0.00    -0.021 A 
HETATM    4  C10 UNL     1      23.668   0.877  52.122  1.00  0.00     0.052 A 
HETATM    5  C11 UNL     1      23.997  -0.088  53.046  1.00  0.00     0.105 A 
HETATM    6  C13 UNL     1      25.131   0.085  53.793  1.00  0.00     0.135 A 
ENDROOT
BRANCH   3   7
HETATM    7  C5  UNL     1      24.122   3.064  50.911  1.00  0.00    -0.002 A 
HETATM    8  C6  UNL     1      23.243   4.021  51.271  1.00  0.00     0.029 A 
HETATM    9  C8  UNL     1      23.140   4.940  50.115  1.00  0.00     0.250 A 
HETATM   10  O2  UNL     1      22.537   5.994  49.773  1.00  0.00    -0.268 OA
HETATM   11  N1  UNL     1      23.999   4.467  49.074  1.00  0.00    -0.339 N 
HETATM   12  C9  UNL     1      24.650   3.254  49.532  1.00  0.00     0.192 A 
HETATM   13  H7  UNL     1      24.306   4.708  48.105  1.00  0.00     0.164 HD
HETATM   14 BR2  UNL     1      26.558   3.494  49.658  1.00  0.00    -0.063 Br
BRANCH   8  15
HETATM   15  C7  UNL     1      22.398   4.417  52.397  1.00  0.00     0.130 C 
HETATM   16 BR1  UNL     1      20.705   3.450  52.216  1.00  0.00    -0.091 Br
ENDBRANCH   8  15
ENDBRANCH   3   7
BRANCH   1  17
HETATM   17  O1  UNL     1      27.015   1.232  54.438  1.00  0.00    -0.353 OA
HETATM   18  C1  UNL     1      28.340   0.887  54.220  1.00  0.00     0.210 C 
ENDBRANCH   1  17
BRANCH   5  19
HETATM   19  O3  UNL     1      23.167  -1.193  53.181  1.00  0.00    -0.353 OA
HETATM   20  C12 UNL     1      21.878  -1.062  53.756  1.00  0.00     0.210 C 
ENDBRANCH   5  19
BRANCH   6  21
HETATM   21  O4  UNL     1      25.400  -0.925  54.704  1.00  0.00    -0.351 OA
HETATM   22  C14 UNL     1      24.905  -0.961  56.014  1.00  0.00     0.210 C 
ENDBRANCH   6  21
TORSDOF 5
ENDMDL
MODEL 7
REMARK VINA RESULT:      -6.5      3.126      4.955
REMARK  5 active torsions:
REMARK  status: ('A' for Active; 'I' for Inactive)
REMARK    1  A    between atoms: O1_2  and  C2_3 
REMARK    2  A    between atoms: C4_5  and  C5_6 
REMARK    3  A    between atoms: C6_7  and  C7_8 
REMARK    4  A    between atoms: C11_16  and  O3_17 
REMARK    5  A    between atoms: C13_19  and  O4_20 
ROOT
HETATM    1  C2  UNL     1      25.286   3.764  50.261  1.00  0.00     0.105 A 
HETATM    2  C3  UNL     1      25.653   2.885  51.260  1.00  0.00     0.052 A 
HETATM    3  C4  UNL     1      24.872   2.613  52.382  1.00  0.00    -0.021 A 
HETATM    4  C10 UNL     1      23.679   3.298  52.431  1.00  0.00     0.052 A 
HETATM    5  C11 UNL     1      23.248   4.188  51.474  1.00  0.00     0.105 A 
HETATM    6  C13 UNL     1      24.053   4.419  50.392  1.00  0.00     0.135 A 
ENDROOT
BRANCH   3   7
HETATM    7  C5  UNL     1      25.396   1.678  53.372  1.00  0.00    -0.002 A 
HETATM    8  C6  UNL     1      24.792   0.476  53.460  1.00  0.00     0.029 A 
HETATM    9  C8  UNL     1      25.503  -0.265  54.525  1.00  0.00     0.250 A 
HETATM   10  O2  UNL     1      25.475  -1.385  55.105  1.00  0.00    -0.268 OA
HETATM   11  N1  UNL     1      26.544   0.566  55.047  1.00  0.00    -0.339 N 
HETATM   12  C9  UNL     1      26.513   1.836  54.344  1.00  0.00     0.192 A 
HETATM   13  H7  UNL     1      27.308   0.557  55.758  1.00  0.00     0.164 HD
HETATM   14 BR2  UNL     1      28.134   2.114  53.338  1.00  0.00    -0.063 Br
BRANCH   8  15
HETATM   15  C7  UNL     1      23.701  -0.290  52.858  1.00  0.00     0.130 C 
HETATM   16 BR1  UNL     1      22.150  -0.113  54.040  1.00  0.00    -0.091 Br
ENDBRANCH   8  15
ENDBRANCH   3   7
BRANCH   1  17
HETATM   17  O1  UNL     1      25.951   4.106  49.134  1.00  0.00    -0.353 OA
HETATM   18  C1  UNL     1      27.231   4.599  48.935  1.00  0.00     0.210 C 
ENDBRANCH   1  17
BRANCH   5  19
HETATM   19  O3  UNL     1      22.020   4.812  51.648  1.00  0.00    -0.353 OA
HETATM   20  C12 UNL     1      20.888   4.072  52.072  1.00  0.00     0.210 C 
ENDBRANCH   5  19
BRANCH   6  21
HETATM   21  O4  UNL     1      23.557   5.326  49.468  1.00  0.00    -0.351 OA
HETATM   22  C14 UNL     1      22.832   4.971  48.322  1.00  0.00     0.210 C 
ENDBRANCH   6  21
TORSDOF 5
ENDMDL
MODEL 8
REMARK VINA RESULT:      -6.4      2.406      5.766
REMARK  5 active torsions:
REMARK  status: ('A' for Active; 'I' for Inactive)
REMARK    1  A    between atoms: O1_2  and  C2_3 
REMARK    2  A    between atoms: C4_5  and  C5_6 
REMARK    3  A    between atoms: C6_7  and  C7_8 
REMARK    4  A    between atoms: C11_16  and  O3_17 
REMARK    5  A    between atoms: C13_19  and  O4_20 
ROOT
HETATM    1  C2  UNL     1      21.291   1.079  50.320  1.00  0.00     0.105 A 
HETATM    2  C3  UNL     1      22.590   1.511  50.501  1.00  0.00     0.052 A 
HETATM    3  C4  UNL     1      23.300   1.365  51.692  1.00  0.00    -0.021 A 
HETATM    4  C10 UNL     1      22.600   0.745  52.704  1.00  0.00     0.052 A 
HETATM    5  C11 UNL     1      21.307   0.290  52.596  1.00  0.00     0.105 A 
HETATM    6  C13 UNL     1      20.655   0.458  51.404  1.00  0.00     0.135 A 
ENDROOT
BRANCH   3   7
HETATM    7  C5  UNL     1      24.659   1.890  51.750  1.00  0.00    -0.002 A 
HETATM    8  C6  UNL     1      25.620   1.055  52.191  1.00  0.00     0.029 A 
HETATM    9  C8  UNL     1      26.883   1.826  52.155  1.00  0.00     0.250 A 
HETATM   10  O2  UNL     1      28.109   1.680  52.413  1.00  0.00    -0.268 OA
HETATM   11  N1  UNL     1      26.604   3.143  51.674  1.00  0.00    -0.339 N 
HETATM   12  C9  UNL     1      25.181   3.241  51.406  1.00  0.00     0.192 A 
HETATM   13  H7  UNL     1      27.083   4.045  51.455  1.00  0.00     0.164 HD
HETATM   14 BR2  UNL     1      24.844   3.544  49.532  1.00  0.00    -0.063 Br
BRANCH   8  15
HETATM   15  C7  UNL     1      25.797  -0.316  52.672  1.00  0.00     0.130 C 
HETATM   16 BR1  UNL     1      25.841  -0.239  54.628  1.00  0.00    -0.091 Br
ENDBRANCH   8  15
ENDBRANCH   3   7
BRANCH   1  17
HETATM   17  O1  UNL     1      20.506   1.162  49.221  1.00  0.00    -0.353 OA
HETATM   18  C1  UNL     1      19.940   2.250  48.575  1.00  0.00     0.210 C 
ENDBRANCH   1  17
BRANCH   5  19
HETATM   19  O3  UNL     1      20.720  -0.318  53.697  1.00  0.00    -0.353 OA
HETATM   20  C12 UNL     1      21.421  -1.302  54.438  1.00  0.00     0.210 C 
ENDBRANCH   5  19
BRANCH   6  21
HETATM   21  O4  UNL     1      19.356  -0.024  51.366  1.00  0.00    -0.351 OA
HETATM   22  C14 UNL     1      18.220   0.740  51.665  1.00  0.00     0.210 C 
ENDBRANCH   6  21
TORSDOF 5
ENDMDL
MODEL 9
REMARK VINA RESULT:      -6.3      2.505      4.104
REMARK  5 active torsions:
REMARK  status: ('A' for Active; 'I' for Inactive)
REMARK    1  A    between atoms: O1_2  and  C2_3 
REMARK    2  A    between atoms: C4_5  and  C5_6 
REMARK    3  A    between atoms: C6_7  and  C7_8 
REMARK    4  A    between atoms: C11_16  and  O3_17 
REMARK    5  A    between atoms: C13_19  and  O4_20 
ROOT
HETATM    1  C2  UNL     1      25.622   2.016  53.445  1.00  0.00     0.105 A 
HETATM    2  C3  UNL     1      24.825   2.925  52.778  1.00  0.00     0.052 A 
HETATM    3  C4  UNL     1      23.596   2.606  52.202  1.00  0.00    -0.021 A 
HETATM    4  C10 UNL     1      23.220   1.288  52.343  1.00  0.00     0.052 A 
HETATM    5  C11 UNL     1      23.962   0.329  52.992  1.00  0.00     0.105 A 
HETATM    6  C13 UNL     1      25.162   0.695  53.541  1.00  0.00     0.135 A 
ENDROOT
BRANCH   3   7
HETATM    7  C5  UNL     1      22.869   3.662  51.507  1.00  0.00    -0.002 A 
HETATM    8  C6  UNL     1      23.300   3.992  50.273  1.00  0.00     0.029 A 
HETATM    9  C8  UNL     1      22.406   5.073  49.801  1.00  0.00     0.250 A 
HETATM   10  O2  UNL     1      22.235   5.813  48.793  1.00  0.00    -0.268 OA
HETATM   11  N1  UNL     1      21.441   5.350  50.820  1.00  0.00    -0.339 N 
HETATM   12  C9  UNL     1      21.701   4.473  51.947  1.00  0.00     0.192 A 
HETATM   13  H7  UNL     1      20.623   5.968  51.015  1.00  0.00     0.164 HD
HETATM   14 BR2  UNL     1      20.226   3.269  52.246  1.00  0.00    -0.063 Br
BRANCH   8  15
HETATM   15  C7  UNL     1      24.329   3.632  49.298  1.00  0.00     0.130 C 
HETATM   16 BR1  UNL     1      25.786   4.925  49.492  1.00  0.00    -0.091 Br
ENDBRANCH   8  15
ENDBRANCH   3   7
BRANCH   1  17
HETATM   17  O1  UNL     1      26.821   2.204  54.041  1.00  0.00    -0.353 OA
HETATM   18  C1  UNL     1      28.101   2.317  53.520  1.00  0.00     0.210 C 
ENDBRANCH   1  17
BRANCH   5  19
HETATM   19  O3  UNL     1      23.464  -0.965  53.063  1.00  0.00    -0.353 OA
HETATM   20  C12 UNL     1      22.182  -1.216  53.611  1.00  0.00     0.210 C 
ENDBRANCH   5  19
BRANCH   6  21
HETATM   21  O4  UNL     1      25.855  -0.322  54.180  1.00  0.00    -0.351 OA
HETATM   22  C14 UNL     1      26.789  -1.157  53.552  1.00  0.00     0.210 C 
ENDBRANCH   6  21
TORSDOF 5
ENDMDL
