MODEL 1
REMARK VINA RESULT:      -7.9      0.000      0.000
REMARK  3 active torsions:
REMARK  status: ('A' for Active; 'I' for Inactive)
REMARK    1  A    between atoms: C5_6  and  C6_7 
REMARK    2  A    between atoms: C5_6  and  O3_15 
REMARK    3  A    between atoms: O3_15  and  C12_16 
ROOT
HETATM    1  C1  UNL     1      28.763   1.078  54.675  1.00  0.00     0.112 C 
HETATM    2  C2  UNL     1      28.261  -0.115  54.728  1.00  0.00     0.112 C 
HETATM    3  N1  UNL     1      27.965  -0.775  53.679  1.00  0.00    -0.281 NA
HETATM    4  C3  UNL     1      26.910  -0.559  52.702  1.00  0.00     0.188 C 
HETATM    5  C4  UNL     1      26.546   0.889  52.667  1.00  0.00    -0.007 C 
HETATM    6  C5  UNL     1      25.271   1.324  52.690  1.00  0.00     0.077 C 
HETATM    7  C17 UNL     1      27.653   1.901  52.599  1.00  0.00     0.188 C 
HETATM    8  N2  UNL     1      28.357   1.946  53.856  1.00  0.00    -0.281 NA
ENDROOT
BRANCH   6   9
HETATM    9  C6  UNL     1      24.696   2.662  52.666  1.00  0.00     0.074 C 
HETATM   10  C7  UNL     1      24.150   3.400  51.714  1.00  0.00     0.073 C 
HETATM   11  C8  UNL     1      24.065   2.829  50.376  1.00  0.00     0.060 C 
HETATM   12  O2  UNL     1      23.726   4.638  52.138  1.00  0.00    -0.349 OA
HETATM   13  C9  UNL     1      23.267   3.270  49.398  1.00  0.00     0.137 C 
HETATM   14  O1  UNL     1      22.367   4.336  49.441  1.00  0.00    -0.361 OA
HETATM   15  C10 UNL     1      21.958   5.148  50.528  1.00  0.00     0.201 C 
HETATM   16  C11 UNL     1      23.147   5.654  51.341  1.00  0.00     0.202 C 
ENDBRANCH   6   9
BRANCH   6  17
HETATM   17  O3  UNL     1      24.388   0.226  52.749  1.00  0.00    -0.345 OA
BRANCH  17  18
HETATM   18  C12 UNL     1      23.140   0.265  53.385  1.00  0.00     0.133 C 
HETATM   19  C13 UNL     1      22.079   0.092  52.320  1.00  0.00     0.058 C 
HETATM   20  C14 UNL     1      20.691  -0.069  52.905  1.00  0.00     0.170 C 
HETATM   21  O4  UNL     1      20.702  -1.201  53.701  1.00  0.00    -0.391 OA
HETATM   22  C15 UNL     1      21.517  -0.960  54.801  1.00  0.00     0.170 C 
HETATM   23  C16 UNL     1      22.972  -0.821  54.426  1.00  0.00     0.058 C 
ENDBRANCH  17  18
ENDBRANCH   6  17
TORSDOF 3
ENDMDL
MODEL 2
REMARK VINA RESULT:      -7.7      2.745      6.551
REMARK  3 active torsions:
REMARK  status: ('A' for Active; 'I' for Inactive)
REMARK    1  A    between atoms: C5_6  and  C6_7 
REMARK    2  A    between atoms: C5_6  and  O3_15 
REMARK    3  A    between atoms: O3_15  and  C12_16 
ROOT
HETATM    1  C1  UNL     1      20.736   0.277  54.560  1.00  0.00     0.112 C 
HETATM    2  C2  UNL     1      20.371   0.841  53.452  1.00  0.00     0.112 C 
HETATM    3  N1  UNL     1      20.673   0.359  52.312  1.00  0.00    -0.281 NA
HETATM    4  C3  UNL     1      21.960   0.270  51.643  1.00  0.00     0.188 C 
HETATM    5  C4  UNL     1      23.054   0.232  52.660  1.00  0.00    -0.007 C 
HETATM    6  C5  UNL     1      24.161   0.995  52.573  1.00  0.00     0.077 C 
HETATM    7  C17 UNL     1      22.910  -0.701  53.827  1.00  0.00     0.188 C 
HETATM    8  N2  UNL     1      21.883  -0.222  54.717  1.00  0.00    -0.281 NA
ENDROOT
BRANCH   6   9
HETATM    9  C6  UNL     1      25.330   1.119  53.433  1.00  0.00     0.074 C 
HETATM   10  C7  UNL     1      26.387   0.354  53.647  1.00  0.00     0.073 C 
HETATM   11  C8  UNL     1      26.481  -0.897  52.907  1.00  0.00     0.060 C 
HETATM   12  O2  UNL     1      27.273   0.866  54.566  1.00  0.00    -0.349 OA
HETATM   13  C9  UNL     1      27.598  -1.612  52.738  1.00  0.00     0.137 C 
HETATM   14  O1  UNL     1      28.878  -1.328  53.216  1.00  0.00    -0.361 OA
HETATM   15  C10 UNL     1      29.375  -0.179  53.882  1.00  0.00     0.201 C 
HETATM   16  C11 UNL     1      28.464   0.255  55.027  1.00  0.00     0.202 C 
ENDBRANCH   6   9
BRANCH   6  17
HETATM   17  O3  UNL     1      24.107   1.792  51.411  1.00  0.00    -0.345 OA
BRANCH  17  18
HETATM   18  C12 UNL     1      24.835   2.978  51.247  1.00  0.00     0.133 C 
HETATM   19  C13 UNL     1      25.789   2.772  50.090  1.00  0.00     0.058 C 
HETATM   20  C14 UNL     1      26.504   4.048  49.694  1.00  0.00     0.170 C 
HETATM   21  O4  UNL     1      25.540   4.964  49.311  1.00  0.00    -0.391 OA
HETATM   22  C15 UNL     1      24.795   5.317  50.430  1.00  0.00     0.170 C 
HETATM   23  C16 UNL     1      23.957   4.175  50.952  1.00  0.00     0.058 C 
ENDBRANCH  17  18
ENDBRANCH   6  17
TORSDOF 3
ENDMDL
MODEL 3
REMARK VINA RESULT:      -7.4      2.744      5.253
REMARK  3 active torsions:
REMARK  status: ('A' for Active; 'I' for Inactive)
REMARK    1  A    between atoms: C5_6  and  C6_7 
REMARK    2  A    between atoms: C5_6  and  O3_15 
REMARK    3  A    between atoms: O3_15  and  C12_16 
ROOT
HETATM    1  C1  UNL     1      19.438  -0.974  53.313  1.00  0.00     0.112 C 
HETATM    2  C2  UNL     1      20.202  -1.820  53.929  1.00  0.00     0.112 C 
HETATM    3  N1  UNL     1      21.011  -1.462  54.846  1.00  0.00    -0.281 NA
HETATM    4  C3  UNL     1      22.232  -0.678  54.767  1.00  0.00     0.188 C 
HETATM    5  C4  UNL     1      22.168   0.232  53.584  1.00  0.00    -0.007 C 
HETATM    6  C5  UNL     1      23.184   0.367  52.708  1.00  0.00     0.077 C 
HETATM    7  C17 UNL     1      20.918   1.033  53.367  1.00  0.00     0.188 C 
HETATM    8  N2  UNL     1      19.843   0.165  52.957  1.00  0.00    -0.281 NA
ENDROOT
BRANCH   6   9
HETATM    9  C6  UNL     1      23.336   1.179  51.509  1.00  0.00     0.074 C 
HETATM   10  C7  UNL     1      23.401   2.483  51.295  1.00  0.00     0.073 C 
HETATM   11  C8  UNL     1      23.310   3.366  52.450  1.00  0.00     0.060 C 
HETATM   12  O2  UNL     1      23.552   2.827  49.971  1.00  0.00    -0.349 OA
HETATM   13  C9  UNL     1      23.686   4.649  52.471  1.00  0.00     0.137 C 
HETATM   14  O1  UNL     1      24.232   5.400  51.430  1.00  0.00    -0.361 OA
HETATM   15  C10 UNL     1      24.652   5.004  50.135  1.00  0.00     0.201 C 
HETATM   16  C11 UNL     1      23.608   4.136  49.437  1.00  0.00     0.202 C 
ENDBRANCH   6   9
BRANCH   6  17
HETATM   17  O3  UNL     1      24.261  -0.460  53.088  1.00  0.00    -0.345 OA
BRANCH  17  18
HETATM   18  C12 UNL     1      25.581  -0.007  53.217  1.00  0.00     0.133 C 
HETATM   19  C13 UNL     1      25.924  -0.012  54.691  1.00  0.00     0.058 C 
HETATM   20  C14 UNL     1      27.389   0.282  54.946  1.00  0.00     0.170 C 
HETATM   21  O4  UNL     1      28.127  -0.707  54.320  1.00  0.00    -0.391 OA
HETATM   22  C15 UNL     1      27.980  -0.566  52.945  1.00  0.00     0.170 C 
HETATM   23  C16 UNL     1      26.578  -0.874  52.477  1.00  0.00     0.058 C 
ENDBRANCH  17  18
ENDBRANCH   6  17
TORSDOF 3
ENDMDL
MODEL 4
REMARK VINA RESULT:      -7.3      2.460      5.199
REMARK  3 active torsions:
REMARK  status: ('A' for Active; 'I' for Inactive)
REMARK    1  A    between atoms: C5_6  and  C6_7 
REMARK    2  A    between atoms: C5_6  and  O3_15 
REMARK    3  A    between atoms: O3_15  and  C12_16 
ROOT
HETATM    1  C1  UNL     1      24.626   4.321  49.327  1.00  0.00     0.112 C 
HETATM    2  C2  UNL     1      23.667   3.539  48.944  1.00  0.00     0.112 C 
HETATM    3  N1  UNL     1      22.552   3.480  49.558  1.00  0.00    -0.281 NA
HETATM    4  C3  UNL     1      22.231   2.948  50.872  1.00  0.00     0.188 C 
HETATM    5  C4  UNL     1      23.438   3.017  51.750  1.00  0.00    -0.007 C 
HETATM    6  C5  UNL     1      23.850   1.983  52.509  1.00  0.00     0.077 C 
HETATM    7  C17 UNL     1      24.220   4.297  51.788  1.00  0.00     0.188 C 
HETATM    8  N2  UNL     1      24.921   4.483  50.542  1.00  0.00    -0.281 NA
ENDROOT
BRANCH   6   9
HETATM    9  C6  UNL     1      24.976   1.830  53.421  1.00  0.00     0.074 C 
HETATM   10  C7  UNL     1      25.929   0.922  53.544  1.00  0.00     0.073 C 
HETATM   11  C8  UNL     1      25.929  -0.195  52.609  1.00  0.00     0.060 C 
HETATM   12  O2  UNL     1      26.813   1.172  54.568  1.00  0.00    -0.349 OA
HETATM   13  C9  UNL     1      26.969  -0.999  52.366  1.00  0.00     0.137 C 
HETATM   14  O1  UNL     1      28.244  -0.946  52.932  1.00  0.00    -0.361 OA
HETATM   15  C10 UNL     1      28.824   0.014  53.799  1.00  0.00     0.201 C 
HETATM   16  C11 UNL     1      27.902   0.361  54.965  1.00  0.00     0.202 C 
ENDBRANCH   6   9
BRANCH   6  17
HETATM   17  O3  UNL     1      22.984   0.883  52.337  1.00  0.00    -0.345 OA
BRANCH  17  18
HETATM   18  C12 UNL     1      22.124   0.408  53.335  1.00  0.00     0.133 C 
HETATM   19  C13 UNL     1      20.767   0.186  52.701  1.00  0.00     0.058 C 
HETATM   20  C14 UNL     1      19.796  -0.504  53.638  1.00  0.00     0.170 C 
HETATM   21  O4  UNL     1      20.334  -1.736  53.963  1.00  0.00    -0.391 OA
HETATM   22  C15 UNL     1      21.472  -1.532  54.734  1.00  0.00     0.170 C 
HETATM   23  C16 UNL     1      22.595  -0.892  53.953  1.00  0.00     0.058 C 
ENDBRANCH  17  18
ENDBRANCH   6  17
TORSDOF 3
ENDMDL
MODEL 5
REMARK VINA RESULT:      -7.2      2.910      5.082
REMARK  3 active torsions:
REMARK  status: ('A' for Active; 'I' for Inactive)
REMARK    1  A    between atoms: C5_6  and  C6_7 
REMARK    2  A    between atoms: C5_6  and  O3_15 
REMARK    3  A    between atoms: O3_15  and  C12_16 
ROOT
HETATM    1  C1  UNL     1      25.509   6.242  48.716  1.00  0.00     0.112 C 
HETATM    2  C2  UNL     1      26.674   5.807  49.079  1.00  0.00     0.112 C 
HETATM    3  N1  UNL     1      27.048   4.608  48.869  1.00  0.00    -0.281 NA
HETATM    4  C3  UNL     1      26.589   3.364  49.465  1.00  0.00     0.188 C 
HETATM    5  C4  UNL     1      25.176   3.519  49.925  1.00  0.00    -0.007 C 
HETATM    6  C5  UNL     1      24.753   3.119  51.140  1.00  0.00     0.077 C 
HETATM    7  C17 UNL     1      24.186   4.145  48.986  1.00  0.00     0.188 C 
HETATM    8  N2  UNL     1      24.462   5.553  48.847  1.00  0.00    -0.281 NA
ENDROOT
BRANCH   6   9
HETATM    9  C6  UNL     1      23.449   3.172  51.785  1.00  0.00     0.074 C 
HETATM   10  C7  UNL     1      22.335   2.474  51.642  1.00  0.00     0.073 C 
HETATM   11  C8  UNL     1      22.323   1.408  50.650  1.00  0.00     0.060 C 
HETATM   12  O2  UNL     1      21.315   2.869  52.477  1.00  0.00    -0.349 OA
HETATM   13  C9  UNL     1      21.437   0.408  50.601  1.00  0.00     0.137 C 
HETATM   14  O1  UNL     1      20.364   0.171  51.462  1.00  0.00    -0.361 OA
HETATM   15  C10 UNL     1      19.993   0.821  52.666  1.00  0.00     0.201 C 
HETATM   16  C11 UNL     1      20.003   2.340  52.521  1.00  0.00     0.202 C 
ENDBRANCH   6   9
BRANCH   6  17
HETATM   17  O3  UNL     1      25.826   2.556  51.862  1.00  0.00    -0.345 OA
BRANCH  17  18
HETATM   18  C12 UNL     1      25.715   1.399  52.643  1.00  0.00     0.133 C 
HETATM   19  C13 UNL     1      26.530   0.314  51.971  1.00  0.00     0.058 C 
HETATM   20  C14 UNL     1      26.640  -0.937  52.819  1.00  0.00     0.170 C 
HETATM   21  O4  UNL     1      27.268  -0.586  54.001  1.00  0.00    -0.391 OA
HETATM   22  C15 UNL     1      26.419   0.247  54.721  1.00  0.00     0.170 C 
HETATM   23  C16 UNL     1      26.222   1.588  54.057  1.00  0.00     0.058 C 
ENDBRANCH  17  18
ENDBRANCH   6  17
TORSDOF 3
ENDMDL
MODEL 6
REMARK VINA RESULT:      -6.7      2.534      4.985
REMARK  3 active torsions:
REMARK  status: ('A' for Active; 'I' for Inactive)
REMARK    1  A    between atoms: C5_6  and  C6_7 
REMARK    2  A    between atoms: C5_6  and  O3_15 
REMARK    3  A    between atoms: O3_15  and  C12_16 
ROOT
HETATM    1  C1  UNL     1      26.928  -0.909  53.077  1.00  0.00     0.112 C 
HETATM    2  C2  UNL     1      27.604   0.196  53.074  1.00  0.00     0.112 C 
HETATM    3  N1  UNL     1      27.282   1.192  53.799  1.00  0.00    -0.281 NA
HETATM    4  C3  UNL     1      26.142   2.090  53.705  1.00  0.00     0.188 C 
HETATM    5  C4  UNL     1      25.001   1.386  53.045  1.00  0.00    -0.007 C 
HETATM    6  C5  UNL     1      24.276   1.939  52.054  1.00  0.00     0.077 C 
HETATM    7  C17 UNL     1      24.649   0.005  53.514  1.00  0.00     0.188 C 
HETATM    8  N2  UNL     1      25.668  -0.929  53.104  1.00  0.00    -0.281 NA
ENDROOT
BRANCH   6   9
HETATM    9  C6  UNL     1      23.144   1.445  51.281  1.00  0.00     0.074 C 
HETATM   10  C7  UNL     1      21.855   1.738  51.269  1.00  0.00     0.073 C 
HETATM   11  C8  UNL     1      21.380   2.760  52.192  1.00  0.00     0.060 C 
HETATM   12  O2  UNL     1      21.124   1.012  50.356  1.00  0.00    -0.349 OA
HETATM   13  C9  UNL     1      20.217   3.411  52.091  1.00  0.00     0.137 C 
HETATM   14  O1  UNL     1      19.233   3.263  51.112  1.00  0.00    -0.361 OA
HETATM   15  C10 UNL     1      19.238   2.504  49.915  1.00  0.00     0.201 C 
HETATM   16  C11 UNL     1      19.726   1.076  50.147  1.00  0.00     0.202 C 
ENDBRANCH   6   9
BRANCH   6  17
HETATM   17  O3  UNL     1      24.759   3.232  51.766  1.00  0.00    -0.345 OA
BRANCH  17  18
HETATM   18  C12 UNL     1      25.140   3.652  50.485  1.00  0.00     0.133 C 
HETATM   19  C13 UNL     1      24.791   5.120  50.363  1.00  0.00     0.058 C 
HETATM   20  C14 UNL     1      25.324   5.738  49.086  1.00  0.00     0.170 C 
HETATM   21  O4  UNL     1      26.702   5.616  49.107  1.00  0.00    -0.391 OA
HETATM   22  C15 UNL     1      27.028   4.269  49.003  1.00  0.00     0.170 C 
HETATM   23  C16 UNL     1      26.621   3.477  50.222  1.00  0.00     0.058 C 
ENDBRANCH  17  18
ENDBRANCH   6  17
TORSDOF 3
ENDMDL
MODEL 7
REMARK VINA RESULT:      -6.6      2.986      5.097
REMARK  3 active torsions:
REMARK  status: ('A' for Active; 'I' for Inactive)
REMARK    1  A    between atoms: C5_6  and  C6_7 
REMARK    2  A    between atoms: C5_6  and  O3_15 
REMARK    3  A    between atoms: O3_15  and  C12_16 
ROOT
HETATM    1  C1  UNL     1      19.726   1.720  50.875  1.00  0.00     0.112 C 
HETATM    2  C2  UNL     1      20.124   0.503  51.070  1.00  0.00     0.112 C 
HETATM    3  N1  UNL     1      20.615   0.118  52.180  1.00  0.00    -0.281 NA
HETATM    4  C3  UNL     1      21.882   0.450  52.811  1.00  0.00     0.188 C 
HETATM    5  C4  UNL     1      22.336   1.795  52.345  1.00  0.00    -0.007 C 
HETATM    6  C5  UNL     1      23.596   2.040  51.933  1.00  0.00     0.077 C 
HETATM    7  C17 UNL     1      21.345   2.922  52.344  1.00  0.00     0.188 C 
HETATM    8  N2  UNL     1      20.369   2.717  51.303  1.00  0.00    -0.281 NA
ENDROOT
BRANCH   6   9
HETATM    9  C6  UNL     1      24.245   3.249  51.446  1.00  0.00     0.074 C 
HETATM   10  C7  UNL     1      24.212   3.899  50.295  1.00  0.00     0.073 C 
HETATM   11  C8  UNL     1      23.371   3.360  49.234  1.00  0.00     0.060 C 
HETATM   12  O2  UNL     1      25.000   5.026  50.265  1.00  0.00    -0.349 OA
HETATM   13  C9  UNL     1      22.956   4.037  48.159  1.00  0.00     0.137 C 
HETATM   14  O1  UNL     1      23.224   5.366  47.826  1.00  0.00    -0.361 OA
HETATM   15  C10 UNL     1      23.880   6.382  48.566  1.00  0.00     0.201 C 
HETATM   16  C11 UNL     1      25.197   5.893  49.163  1.00  0.00     0.202 C 
ENDBRANCH   6   9
BRANCH   6  17
HETATM   17  O3  UNL     1      24.367   0.862  52.015  1.00  0.00    -0.345 OA
BRANCH  17  18
HETATM   18  C12 UNL     1      25.630   0.801  52.620  1.00  0.00     0.133 C 
HETATM   19  C13 UNL     1      25.419   0.502  54.089  1.00  0.00     0.058 C 
HETATM   20  C14 UNL     1      26.719   0.228  54.817  1.00  0.00     0.170 C 
HETATM   21  O4  UNL     1      27.302  -0.878  54.225  1.00  0.00    -0.391 OA
HETATM   22  C15 UNL     1      27.693  -0.535  52.936  1.00  0.00     0.170 C 
HETATM   23  C16 UNL     1      26.519  -0.271  52.025  1.00  0.00     0.058 C 
ENDBRANCH  17  18
ENDBRANCH   6  17
TORSDOF 3
ENDMDL
MODEL 8
REMARK VINA RESULT:      -6.3      2.593      3.855
REMARK  3 active torsions:
REMARK  status: ('A' for Active; 'I' for Inactive)
REMARK    1  A    between atoms: C5_6  and  C6_7 
REMARK    2  A    between atoms: C5_6  and  O3_15 
REMARK    3  A    between atoms: O3_15  and  C12_16 
ROOT
HETATM    1  C1  UNL     1      24.370  -1.257  55.490  1.00  0.00     0.112 C 
HETATM    2  C2  UNL     1      23.105  -1.427  55.712  1.00  0.00     0.112 C 
HETATM    3  N1  UNL     1      22.296  -1.785  54.796  1.00  0.00    -0.281 NA
HETATM    4  C3  UNL     1      21.819  -1.060  53.630  1.00  0.00     0.188 C 
HETATM    5  C4  UNL     1      22.833  -0.041  53.222  1.00  0.00    -0.007 C 
HETATM    6  C5  UNL     1      22.513   1.235  52.932  1.00  0.00     0.077 C 
HETATM    7  C17 UNL     1      24.270  -0.465  53.126  1.00  0.00     0.188 C 
HETATM    8  N2  UNL     1      24.802  -0.698  54.445  1.00  0.00    -0.281 NA
ENDROOT
BRANCH   6   9
HETATM    9  C6  UNL     1      23.323   2.375  52.522  1.00  0.00     0.074 C 
HETATM   10  C7  UNL     1      23.639   2.888  51.345  1.00  0.00     0.073 C 
HETATM   11  C8  UNL     1      23.108   2.238  50.155  1.00  0.00     0.060 C 
HETATM   12  O2  UNL     1      24.450   3.998  51.418  1.00  0.00    -0.349 OA
HETATM   13  C9  UNL     1      23.038   2.792  48.940  1.00  0.00     0.137 C 
HETATM   14  O1  UNL     1      23.443   4.071  48.556  1.00  0.00    -0.361 OA
HETATM   15  C10 UNL     1      23.907   5.159  49.337  1.00  0.00     0.201 C 
HETATM   16  C11 UNL     1      24.983   4.730  50.331  1.00  0.00     0.202 C 
ENDBRANCH   6   9
BRANCH   6  17
HETATM   17  O3  UNL     1      21.124   1.429  53.075  1.00  0.00    -0.345 OA
BRANCH  17  18
HETATM   18  C12 UNL     1      20.276   1.786  52.019  1.00  0.00     0.133 C 
HETATM   19  C13 UNL     1      19.099   0.833  52.035  1.00  0.00     0.058 C 
HETATM   20  C14 UNL     1      18.017   1.232  51.053  1.00  0.00     0.170 C 
HETATM   21  O4  UNL     1      17.568   2.490  51.415  1.00  0.00    -0.391 OA
HETATM   22  C15 UNL     1      18.590   3.405  51.195  1.00  0.00     0.170 C 
HETATM   23  C16 UNL     1      19.759   3.205  52.129  1.00  0.00     0.058 C 
ENDBRANCH  17  18
ENDBRANCH   6  17
TORSDOF 3
ENDMDL
MODEL 9
REMARK VINA RESULT:      -6.1      2.833      5.346
REMARK  3 active torsions:
REMARK  status: ('A' for Active; 'I' for Inactive)
REMARK    1  A    between atoms: C5_6  and  C6_7 
REMARK    2  A    between atoms: C5_6  and  O3_15 
REMARK    3  A    between atoms: O3_15  and  C12_16 
ROOT
HETATM    1  C1  UNL     1      23.982   5.669  50.343  1.00  0.00     0.112 C 
HETATM    2  C2  UNL     1      22.966   5.306  49.626  1.00  0.00     0.112 C 
HETATM    3  N1  UNL     1      21.792   5.206  50.111  1.00  0.00    -0.281 NA
HETATM    4  C3  UNL     1      21.248   4.247  51.058  1.00  0.00     0.188 C 
HETATM    5  C4  UNL     1      22.344   3.723  51.928  1.00  0.00    -0.007 C 
HETATM    6  C5  UNL     1      22.507   2.412  52.190  1.00  0.00     0.077 C 
HETATM    7  C17 UNL     1      23.300   4.705  52.540  1.00  0.00     0.188 C 
HETATM    8  N2  UNL     1      24.157   5.257  51.521  1.00  0.00    -0.281 NA
ENDROOT
BRANCH   6   9
HETATM    9  C6  UNL     1      23.486   1.691  52.992  1.00  0.00     0.074 C 
HETATM   10  C7  UNL     1      24.769   1.415  52.829  1.00  0.00     0.073 C 
HETATM   11  C8  UNL     1      25.420   1.896  51.618  1.00  0.00     0.060 C 
HETATM   12  O2  UNL     1      25.322   0.690  53.860  1.00  0.00    -0.349 OA
HETATM   13  C9  UNL     1      26.741   2.008  51.444  1.00  0.00     0.137 C 
HETATM   14  O1  UNL     1      27.754   1.701  52.353  1.00  0.00    -0.361 OA
HETATM   15  C10 UNL     1      27.679   1.320  53.717  1.00  0.00     0.201 C 
HETATM   16  C11 UNL     1      26.652   0.214  53.944  1.00  0.00     0.202 C 
ENDBRANCH   6   9
BRANCH   6  17
HETATM   17  O3  UNL     1      21.511   1.661  51.531  1.00  0.00    -0.345 OA
BRANCH  17  18
HETATM   18  C12 UNL     1      20.321   1.245  52.140  1.00  0.00     0.133 C 
HETATM   19  C13 UNL     1      19.278   1.096  51.053  1.00  0.00     0.058 C 
HETATM   20  C14 UNL     1      17.995   0.472  51.561  1.00  0.00     0.170 C 
HETATM   21  O4  UNL     1      18.306  -0.786  52.045  1.00  0.00    -0.391 OA
HETATM   22  C15 UNL     1      19.095  -0.641  53.181  1.00  0.00     0.170 C 
HETATM   23  C16 UNL     1      20.459  -0.074  52.871  1.00  0.00     0.058 C 
ENDBRANCH  17  18
ENDBRANCH   6  17
TORSDOF 3
ENDMDL
