MODEL 1
REMARK VINA RESULT:      -8.6      0.000      0.000
REMARK  5 active torsions:
REMARK  status: ('A' for Active; 'I' for Inactive)
REMARK    1  A    between atoms: N1_1  and  C1_2 
REMARK    2  A    between atoms: C6_7  and  C7_8 
REMARK    3  A    between atoms: C9_10  and  C10_11 
REMARK    4  A    between atoms: C10_11  and  C11_12 
REMARK    5  A    between atoms: C18_20  and  N2_21 
ROOT
HETATM    1  C7  UNL     1      26.533   1.401  52.421  1.00  0.00    -0.009 A 
HETATM    2  C8  UNL     1      26.443   1.844  51.177  1.00  0.00     0.017 A 
HETATM    3  C9  UNL     1      25.294   2.700  50.955  1.00  0.00    -0.055 A 
HETATM    4  C17 UNL     1      24.690   2.754  52.128  1.00  0.00     0.020 A 
HETATM    5  C18 UNL     1      25.387   1.952  53.186  1.00  0.00     0.275 A 
ENDROOT
BRANCH   1   6
HETATM    6  C6  UNL     1      27.601   0.535  52.850  1.00  0.00    -0.001 A 
HETATM    7  C1  UNL     1      28.766   1.027  53.351  1.00  0.00     0.036 A 
HETATM    8  C2  UNL     1      29.836   0.237  53.784  1.00  0.00     0.030 A 
HETATM    9  C3  UNL     1      29.733  -1.132  53.709  1.00  0.00     0.002 A 
HETATM   10  C4  UNL     1      28.565  -1.646  53.205  1.00  0.00     0.001 A 
HETATM   11  C5  UNL     1      27.542  -0.822  52.793  1.00  0.00     0.014 A 
BRANCH   7  12
HETATM   12  N1  UNL     1      29.027   2.415  53.494  1.00  0.00    -0.398 N 
HETATM   13  H1  UNL     1      29.149   2.825  52.519  1.00  0.00     0.156 HD
HETATM   14  H2  UNL     1      29.157   3.230  54.127  1.00  0.00     0.156 HD
ENDBRANCH   7  12
ENDBRANCH   1   6
BRANCH   5  15
HETATM   15  N2  UNL     1      25.855   2.898  54.157  1.00  0.00     0.090 N 
HETATM   16  H16 UNL     1      26.235   2.447  55.020  1.00  0.00     0.314 HD
HETATM   17  H17 UNL     1      25.072   3.506  54.501  1.00  0.00     0.314 HD
ENDBRANCH   5  15
BRANCH   3  18
HETATM   18  C10 UNL     1      24.875   3.372  49.701  1.00  0.00     0.076 C 
BRANCH  18  19
HETATM   19  C11 UNL     1      25.838   4.422  49.283  1.00  0.00    -0.054 A 
HETATM   20  C12 UNL     1      25.376   5.733  49.223  1.00  0.00     0.009 A 
HETATM   21  C13 UNL     1      26.172   6.793  48.849  1.00  0.00     0.024 A 
HETATM   22  C14 UNL     1      27.480   6.480  48.531  1.00  0.00     0.034 A 
HETATM   23 CL1  UNL     1      28.568   7.748  48.047  1.00  0.00    -0.084 Cl
HETATM   24  C15 UNL     1      28.008   5.192  48.570  1.00  0.00     0.024 A 
HETATM   25  C16 UNL     1      27.162   4.171  48.952  1.00  0.00     0.009 A 
ENDBRANCH  18  19
ENDBRANCH   3  18
TORSDOF 5
ENDMDL
MODEL 2
REMARK VINA RESULT:      -8.4      3.723      4.718
REMARK  5 active torsions:
REMARK  status: ('A' for Active; 'I' for Inactive)
REMARK    1  A    between atoms: N1_1  and  C1_2 
REMARK    2  A    between atoms: C6_7  and  C7_8 
REMARK    3  A    between atoms: C9_10  and  C10_11 
REMARK    4  A    between atoms: C10_11  and  C11_12 
REMARK    5  A    between atoms: C18_20  and  N2_21 
ROOT
HETATM    1  C7  UNL     1      25.556  -0.393  53.959  1.00  0.00    -0.009 A 
HETATM    2  C8  UNL     1      24.756   0.495  53.390  1.00  0.00     0.017 A 
HETATM    3  C9  UNL     1      23.350   0.232  53.624  1.00  0.00    -0.055 A 
HETATM    4  C17 UNL     1      23.337  -0.861  54.365  1.00  0.00     0.020 A 
HETATM    5  C18 UNL     1      24.708  -1.386  54.665  1.00  0.00     0.275 A 
ENDROOT
BRANCH   1   6
HETATM    6  C6  UNL     1      26.990  -0.314  53.846  1.00  0.00    -0.001 A 
HETATM    7  C1  UNL     1      27.723  -1.320  53.299  1.00  0.00     0.036 A 
HETATM    8  C2  UNL     1      29.114  -1.300  53.162  1.00  0.00     0.030 A 
HETATM    9  C3  UNL     1      29.817  -0.203  53.603  1.00  0.00     0.002 A 
HETATM   10  C4  UNL     1      29.094   0.821  54.160  1.00  0.00     0.001 A 
HETATM   11  C5  UNL     1      27.723   0.750  54.270  1.00  0.00     0.014 A 
BRANCH   7  12
HETATM   12  N1  UNL     1      27.148  -2.517  52.796  1.00  0.00    -0.398 N 
HETATM   13  H1  UNL     1      26.099  -2.360  52.704  1.00  0.00     0.156 HD
HETATM   14  H2  UNL     1      27.285  -3.496  52.472  1.00  0.00     0.156 HD
ENDBRANCH   7  12
ENDBRANCH   1   6
BRANCH   5  15
HETATM   15  N2  UNL     1      24.881  -1.257  56.083  1.00  0.00     0.090 N 
HETATM   16  H16 UNL     1      24.316  -1.947  56.629  1.00  0.00     0.314 HD
HETATM   17  H17 UNL     1      24.551  -0.320  56.420  1.00  0.00     0.314 HD
ENDBRANCH   5  15
BRANCH   3  18
HETATM   18  C10 UNL     1      22.177   1.006  53.149  1.00  0.00     0.076 C 
BRANCH  18  19
HETATM   19  C11 UNL     1      22.285   1.356  51.710  1.00  0.00    -0.054 A 
HETATM   20  C12 UNL     1      21.503   0.637  50.812  1.00  0.00     0.009 A 
HETATM   21  C13 UNL     1      21.516   0.868  49.454  1.00  0.00     0.024 A 
HETATM   22  C14 UNL     1      22.363   1.871  49.022  1.00  0.00     0.034 A 
HETATM   23 CL1  UNL     1      22.452   2.242  47.326  1.00  0.00    -0.084 Cl
HETATM   24  C15 UNL     1      23.172   2.629  49.866  1.00  0.00     0.024 A 
HETATM   25  C16 UNL     1      23.117   2.351  51.216  1.00  0.00     0.009 A 
ENDBRANCH  18  19
ENDBRANCH   3  18
TORSDOF 5
ENDMDL
MODEL 3
REMARK VINA RESULT:      -8.3      3.155      6.614
REMARK  5 active torsions:
REMARK  status: ('A' for Active; 'I' for Inactive)
REMARK    1  A    between atoms: N1_1  and  C1_2 
REMARK    2  A    between atoms: C6_7  and  C7_8 
REMARK    3  A    between atoms: C9_10  and  C10_11 
REMARK    4  A    between atoms: C10_11  and  C11_12 
REMARK    5  A    between atoms: C18_20  and  N2_21 
ROOT
HETATM    1  C7  UNL     1      24.782   3.221  50.689  1.00  0.00    -0.009 A 
HETATM    2  C8  UNL     1      25.275   2.403  51.606  1.00  0.00     0.017 A 
HETATM    3  C9  UNL     1      24.275   1.537  52.198  1.00  0.00    -0.055 A 
HETATM    4  C17 UNL     1      23.149   1.870  51.593  1.00  0.00     0.020 A 
HETATM    5  C18 UNL     1      23.325   2.960  50.580  1.00  0.00     0.275 A 
ENDROOT
BRANCH   1   6
HETATM    6  C6  UNL     1      25.609   4.165  49.981  1.00  0.00    -0.001 A 
HETATM    7  C1  UNL     1      25.292   5.486  49.912  1.00  0.00     0.036 A 
HETATM    8  C2  UNL     1      26.054   6.447  49.242  1.00  0.00     0.030 A 
HETATM    9  C3  UNL     1      27.207   6.061  48.599  1.00  0.00     0.002 A 
HETATM   10  C4  UNL     1      27.542   4.732  48.658  1.00  0.00     0.001 A 
HETATM   11  C5  UNL     1      26.755   3.827  49.332  1.00  0.00     0.014 A 
BRANCH   7  12
HETATM   12  N1  UNL     1      24.137   6.041  50.523  1.00  0.00    -0.398 N 
HETATM   13  H1  UNL     1      23.500   5.237  50.807  1.00  0.00     0.156 HD
HETATM   14  H2  UNL     1      23.618   6.891  50.824  1.00  0.00     0.156 HD
ENDBRANCH   7  12
ENDBRANCH   1   6
BRANCH   5  15
HETATM   15  N2  UNL     1      23.028   2.370  49.307  1.00  0.00     0.090 N 
HETATM   16  H16 UNL     1      22.339   2.924  48.749  1.00  0.00     0.314 HD
HETATM   17  H17 UNL     1      22.578   1.430  49.422  1.00  0.00     0.314 HD
ENDBRANCH   5  15
BRANCH   3  18
HETATM   18  C10 UNL     1      24.457   0.502  53.245  1.00  0.00     0.076 C 
BRANCH  18  19
HETATM   19  C11 UNL     1      25.885   0.145  53.434  1.00  0.00    -0.054 A 
HETATM   20  C12 UNL     1      26.410  -0.860  52.627  1.00  0.00     0.009 A 
HETATM   21  C13 UNL     1      27.719  -1.280  52.709  1.00  0.00     0.024 A 
HETATM   22  C14 UNL     1      28.500  -0.640  53.652  1.00  0.00     0.034 A 
HETATM   23 CL1  UNL     1      30.167  -1.096  53.833  1.00  0.00    -0.084 Cl
HETATM   24  C15 UNL     1      28.039   0.373  54.490  1.00  0.00     0.024 A 
HETATM   25  C16 UNL     1      26.719   0.751  54.363  1.00  0.00     0.009 A 
ENDBRANCH  18  19
ENDBRANCH   3  18
TORSDOF 5
ENDMDL
MODEL 4
REMARK VINA RESULT:      -8.0      2.415      3.403
REMARK  5 active torsions:
REMARK  status: ('A' for Active; 'I' for Inactive)
REMARK    1  A    between atoms: N1_1  and  C1_2 
REMARK    2  A    between atoms: C6_7  and  C7_8 
REMARK    3  A    between atoms: C9_10  and  C10_11 
REMARK    4  A    between atoms: C10_11  and  C11_12 
REMARK    5  A    between atoms: C18_20  and  N2_21 
ROOT
HETATM    1  C7  UNL     1      25.823  -0.332  53.635  1.00  0.00    -0.009 A 
HETATM    2  C8  UNL     1      25.110   0.546  52.946  1.00  0.00     0.017 A 
HETATM    3  C9  UNL     1      23.681   0.405  53.144  1.00  0.00    -0.055 A 
HETATM    4  C17 UNL     1      23.562  -0.603  53.988  1.00  0.00     0.020 A 
HETATM    5  C18 UNL     1      24.880  -1.187  54.398  1.00  0.00     0.275 A 
ENDROOT
BRANCH   1   6
HETATM    6  C6  UNL     1      27.262  -0.364  53.577  1.00  0.00    -0.001 A 
HETATM    7  C1  UNL     1      28.017   0.720  53.899  1.00  0.00     0.036 A 
HETATM    8  C2  UNL     1      29.414   0.749  53.863  1.00  0.00     0.030 A 
HETATM    9  C3  UNL     1      30.099  -0.380  53.479  1.00  0.00     0.002 A 
HETATM   10  C4  UNL     1      29.354  -1.483  53.150  1.00  0.00     0.001 A 
HETATM   11  C5  UNL     1      27.978  -1.457  53.203  1.00  0.00     0.014 A 
BRANCH   7  12
HETATM   12  N1  UNL     1      27.461   1.960  54.314  1.00  0.00    -0.398 N 
HETATM   13  H1  UNL     1      26.831   1.770  55.151  1.00  0.00     0.156 HD
HETATM   14  H2  UNL     1      27.386   2.987  54.171  1.00  0.00     0.156 HD
ENDBRANCH   7  12
ENDBRANCH   1   6
BRANCH   5  15
HETATM   15  N2  UNL     1      25.010  -0.926  55.803  1.00  0.00     0.090 N 
HETATM   16  H16 UNL     1      25.786  -1.465  56.250  1.00  0.00     0.314 HD
HETATM   17  H17 UNL     1      24.149  -1.223  56.323  1.00  0.00     0.314 HD
ENDBRANCH   5  15
BRANCH   3  18
HETATM   18  C10 UNL     1      22.585   1.205  52.543  1.00  0.00     0.076 C 
BRANCH  18  19
HETATM   19  C11 UNL     1      23.100   2.301  51.686  1.00  0.00    -0.054 A 
HETATM   20  C12 UNL     1      23.107   2.094  50.310  1.00  0.00     0.009 A 
HETATM   21  C13 UNL     1      23.560   3.034  49.412  1.00  0.00     0.024 A 
HETATM   22  C14 UNL     1      24.017   4.218  49.958  1.00  0.00     0.034 A 
HETATM   23 CL1  UNL     1      24.609   5.471  48.908  1.00  0.00    -0.084 Cl
HETATM   24  C15 UNL     1      24.038   4.492  51.323  1.00  0.00     0.024 A 
HETATM   25  C16 UNL     1      23.572   3.511  52.175  1.00  0.00     0.009 A 
ENDBRANCH  18  19
ENDBRANCH   3  18
TORSDOF 5
ENDMDL
MODEL 5
REMARK VINA RESULT:      -7.9      4.766      5.831
REMARK  5 active torsions:
REMARK  status: ('A' for Active; 'I' for Inactive)
REMARK    1  A    between atoms: N1_1  and  C1_2 
REMARK    2  A    between atoms: C6_7  and  C7_8 
REMARK    3  A    between atoms: C9_10  and  C10_11 
REMARK    4  A    between atoms: C10_11  and  C11_12 
REMARK    5  A    between atoms: C18_20  and  N2_21 
ROOT
HETATM    1  C7  UNL     1      26.047  -0.068  53.407  1.00  0.00    -0.009 A 
HETATM    2  C8  UNL     1      25.524   1.039  52.901  1.00  0.00     0.017 A 
HETATM    3  C9  UNL     1      24.075   1.050  52.923  1.00  0.00    -0.055 A 
HETATM    4  C17 UNL     1      23.743  -0.106  53.470  1.00  0.00     0.020 A 
HETATM    5  C18 UNL     1      24.930  -0.945  53.837  1.00  0.00     0.275 A 
ENDROOT
BRANCH   1   6
HETATM    6  C6  UNL     1      27.470  -0.280  53.476  1.00  0.00    -0.001 A 
HETATM    7  C1  UNL     1      28.030  -1.485  53.189  1.00  0.00     0.036 A 
HETATM    8  C2  UNL     1      29.402  -1.751  53.238  1.00  0.00     0.030 A 
HETATM    9  C3  UNL     1      30.268  -0.745  53.598  1.00  0.00     0.002 A 
HETATM   10  C4  UNL     1      29.720   0.477  53.893  1.00  0.00     0.001 A 
HETATM   11  C5  UNL     1      28.360   0.684  53.828  1.00  0.00     0.014 A 
BRANCH   7  12
HETATM   12  N1  UNL     1      27.273  -2.622  52.800  1.00  0.00    -0.398 N 
HETATM   13  H1  UNL     1      27.957  -3.404  52.565  1.00  0.00     0.156 HD
HETATM   14  H2  UNL     1      26.339  -3.048  52.637  1.00  0.00     0.156 HD
ENDBRANCH   7  12
ENDBRANCH   1   6
BRANCH   5  15
HETATM   15  N2  UNL     1      24.913  -1.050  55.268  1.00  0.00     0.090 N 
HETATM   16  H16 UNL     1      25.449  -0.288  55.741  1.00  0.00     0.314 HD
HETATM   17  H17 UNL     1      25.375  -1.935  55.588  1.00  0.00     0.314 HD
ENDBRANCH   5  15
BRANCH   3  18
HETATM   18  C10 UNL     1      23.155   2.112  52.447  1.00  0.00     0.076 C 
BRANCH  18  19
HETATM   19  C11 UNL     1      21.836   1.566  52.041  1.00  0.00    -0.054 A 
HETATM   20  C12 UNL     1      21.677   1.189  50.711  1.00  0.00     0.009 A 
HETATM   21  C13 UNL     1      20.502   0.671  50.214  1.00  0.00     0.024 A 
HETATM   22  C14 UNL     1      19.469   0.541  51.122  1.00  0.00     0.034 A 
HETATM   23 CL1  UNL     1      17.943  -0.105  50.595  1.00  0.00    -0.084 Cl
HETATM   24  C15 UNL     1      19.560   0.897  52.466  1.00  0.00     0.024 A 
HETATM   25  C16 UNL     1      20.762   1.412  52.906  1.00  0.00     0.009 A 
ENDBRANCH  18  19
ENDBRANCH   3  18
TORSDOF 5
ENDMDL
MODEL 6
REMARK VINA RESULT:      -7.7      2.189      3.073
REMARK  5 active torsions:
REMARK  status: ('A' for Active; 'I' for Inactive)
REMARK    1  A    between atoms: N1_1  and  C1_2 
REMARK    2  A    between atoms: C6_7  and  C7_8 
REMARK    3  A    between atoms: C9_10  and  C10_11 
REMARK    4  A    between atoms: C10_11  and  C11_12 
REMARK    5  A    between atoms: C18_20  and  N2_21 
ROOT
HETATM    1  C7  UNL     1      23.873   3.233  52.057  1.00  0.00    -0.009 A 
HETATM    2  C8  UNL     1      24.242   3.445  50.803  1.00  0.00     0.017 A 
HETATM    3  C9  UNL     1      23.901   4.769  50.322  1.00  0.00    -0.055 A 
HETATM    4  C17 UNL     1      23.306   5.351  51.348  1.00  0.00     0.020 A 
HETATM    5  C18 UNL     1      23.215   4.466  52.555  1.00  0.00     0.275 A 
ENDROOT
BRANCH   1   6
HETATM    6  C6  UNL     1      24.118   1.980  52.726  1.00  0.00    -0.001 A 
HETATM    7  C1  UNL     1      25.317   1.694  53.298  1.00  0.00     0.036 A 
HETATM    8  C2  UNL     1      25.612   0.499  53.960  1.00  0.00     0.030 A 
HETATM    9  C3  UNL     1      24.644  -0.473  54.053  1.00  0.00     0.002 A 
HETATM   10  C4  UNL     1      23.428  -0.203  53.480  1.00  0.00     0.001 A 
HETATM   11  C5  UNL     1      23.191   0.993  52.840  1.00  0.00     0.014 A 
BRANCH   7  12
HETATM   12  N1  UNL     1      26.417   2.592  53.289  1.00  0.00    -0.398 N 
HETATM   13  H1  UNL     1      26.052   3.557  53.553  1.00  0.00     0.156 HD
HETATM   14  H2  UNL     1      27.436   2.742  53.137  1.00  0.00     0.156 HD
ENDBRANCH   7  12
ENDBRANCH   1   6
BRANCH   5  15
HETATM   15  N2  UNL     1      24.029   5.084  53.562  1.00  0.00     0.090 N 
HETATM   16  H16 UNL     1      23.778   6.084  53.735  1.00  0.00     0.314 HD
HETATM   17  H17 UNL     1      25.035   5.111  53.269  1.00  0.00     0.314 HD
ENDBRANCH   5  15
BRANCH   3  18
HETATM   18  C10 UNL     1      24.155   5.356  48.985  1.00  0.00     0.076 C 
BRANCH  18  19
HETATM   19  C11 UNL     1      25.601   5.593  48.745  1.00  0.00    -0.054 A 
HETATM   20  C12 UNL     1      25.984   6.859  48.313  1.00  0.00     0.009 A 
HETATM   21  C13 UNL     1      27.293   7.199  48.057  1.00  0.00     0.024 A 
HETATM   22  C14 UNL     1      28.226   6.199  48.255  1.00  0.00     0.034 A 
HETATM   23 CL1  UNL     1      29.907   6.529  47.960  1.00  0.00    -0.084 Cl
HETATM   24  C15 UNL     1      27.912   4.913  48.686  1.00  0.00     0.024 A 
HETATM   25  C16 UNL     1      26.583   4.629  48.926  1.00  0.00     0.009 A 
ENDBRANCH  18  19
ENDBRANCH   3  18
TORSDOF 5
ENDMDL
MODEL 7
REMARK VINA RESULT:      -7.6      3.151      7.341
REMARK  5 active torsions:
REMARK  status: ('A' for Active; 'I' for Inactive)
REMARK    1  A    between atoms: N1_1  and  C1_2 
REMARK    2  A    between atoms: C6_7  and  C7_8 
REMARK    3  A    between atoms: C9_10  and  C10_11 
REMARK    4  A    between atoms: C10_11  and  C11_12 
REMARK    5  A    between atoms: C18_20  and  N2_21 
ROOT
HETATM    1  C7  UNL     1      25.287   4.928  49.697  1.00  0.00    -0.009 A 
HETATM    2  C8  UNL     1      24.765   4.315  50.749  1.00  0.00     0.017 A 
HETATM    3  C9  UNL     1      25.430   3.069  51.074  1.00  0.00    -0.055 A 
HETATM    4  C17 UNL     1      26.384   2.956  50.167  1.00  0.00     0.020 A 
HETATM    5  C18 UNL     1      26.412   4.099  49.197  1.00  0.00     0.275 A 
ENDROOT
BRANCH   1   6
HETATM    6  C6  UNL     1      24.772   6.180  49.207  1.00  0.00    -0.001 A 
HETATM    7  C1  UNL     1      25.147   7.371  49.746  1.00  0.00     0.036 A 
HETATM    8  C2  UNL     1      24.682   8.616  49.312  1.00  0.00     0.030 A 
HETATM    9  C3  UNL     1      23.783   8.672  48.273  1.00  0.00     0.002 A 
HETATM   10  C4  UNL     1      23.392   7.480  47.718  1.00  0.00     0.001 A 
HETATM   11  C5  UNL     1      23.882   6.281  48.184  1.00  0.00     0.014 A 
BRANCH   7  12
HETATM   12  N1  UNL     1      26.067   7.482  50.822  1.00  0.00    -0.398 N 
HETATM   13  H1  UNL     1      25.506   7.543  51.725  1.00  0.00     0.156 HD
HETATM   14  H2  UNL     1      27.056   7.534  51.137  1.00  0.00     0.156 HD
ENDBRANCH   7  12
ENDBRANCH   1   6
BRANCH   5  15
HETATM   15  N2  UNL     1      27.657   4.776  49.420  1.00  0.00     0.090 N 
HETATM   16  H16 UNL     1      28.158   4.443  50.275  1.00  0.00     0.314 HD
HETATM   17  H17 UNL     1      27.505   5.801  49.586  1.00  0.00     0.314 HD
ENDBRANCH   5  15
BRANCH   3  18
HETATM   18  C10 UNL     1      25.125   2.122  52.174  1.00  0.00     0.076 C 
BRANCH  18  19
HETATM   19  C11 UNL     1      26.307   1.311  52.556  1.00  0.00    -0.054 A 
HETATM   20  C12 UNL     1      27.363   1.966  53.183  1.00  0.00     0.009 A 
HETATM   21  C13 UNL     1      28.513   1.323  53.584  1.00  0.00     0.024 A 
HETATM   22  C14 UNL     1      28.565  -0.034  53.327  1.00  0.00     0.034 A 
HETATM   23 CL1  UNL     1      29.974  -0.939  53.796  1.00  0.00    -0.084 Cl
HETATM   24  C15 UNL     1      27.546  -0.751  52.705  1.00  0.00     0.024 A 
HETATM   25  C16 UNL     1      26.418  -0.053  52.325  1.00  0.00     0.009 A 
ENDBRANCH  18  19
ENDBRANCH   3  18
TORSDOF 5
ENDMDL
MODEL 8
REMARK VINA RESULT:      -7.5      4.145      4.949
REMARK  5 active torsions:
REMARK  status: ('A' for Active; 'I' for Inactive)
REMARK    1  A    between atoms: N1_1  and  C1_2 
REMARK    2  A    between atoms: C6_7  and  C7_8 
REMARK    3  A    between atoms: C9_10  and  C10_11 
REMARK    4  A    between atoms: C10_11  and  C11_12 
REMARK    5  A    between atoms: C18_20  and  N2_21 
ROOT
HETATM    1  C7  UNL     1      22.448   1.822  51.150  1.00  0.00    -0.009 A 
HETATM    2  C8  UNL     1      22.872   3.075  51.209  1.00  0.00     0.017 A 
HETATM    3  C9  UNL     1      23.024   3.691  49.905  1.00  0.00    -0.055 A 
HETATM    4  C17 UNL     1      22.670   2.748  49.051  1.00  0.00     0.020 A 
HETATM    5  C18 UNL     1      22.269   1.467  49.720  1.00  0.00     0.275 A 
ENDROOT
BRANCH   1   6
HETATM    6  C6  UNL     1      22.234   1.030  52.333  1.00  0.00    -0.001 A 
HETATM    7  C1  UNL     1      21.080   1.106  53.048  1.00  0.00     0.036 A 
HETATM    8  C2  UNL     1      20.815   0.363  54.202  1.00  0.00     0.030 A 
HETATM    9  C3  UNL     1      21.766  -0.513  54.671  1.00  0.00     0.002 A 
HETATM   10  C4  UNL     1      22.938  -0.602  53.962  1.00  0.00     0.001 A 
HETATM   11  C5  UNL     1      23.147   0.154  52.831  1.00  0.00     0.014 A 
BRANCH   7  12
HETATM   12  N1  UNL     1      20.001   1.960  52.696  1.00  0.00    -0.398 N 
HETATM   13  H1  UNL     1      19.544   1.562  51.821  1.00  0.00     0.156 HD
HETATM   14  H2  UNL     1      19.444   2.813  52.905  1.00  0.00     0.156 HD
ENDBRANCH   7  12
ENDBRANCH   1   6
BRANCH   5  15
HETATM   15  N2  UNL     1      20.875   1.289  49.430  1.00  0.00     0.090 N 
HETATM   16  H16 UNL     1      20.264   1.408  50.269  1.00  0.00     0.314 HD
HETATM   17  H17 UNL     1      20.680   0.314  49.097  1.00  0.00     0.314 HD
ENDBRANCH   5  15
BRANCH   3  18
HETATM   18  C10 UNL     1      23.471   5.068  49.584  1.00  0.00     0.076 C 
BRANCH  18  19
HETATM   19  C11 UNL     1      24.918   5.121  49.254  1.00  0.00    -0.054 A 
HETATM   20  C12 UNL     1      25.406   6.295  48.688  1.00  0.00     0.009 A 
HETATM   21  C13 UNL     1      26.727   6.465  48.338  1.00  0.00     0.024 A 
HETATM   22  C14 UNL     1      27.559   5.389  48.582  1.00  0.00     0.034 A 
HETATM   23 CL1  UNL     1      29.246   5.504  48.177  1.00  0.00    -0.084 Cl
HETATM   24  C15 UNL     1      27.137   4.187  49.145  1.00  0.00     0.024 A 
HETATM   25  C16 UNL     1      25.802   4.075  49.475  1.00  0.00     0.009 A 
ENDBRANCH  18  19
ENDBRANCH   3  18
TORSDOF 5
ENDMDL
MODEL 9
REMARK VINA RESULT:      -7.3      3.283      5.543
REMARK  5 active torsions:
REMARK  status: ('A' for Active; 'I' for Inactive)
REMARK    1  A    between atoms: N1_1  and  C1_2 
REMARK    2  A    between atoms: C6_7  and  C7_8 
REMARK    3  A    between atoms: C9_10  and  C10_11 
REMARK    4  A    between atoms: C10_11  and  C11_12 
REMARK    5  A    between atoms: C18_20  and  N2_21 
ROOT
HETATM    1  C7  UNL     1      26.203   4.821  49.256  1.00  0.00    -0.009 A 
HETATM    2  C8  UNL     1      27.408   4.450  48.853  1.00  0.00     0.017 A 
HETATM    3  C9  UNL     1      28.235   5.561  48.424  1.00  0.00    -0.055 A 
HETATM    4  C17 UNL     1      27.471   6.625  48.587  1.00  0.00     0.020 A 
HETATM    5  C18 UNL     1      26.111   6.296  49.125  1.00  0.00     0.275 A 
ENDROOT
BRANCH   1   6
HETATM    6  C6  UNL     1      25.225   3.871  49.721  1.00  0.00    -0.001 A 
HETATM    7  C1  UNL     1      25.446   3.089  50.811  1.00  0.00     0.036 A 
HETATM    8  C2  UNL     1      24.536   2.151  51.309  1.00  0.00     0.030 A 
HETATM    9  C3  UNL     1      23.328   1.985  50.673  1.00  0.00     0.002 A 
HETATM   10  C4  UNL     1      23.088   2.765  49.570  1.00  0.00     0.001 A 
HETATM   11  C5  UNL     1      24.020   3.674  49.122  1.00  0.00     0.014 A 
BRANCH   7  12
HETATM   12  N1  UNL     1      26.641   3.141  51.576  1.00  0.00    -0.398 N 
HETATM   13  H1  UNL     1      27.444   2.831  50.948  1.00  0.00     0.156 HD
HETATM   14  H2  UNL     1      27.100   3.346  52.487  1.00  0.00     0.156 HD
ENDBRANCH   7  12
ENDBRANCH   1   6
BRANCH   5  15
HETATM   15  N2  UNL     1      26.042   6.900  50.424  1.00  0.00     0.090 N 
HETATM   16  H16 UNL     1      26.108   6.206  51.203  1.00  0.00     0.314 HD
HETATM   17  H17 UNL     1      25.118   7.375  50.572  1.00  0.00     0.314 HD
ENDBRANCH   5  15
BRANCH   3  18
HETATM   18  C10 UNL     1      29.628   5.529  47.915  1.00  0.00     0.076 C 
BRANCH  18  19
HETATM   19  C11 UNL     1      30.203   6.890  47.777  1.00  0.00    -0.054 A 
HETATM   20  C12 UNL     1      30.945   7.387  48.844  1.00  0.00     0.009 A 
HETATM   21  C13 UNL     1      31.527   8.635  48.837  1.00  0.00     0.024 A 
HETATM   22  C14 UNL     1      31.334   9.383  47.691  1.00  0.00     0.034 A 
HETATM   23 CL1  UNL     1      32.030  10.972  47.581  1.00  0.00    -0.084 Cl
HETATM   24  C15 UNL     1      30.604   8.947  46.587  1.00  0.00     0.024 A 
HETATM   25  C16 UNL     1      30.043   7.689  46.653  1.00  0.00     0.009 A 
ENDBRANCH  18  19
ENDBRANCH   3  18
TORSDOF 5
ENDMDL
