MODEL 1
REMARK VINA RESULT:      -9.1      0.000      0.000
REMARK  5 active torsions:
REMARK  status: ('A' for Active; 'I' for Inactive)
REMARK    1  A    between atoms: N1_7  and  C6_8 
REMARK    2  A    between atoms: C6_8  and  C7_9 
REMARK    3  A    between atoms: C7_9  and  C8_10 
REMARK    4  A    between atoms: C8_10  and  N2_12 
REMARK    5  A    between atoms: N2_12  and  C10_13 
ROOT
HETATM    1  C10 UNL     1      23.450   3.557  49.790  1.00  0.00     0.243 C 
HETATM    2  C11 UNL     1      22.269   3.246  49.063  1.00  0.00     0.034 C 
HETATM    3  C12 UNL     1      21.097   2.791  49.282  1.00  0.00     0.079 C 
HETATM    4  C13 UNL     1      19.815   2.472  48.438  1.00  0.00     0.092 C 
HETATM    5  N3  UNL     1      18.862   1.982  49.393  1.00  0.00    -0.299 NA
HETATM    6  C14 UNL     1      19.526   2.003  50.688  1.00  0.00     0.137 C 
HETATM    7  C15 UNL     1      20.265   2.322  51.722  1.00  0.00     0.044 C 
HETATM    8  C16 UNL     1      21.227   3.419  52.155  1.00  0.00     0.175 C 
HETATM    9  N4  UNL     1      22.546   2.782  52.017  1.00  0.00    -0.404 N 
HETATM   10  C17 UNL     1      23.086   1.596  52.703  1.00  0.00     0.095 C 
HETATM   11  C18 UNL     1      22.827   0.468  53.294  1.00  0.00     0.070 C 
HETATM   12  C19 UNL     1      23.335  -0.652  53.959  1.00  0.00    -0.021 C 
HETATM   13  C20 UNL     1      22.094  -1.104  54.080  1.00  0.00     0.040 C 
HETATM   14  C21 UNL     1      20.700  -0.867  53.815  1.00  0.00     0.131 C 
HETATM   15  F1  UNL     1      19.927  -1.909  54.266  1.00  0.00    -0.205 F 
HETATM   16  C22 UNL     1      19.850  -0.004  53.286  1.00  0.00     0.130 C 
HETATM   17  N5  UNL     1      19.873   1.271  52.641  1.00  0.00    -0.364 N 
HETATM   18  C23 UNL     1      23.606   3.303  51.241  1.00  0.00     0.153 C 
HETATM   19  H30 UNL     1      19.167   1.978  53.032  1.00  0.00     0.165 HD
ENDROOT
BRANCH   1  20
HETATM   20  N2  UNL     1      24.716   3.567  49.149  1.00  0.00     0.094 NA
HETATM   21  H17 UNL     1      24.841   2.678  48.592  1.00  0.00     0.317 HD
BRANCH  20  22
HETATM   22  C8  UNL     1      25.876   3.797  49.979  1.00  0.00     0.218 C 
HETATM   23  C9  UNL     1      26.835   4.647  49.198  1.00  0.00     0.042 C 
BRANCH  22  24
HETATM   24  C7  UNL     1      26.496   2.542  50.450  1.00  0.00     0.055 C 
BRANCH  24  25
HETATM   25  C6  UNL     1      26.957   2.446  51.823  1.00  0.00     0.125 C 
BRANCH  25  26
HETATM   26  N1  UNL     1      27.149   1.235  52.542  1.00  0.00    -0.381 N 
HETATM   27  C2  UNL     1      28.180   1.314  53.579  1.00  0.00     0.021 C 
HETATM   28  C1  UNL     1      28.836   2.483  53.729  1.00  0.00     0.040 C 
HETATM   29  C3  UNL     1      28.759   0.384  54.616  1.00  0.00     0.223 C 
HETATM   30  O1  UNL     1      28.292  -0.879  54.341  1.00  0.00    -0.384 OA
HETATM   31  C4  UNL     1      27.990  -0.984  52.979  1.00  0.00     0.187 C 
HETATM   32  C5  UNL     1      26.750  -0.172  52.709  1.00  0.00     0.149 C 
ENDBRANCH  25  26
ENDBRANCH  24  25
ENDBRANCH  22  24
ENDBRANCH  20  22
ENDBRANCH   1  20
TORSDOF 5
ENDMDL
MODEL 2
REMARK VINA RESULT:      -9.0      3.384      6.219
REMARK  5 active torsions:
REMARK  status: ('A' for Active; 'I' for Inactive)
REMARK    1  A    between atoms: N1_7  and  C6_8 
REMARK    2  A    between atoms: C6_8  and  C7_9 
REMARK    3  A    between atoms: C7_9  and  C8_10 
REMARK    4  A    between atoms: C8_10  and  N2_12 
REMARK    5  A    between atoms: N2_12  and  C10_13 
ROOT
HETATM    1  C10 UNL     1      22.846   3.330  51.394  1.00  0.00     0.243 C 
HETATM    2  C11 UNL     1      22.223   4.597  51.557  1.00  0.00     0.034 C 
HETATM    3  C12 UNL     1      22.155   5.720  50.953  1.00  0.00     0.079 C 
HETATM    4  C13 UNL     1      21.439   7.097  51.171  1.00  0.00     0.092 C 
HETATM    5  N3  UNL     1      21.835   7.896  50.047  1.00  0.00    -0.299 NA
HETATM    6  C14 UNL     1      22.715   7.066  49.238  1.00  0.00     0.137 C 
HETATM    7  C15 UNL     1      23.277   6.062  48.610  1.00  0.00     0.044 C 
HETATM    8  C16 UNL     1      23.064   4.571  48.400  1.00  0.00     0.175 C 
HETATM    9  N4  UNL     1      24.072   3.960  49.278  1.00  0.00    -0.404 N 
HETATM   10  C17 UNL     1      25.540   4.080  49.239  1.00  0.00     0.095 C 
HETATM   11  C18 UNL     1      26.564   4.805  48.903  1.00  0.00     0.070 C 
HETATM   12  C19 UNL     1      27.957   4.916  48.851  1.00  0.00    -0.021 C 
HETATM   13  C20 UNL     1      27.810   6.113  48.297  1.00  0.00     0.040 C 
HETATM   14  C21 UNL     1      26.887   7.112  47.830  1.00  0.00     0.131 C 
HETATM   15  F1  UNL     1      27.552   8.217  47.358  1.00  0.00    -0.205 F 
HETATM   16  C22 UNL     1      25.603   7.385  47.677  1.00  0.00     0.130 C 
HETATM   17  N5  UNL     1      24.336   6.768  47.914  1.00  0.00    -0.364 N 
HETATM   18  C23 UNL     1      23.783   3.017  50.290  1.00  0.00     0.153 C 
HETATM   19  H30 UNL     1      23.662   6.804  47.080  1.00  0.00     0.165 HD
ENDROOT
BRANCH   1  20
HETATM   20  N2  UNL     1      23.102   2.497  52.514  1.00  0.00     0.094 NA
HETATM   21  H17 UNL     1      24.046   2.735  52.927  1.00  0.00     0.317 HD
BRANCH  20  22
HETATM   22  C8  UNL     1      22.995   1.071  52.316  1.00  0.00     0.218 C 
HETATM   23  C9  UNL     1      21.582   0.672  52.621  1.00  0.00     0.042 C 
BRANCH  22  24
HETATM   24  C7  UNL     1      23.976   0.310  53.116  1.00  0.00     0.055 C 
BRANCH  24  25
HETATM   25  C6  UNL     1      25.376   0.327  52.731  1.00  0.00     0.125 C 
BRANCH  25  26
HETATM   26  N1  UNL     1      26.465   0.597  53.604  1.00  0.00    -0.381 N 
HETATM   27  C2  UNL     1      27.351   1.667  53.142  1.00  0.00     0.021 C 
HETATM   28  C1  UNL     1      27.066   2.256  51.962  1.00  0.00     0.040 C 
HETATM   29  C3  UNL     1      28.589   2.358  53.655  1.00  0.00     0.223 C 
HETATM   30  O1  UNL     1      29.048   1.633  54.729  1.00  0.00    -0.384 OA
HETATM   31  C4  UNL     1      28.639   0.301  54.608  1.00  0.00     0.187 C 
HETATM   32  C5  UNL     1      27.154   0.241  54.855  1.00  0.00     0.149 C 
ENDBRANCH  25  26
ENDBRANCH  24  25
ENDBRANCH  22  24
ENDBRANCH  20  22
ENDBRANCH   1  20
TORSDOF 5
ENDMDL
MODEL 3
REMARK VINA RESULT:      -8.9      3.690      7.115
REMARK  5 active torsions:
REMARK  status: ('A' for Active; 'I' for Inactive)
REMARK    1  A    between atoms: N1_7  and  C6_8 
REMARK    2  A    between atoms: C6_8  and  C7_9 
REMARK    3  A    between atoms: C7_9  and  C8_10 
REMARK    4  A    between atoms: C8_10  and  N2_12 
REMARK    5  A    between atoms: N2_12  and  C10_13 
ROOT
HETATM    1  C10 UNL     1      25.538   2.372  52.113  1.00  0.00     0.243 C 
HETATM    2  C11 UNL     1      24.475   3.220  52.530  1.00  0.00     0.034 C 
HETATM    3  C12 UNL     1      23.730   4.136  52.044  1.00  0.00     0.079 C 
HETATM    4  C13 UNL     1      22.554   5.042  52.547  1.00  0.00     0.092 C 
HETATM    5  N3  UNL     1      22.203   5.846  51.412  1.00  0.00    -0.299 NA
HETATM    6  C14 UNL     1      23.098   5.454  50.333  1.00  0.00     0.137 C 
HETATM    7  C15 UNL     1      23.857   4.777  49.507  1.00  0.00     0.044 C 
HETATM    8  C16 UNL     1      24.306   3.343  49.269  1.00  0.00     0.175 C 
HETATM    9  N4  UNL     1      25.684   3.332  49.782  1.00  0.00    -0.404 N 
HETATM   10  C17 UNL     1      26.852   4.110  49.336  1.00  0.00     0.095 C 
HETATM   11  C18 UNL     1      27.286   5.196  48.771  1.00  0.00     0.070 C 
HETATM   12  C19 UNL     1      28.392   5.931  48.332  1.00  0.00    -0.021 C 
HETATM   13  C20 UNL     1      27.560   6.881  47.923  1.00  0.00     0.040 C 
HETATM   14  C21 UNL     1      26.191   7.306  47.804  1.00  0.00     0.131 C 
HETATM   15  F1  UNL     1      26.109   8.553  47.236  1.00  0.00    -0.205 F 
HETATM   16  C22 UNL     1      24.941   6.945  48.040  1.00  0.00     0.130 C 
HETATM   17  N5  UNL     1      24.227   5.836  48.587  1.00  0.00    -0.364 N 
HETATM   18  C23 UNL     1      26.160   2.442  50.771  1.00  0.00     0.153 C 
HETATM   19  H30 UNL     1      23.408   5.494  47.983  1.00  0.00     0.165 HD
ENDROOT
BRANCH   1  20
HETATM   20  N2  UNL     1      26.453   1.838  53.057  1.00  0.00     0.094 NA
HETATM   21  H17 UNL     1      27.325   1.506  52.560  1.00  0.00     0.317 HD
BRANCH  20  22
HETATM   22  C8  UNL     1      25.964   0.804  53.939  1.00  0.00     0.218 C 
HETATM   23  C9  UNL     1      27.138   0.258  54.698  1.00  0.00     0.042 C 
BRANCH  22  24
HETATM   24  C7  UNL     1      25.221  -0.252  53.222  1.00  0.00     0.055 C 
BRANCH  24  25
HETATM   25  C6  UNL     1      23.870  -0.581  53.637  1.00  0.00     0.125 C 
BRANCH  25  26
HETATM   26  N1  UNL     1      22.682  -0.079  53.040  1.00  0.00    -0.381 N 
HETATM   27  C2  UNL     1      21.449  -0.616  53.619  1.00  0.00     0.021 C 
HETATM   28  C1  UNL     1      21.560  -1.519  54.614  1.00  0.00     0.040 C 
HETATM   29  C3  UNL     1      19.968  -0.425  53.405  1.00  0.00     0.223 C 
HETATM   30  O1  UNL     1      19.811   0.299  52.247  1.00  0.00    -0.384 OA
HETATM   31  C4  UNL     1      20.912   0.093  51.409  1.00  0.00     0.187 C 
HETATM   32  C5  UNL     1      22.100   0.798  52.011  1.00  0.00     0.149 C 
ENDBRANCH  25  26
ENDBRANCH  24  25
ENDBRANCH  22  24
ENDBRANCH  20  22
ENDBRANCH   1  20
TORSDOF 5
ENDMDL
MODEL 4
REMARK VINA RESULT:      -8.8      2.595      6.012
REMARK  5 active torsions:
REMARK  status: ('A' for Active; 'I' for Inactive)
REMARK    1  A    between atoms: N1_7  and  C6_8 
REMARK    2  A    between atoms: C6_8  and  C7_9 
REMARK    3  A    between atoms: C7_9  and  C8_10 
REMARK    4  A    between atoms: C8_10  and  N2_12 
REMARK    5  A    between atoms: N2_12  and  C10_13 
ROOT
HETATM    1  C10 UNL     1      26.696   2.877  51.259  1.00  0.00     0.243 C 
HETATM    2  C11 UNL     1      27.629   2.738  52.323  1.00  0.00     0.034 C 
HETATM    3  C12 UNL     1      27.907   1.912  53.254  1.00  0.00     0.079 C 
HETATM    4  C13 UNL     1      28.963   1.798  54.408  1.00  0.00     0.092 C 
HETATM    5  N3  UNL     1      28.657   0.558  55.062  1.00  0.00    -0.299 NA
HETATM    6  C14 UNL     1      27.515  -0.010  54.360  1.00  0.00     0.137 C 
HETATM    7  C15 UNL     1      26.655  -0.383  53.444  1.00  0.00     0.044 C 
HETATM    8  C16 UNL     1      26.466  -0.291  51.937  1.00  0.00     0.175 C 
HETATM    9  N4  UNL     1      25.440   0.752  51.789  1.00  0.00    -0.404 N 
HETATM   10  C17 UNL     1      24.054   0.774  52.285  1.00  0.00     0.095 C 
HETATM   11  C18 UNL     1      23.211   0.355  53.181  1.00  0.00     0.070 C 
HETATM   12  C19 UNL     1      21.892   0.361  53.647  1.00  0.00    -0.021 C 
HETATM   13  C20 UNL     1      22.271  -0.436  54.638  1.00  0.00     0.040 C 
HETATM   14  C21 UNL     1      23.356  -1.153  55.252  1.00  0.00     0.131 C 
HETATM   15  F1  UNL     1      22.939  -1.804  56.386  1.00  0.00    -0.205 F 
HETATM   16  C22 UNL     1      24.644  -1.433  55.140  1.00  0.00     0.130 C 
HETATM   17  N5  UNL     1      25.735  -1.147  54.264  1.00  0.00    -0.364 N 
HETATM   18  C23 UNL     1      25.595   1.919  51.007  1.00  0.00     0.153 C 
HETATM   19  H30 UNL     1      26.301  -2.008  53.965  1.00  0.00     0.165 HD
ENDROOT
BRANCH   1  20
HETATM   20  N2  UNL     1      26.365   4.159  50.746  1.00  0.00     0.094 NA
HETATM   21  H17 UNL     1      25.518   4.538  51.252  1.00  0.00     0.317 HD
BRANCH  20  22
HETATM   22  C8  UNL     1      26.180   4.272  49.319  1.00  0.00     0.218 C 
HETATM   23  C9  UNL     1      27.470   4.757  48.727  1.00  0.00     0.042 C 
BRANCH  22  24
HETATM   24  C7  UNL     1      25.039   5.139  48.960  1.00  0.00     0.055 C 
BRANCH  24  25
HETATM   25  C6  UNL     1      23.989   5.375  49.935  1.00  0.00     0.125 C 
BRANCH  25  26
HETATM   26  N1  UNL     1      22.819   4.582  50.091  1.00  0.00    -0.381 N 
HETATM   27  C2  UNL     1      22.463   4.312  51.484  1.00  0.00     0.021 C 
HETATM   28  C1  UNL     1      23.265   4.807  52.449  1.00  0.00     0.040 C 
HETATM   29  C3  UNL     1      21.359   3.581  52.207  1.00  0.00     0.223 C 
HETATM   30  O1  UNL     1      20.658   2.863  51.267  1.00  0.00    -0.384 OA
HETATM   31  C4  UNL     1      21.490   2.572  50.180  1.00  0.00     0.187 C 
HETATM   32  C5  UNL     1      21.734   3.849  49.419  1.00  0.00     0.149 C 
ENDBRANCH  25  26
ENDBRANCH  24  25
ENDBRANCH  22  24
ENDBRANCH  20  22
ENDBRANCH   1  20
TORSDOF 5
ENDMDL
MODEL 5
REMARK VINA RESULT:      -8.7      5.014      8.796
REMARK  5 active torsions:
REMARK  status: ('A' for Active; 'I' for Inactive)
REMARK    1  A    between atoms: N1_7  and  C6_8 
REMARK    2  A    between atoms: C6_8  and  C7_9 
REMARK    3  A    between atoms: C7_9  and  C8_10 
REMARK    4  A    between atoms: C8_10  and  N2_12 
REMARK    5  A    between atoms: N2_12  and  C10_13 
ROOT
HETATM    1  C10 UNL     1      26.259   5.753  49.573  1.00  0.00     0.243 C 
HETATM    2  C11 UNL     1      26.100   7.119  49.931  1.00  0.00     0.034 C 
HETATM    3  C12 UNL     1      26.624   8.251  49.659  1.00  0.00     0.079 C 
HETATM    4  C13 UNL     1      26.404   9.746  50.077  1.00  0.00     0.092 C 
HETATM    5  N3  UNL     1      27.390  10.480  49.338  1.00  0.00    -0.299 NA
HETATM    6  C14 UNL     1      28.133   9.504  48.554  1.00  0.00     0.137 C 
HETATM    7  C15 UNL     1      28.478   8.474  47.820  1.00  0.00     0.044 C 
HETATM    8  C16 UNL     1      27.836   7.260  47.166  1.00  0.00     0.175 C 
HETATM    9  N4  UNL     1      28.232   6.153  48.049  1.00  0.00    -0.404 N 
HETATM   10  C17 UNL     1      29.580   5.660  48.381  1.00  0.00     0.095 C 
HETATM   11  C18 UNL     1      30.843   5.941  48.499  1.00  0.00     0.070 C 
HETATM   12  C19 UNL     1      32.127   5.473  48.799  1.00  0.00    -0.021 C 
HETATM   13  C20 UNL     1      32.590   6.696  48.577  1.00  0.00     0.040 C 
HETATM   14  C21 UNL     1      32.275   8.049  48.204  1.00  0.00     0.131 C 
HETATM   15  F1  UNL     1      33.396   8.840  48.218  1.00  0.00    -0.205 F 
HETATM   16  C22 UNL     1      31.286   8.849  47.842  1.00  0.00     0.130 C 
HETATM   17  N5  UNL     1      29.879   8.782  47.606  1.00  0.00    -0.364 N 
HETATM   18  C23 UNL     1      27.326   5.263  48.670  1.00  0.00     0.153 C 
HETATM   19  H30 UNL     1      29.562   9.228  46.683  1.00  0.00     0.165 HD
ENDROOT
BRANCH   1  20
HETATM   20  N2  UNL     1      25.838   4.719  50.449  1.00  0.00     0.094 NA
HETATM   21  H17 UNL     1      26.557   4.583  51.213  1.00  0.00     0.317 HD
BRANCH  20  22
HETATM   22  C8  UNL     1      25.500   3.446  49.857  1.00  0.00     0.218 C 
HETATM   23  C9  UNL     1      24.132   3.573  49.251  1.00  0.00     0.042 C 
BRANCH  22  24
HETATM   24  C7  UNL     1      25.583   2.330  50.820  1.00  0.00     0.055 C 
BRANCH  24  25
HETATM   25  C6  UNL     1      26.789   2.159  51.610  1.00  0.00     0.125 C 
BRANCH  25  26
HETATM   26  N1  UNL     1      27.077   1.040  52.438  1.00  0.00    -0.381 N 
HETATM   27  C2  UNL     1      28.064   1.309  53.485  1.00  0.00     0.021 C 
HETATM   28  C1  UNL     1      28.601   2.545  53.543  1.00  0.00     0.040 C 
HETATM   29  C3  UNL     1      28.700   0.535  54.612  1.00  0.00     0.223 C 
HETATM   30  O1  UNL     1      28.365  -0.787  54.442  1.00  0.00    -0.384 OA
HETATM   31  C4  UNL     1      28.113  -1.039  53.089  1.00  0.00     0.187 C 
HETATM   32  C5  UNL     1      26.809  -0.380  52.722  1.00  0.00     0.149 C 
ENDBRANCH  25  26
ENDBRANCH  24  25
ENDBRANCH  22  24
ENDBRANCH  20  22
ENDBRANCH   1  20
TORSDOF 5
ENDMDL
MODEL 6
REMARK VINA RESULT:      -8.6      2.904      5.443
REMARK  5 active torsions:
REMARK  status: ('A' for Active; 'I' for Inactive)
REMARK    1  A    between atoms: N1_7  and  C6_8 
REMARK    2  A    between atoms: C6_8  and  C7_9 
REMARK    3  A    between atoms: C7_9  and  C8_10 
REMARK    4  A    between atoms: C8_10  and  N2_12 
REMARK    5  A    between atoms: N2_12  and  C10_13 
ROOT
HETATM    1  C10 UNL     1      22.398   1.645  51.878  1.00  0.00     0.243 C 
HETATM    2  C11 UNL     1      21.200   2.409  51.893  1.00  0.00     0.034 C 
HETATM    3  C12 UNL     1      20.601   3.272  51.168  1.00  0.00     0.079 C 
HETATM    4  C13 UNL     1      19.262   4.086  51.225  1.00  0.00     0.092 C 
HETATM    5  N3  UNL     1      19.262   4.873  50.026  1.00  0.00    -0.299 NA
HETATM    6  C14 UNL     1      20.497   4.557  49.323  1.00  0.00     0.137 C 
HETATM    7  C15 UNL     1      21.539   3.944  48.816  1.00  0.00     0.044 C 
HETATM    8  C16 UNL     1      22.144   2.549  48.768  1.00  0.00     0.175 C 
HETATM    9  N4  UNL     1      23.261   2.634  49.720  1.00  0.00    -0.404 N 
HETATM   10  C17 UNL     1      24.453   3.499  49.686  1.00  0.00     0.095 C 
HETATM   11  C18 UNL     1      24.974   4.620  49.285  1.00  0.00     0.070 C 
HETATM   12  C19 UNL     1      26.107   5.437  49.238  1.00  0.00    -0.021 C 
HETATM   13  C20 UNL     1      25.399   6.327  48.555  1.00  0.00     0.040 C 
HETATM   14  C21 UNL     1      24.126   6.653  47.969  1.00  0.00     0.131 C 
HETATM   15  F1  UNL     1      24.154   7.895  47.387  1.00  0.00    -0.205 F 
HETATM   16  C22 UNL     1      22.900   6.200  47.771  1.00  0.00     0.130 C 
HETATM   17  N5  UNL     1      22.123   5.036  48.059  1.00  0.00    -0.364 N 
HETATM   18  C23 UNL     1      23.434   1.772  50.827  1.00  0.00     0.153 C 
HETATM   19  H30 UNL     1      21.587   4.641  47.218  1.00  0.00     0.165 HD
ENDROOT
BRANCH   1  20
HETATM   20  N2  UNL     1      22.972   1.170  53.085  1.00  0.00     0.094 NA
HETATM   21  H17 UNL     1      23.913   1.629  53.238  1.00  0.00     0.317 HD
BRANCH  20  22
HETATM   22  C8  UNL     1      23.089  -0.261  53.244  1.00  0.00     0.218 C 
HETATM   23  C9  UNL     1      22.081  -0.690  54.270  1.00  0.00     0.042 C 
BRANCH  22  24
HETATM   24  C7  UNL     1      24.459  -0.684  53.595  1.00  0.00     0.055 C 
BRANCH  24  25
HETATM   25  C6  UNL     1      25.592   0.045  53.054  1.00  0.00     0.125 C 
BRANCH  25  26
HETATM   26  N1  UNL     1      26.735   0.454  53.793  1.00  0.00    -0.381 N 
HETATM   27  C2  UNL     1      27.424   1.618  53.233  1.00  0.00     0.021 C 
HETATM   28  C1  UNL     1      26.933   2.156  52.098  1.00  0.00     0.040 C 
HETATM   29  C3  UNL     1      28.621   2.458  53.599  1.00  0.00     0.223 C 
HETATM   30  O1  UNL     1      29.289   1.805  54.608  1.00  0.00    -0.384 OA
HETATM   31  C4  UNL     1      29.032   0.432  54.531  1.00  0.00     0.187 C 
HETATM   32  C5  UNL     1      27.605   0.196  54.952  1.00  0.00     0.149 C 
ENDBRANCH  25  26
ENDBRANCH  24  25
ENDBRANCH  22  24
ENDBRANCH  20  22
ENDBRANCH   1  20
TORSDOF 5
ENDMDL
MODEL 7
REMARK VINA RESULT:      -8.4      3.342      4.812
REMARK  5 active torsions:
REMARK  status: ('A' for Active; 'I' for Inactive)
REMARK    1  A    between atoms: N1_7  and  C6_8 
REMARK    2  A    between atoms: C6_8  and  C7_9 
REMARK    3  A    between atoms: C7_9  and  C8_10 
REMARK    4  A    between atoms: C8_10  and  N2_12 
REMARK    5  A    between atoms: N2_12  and  C10_13 
ROOT
HETATM    1  C10 UNL     1      24.571   3.491  49.744  1.00  0.00     0.243 C 
HETATM    2  C11 UNL     1      23.462   2.979  49.017  1.00  0.00     0.034 C 
HETATM    3  C12 UNL     1      22.350   2.394  49.245  1.00  0.00     0.079 C 
HETATM    4  C13 UNL     1      21.146   1.852  48.401  1.00  0.00     0.092 C 
HETATM    5  N3  UNL     1      20.233   1.316  49.369  1.00  0.00    -0.299 NA
HETATM    6  C14 UNL     1      20.848   1.518  50.674  1.00  0.00     0.137 C 
HETATM    7  C15 UNL     1      21.507   2.006  51.696  1.00  0.00     0.044 C 
HETATM    8  C16 UNL     1      22.309   3.245  52.063  1.00  0.00     0.175 C 
HETATM    9  N4  UNL     1      23.701   2.775  52.004  1.00  0.00    -0.404 N 
HETATM   10  C17 UNL     1      24.365   1.722  52.792  1.00  0.00     0.095 C 
HETATM   11  C18 UNL     1      24.232   0.618  53.463  1.00  0.00     0.070 C 
HETATM   12  C19 UNL     1      24.856  -0.376  54.224  1.00  0.00    -0.021 C 
HETATM   13  C20 UNL     1      23.678  -0.973  54.353  1.00  0.00     0.040 C 
HETATM   14  C21 UNL     1      22.274  -0.937  54.040  1.00  0.00     0.131 C 
HETATM   15  F1  UNL     1      21.625  -2.032  54.553  1.00  0.00    -0.205 F 
HETATM   16  C22 UNL     1      21.340  -0.232  53.426  1.00  0.00     0.130 C 
HETATM   17  N5  UNL     1      21.222   0.984  52.685  1.00  0.00    -0.364 N 
HETATM   18  C23 UNL     1      24.711   3.368  51.213  1.00  0.00     0.153 C 
HETATM   19  H30 UNL     1      20.421   1.622  53.004  1.00  0.00     0.165 HD
ENDROOT
BRANCH   1  20
HETATM   20  N2  UNL     1      25.845   3.616  49.132  1.00  0.00     0.094 NA
HETATM   21  H17 UNL     1      26.476   2.832  49.458  1.00  0.00     0.317 HD
BRANCH  20  22
HETATM   22  C8  UNL     1      26.522   4.884  49.268  1.00  0.00     0.218 C 
HETATM   23  C9  UNL     1      25.603   5.951  48.752  1.00  0.00     0.042 C 
BRANCH  22  24
HETATM   24  C7  UNL     1      27.836   4.903  48.593  1.00  0.00     0.055 C 
BRANCH  24  25
HETATM   25  C6  UNL     1      28.395   6.170  48.157  1.00  0.00     0.125 C 
BRANCH  25  26
HETATM   26  N1  UNL     1      29.708   6.631  48.447  1.00  0.00    -0.381 N 
HETATM   27  C2  UNL     1      29.774   8.044  48.826  1.00  0.00     0.021 C 
HETATM   28  C1  UNL     1      28.623   8.748  48.840  1.00  0.00     0.040 C 
HETATM   29  C3  UNL     1      30.850   9.013  49.244  1.00  0.00     0.223 C 
HETATM   30  O1  UNL     1      32.062   8.407  49.013  1.00  0.00    -0.384 OA
HETATM   31  C4  UNL     1      31.927   7.460  47.991  1.00  0.00     0.187 C 
HETATM   32  C5  UNL     1      31.138   6.295  48.530  1.00  0.00     0.149 C 
ENDBRANCH  25  26
ENDBRANCH  24  25
ENDBRANCH  22  24
ENDBRANCH  20  22
ENDBRANCH   1  20
TORSDOF 5
ENDMDL
MODEL 8
REMARK VINA RESULT:      -8.2      3.058      5.179
REMARK  5 active torsions:
REMARK  status: ('A' for Active; 'I' for Inactive)
REMARK    1  A    between atoms: N1_7  and  C6_8 
REMARK    2  A    between atoms: C6_8  and  C7_9 
REMARK    3  A    between atoms: C7_9  and  C8_10 
REMARK    4  A    between atoms: C8_10  and  N2_12 
REMARK    5  A    between atoms: N2_12  and  C10_13 
ROOT
HETATM    1  C10 UNL     1      25.028   3.975  50.180  1.00  0.00     0.243 C 
HETATM    2  C11 UNL     1      24.197   3.427  49.165  1.00  0.00     0.034 C 
HETATM    3  C12 UNL     1      23.145   2.711  49.068  1.00  0.00     0.079 C 
HETATM    4  C13 UNL     1      22.252   2.136  47.914  1.00  0.00     0.092 C 
HETATM    5  N3  UNL     1      21.211   1.413  48.584  1.00  0.00    -0.299 NA
HETATM    6  C14 UNL     1      21.468   1.542  50.011  1.00  0.00     0.137 C 
HETATM    7  C15 UNL     1      21.801   1.988  51.198  1.00  0.00     0.044 C 
HETATM    8  C16 UNL     1      22.331   3.260  51.843  1.00  0.00     0.175 C 
HETATM    9  N4  UNL     1      23.745   2.945  52.095  1.00  0.00    -0.404 N 
HETATM   10  C17 UNL     1      24.329   1.891  52.942  1.00  0.00     0.095 C 
HETATM   11  C18 UNL     1      24.181   0.716  53.476  1.00  0.00     0.070 C 
HETATM   12  C19 UNL     1      24.726  -0.281  54.291  1.00  0.00    -0.021 C 
HETATM   13  C20 UNL     1      23.636  -1.007  54.080  1.00  0.00     0.040 C 
HETATM   14  C21 UNL     1      22.353  -1.084  53.434  1.00  0.00     0.131 C 
HETATM   15  F1  UNL     1      21.744  -2.287  53.688  1.00  0.00    -0.205 F 
HETATM   16  C22 UNL     1      21.510  -0.420  52.662  1.00  0.00     0.130 C 
HETATM   17  N5  UNL     1      21.419   0.846  52.007  1.00  0.00    -0.364 N 
HETATM   18  C23 UNL     1      24.831   3.717  51.625  1.00  0.00     0.153 C 
HETATM   19  H30 UNL     1      20.492   1.362  52.164  1.00  0.00     0.165 HD
ENDROOT
BRANCH   1  20
HETATM   20  N2  UNL     1      26.385   4.293  49.913  1.00  0.00     0.094 NA
HETATM   21  H17 UNL     1      26.862   4.598  50.806  1.00  0.00     0.317 HD
BRANCH  20  22
HETATM   22  C8  UNL     1      26.646   5.249  48.862  1.00  0.00     0.218 C 
HETATM   23  C9  UNL     1      28.087   5.111  48.467  1.00  0.00     0.042 C 
BRANCH  22  24
HETATM   24  C7  UNL     1      26.303   6.631  49.253  1.00  0.00     0.055 C 
BRANCH  24  25
HETATM   25  C6  UNL     1      25.057   7.214  48.790  1.00  0.00     0.125 C 
BRANCH  25  26
HETATM   26  N1  UNL     1      23.793   7.061  49.423  1.00  0.00    -0.381 N 
HETATM   27  C2  UNL     1      22.724   6.622  48.524  1.00  0.00     0.021 C 
HETATM   28  C1  UNL     1      23.030   6.433  47.225  1.00  0.00     0.040 C 
HETATM   29  C3  UNL     1      21.259   6.288  48.651  1.00  0.00     0.223 C 
HETATM   30  O1  UNL     1      20.852   6.694  49.900  1.00  0.00    -0.384 OA
HETATM   31  C4  UNL     1      21.669   7.739  50.345  1.00  0.00     0.187 C 
HETATM   32  C5  UNL     1      23.024   7.169  50.674  1.00  0.00     0.149 C 
ENDBRANCH  25  26
ENDBRANCH  24  25
ENDBRANCH  22  24
ENDBRANCH  20  22
ENDBRANCH   1  20
TORSDOF 5
ENDMDL
MODEL 9
REMARK VINA RESULT:      -8.1      5.121      9.156
REMARK  5 active torsions:
REMARK  status: ('A' for Active; 'I' for Inactive)
REMARK    1  A    between atoms: N1_7  and  C6_8 
REMARK    2  A    between atoms: C6_8  and  C7_9 
REMARK    3  A    between atoms: C7_9  and  C8_10 
REMARK    4  A    between atoms: C8_10  and  N2_12 
REMARK    5  A    between atoms: N2_12  and  C10_13 
ROOT
HETATM    1  C10 UNL     1      19.083   2.980  51.454  1.00  0.00     0.243 C 
HETATM    2  C11 UNL     1      20.105   3.958  51.590  1.00  0.00     0.034 C 
HETATM    3  C12 UNL     1      21.377   4.011  51.685  1.00  0.00     0.079 C 
HETATM    4  C13 UNL     1      22.471   5.126  51.825  1.00  0.00     0.092 C 
HETATM    5  N3  UNL     1      23.715   4.414  51.868  1.00  0.00    -0.299 NA
HETATM    6  C14 UNL     1      23.386   2.999  51.768  1.00  0.00     0.137 C 
HETATM    7  C15 UNL     1      22.841   1.850  51.454  1.00  0.00     0.044 C 
HETATM    8  C16 UNL     1      21.724   1.307  50.574  1.00  0.00     0.175 C 
HETATM    9  N4  UNL     1      20.654   1.006  51.536  1.00  0.00    -0.404 N 
HETATM   10  C17 UNL     1      20.654   0.062  52.667  1.00  0.00     0.095 C 
HETATM   11  C18 UNL     1      21.358  -0.568  53.559  1.00  0.00     0.070 C 
HETATM   12  C19 UNL     1      21.365  -1.475  54.624  1.00  0.00    -0.021 C 
HETATM   13  C20 UNL     1      22.678  -1.309  54.717  1.00  0.00     0.040 C 
HETATM   14  C21 UNL     1      23.844  -0.650  54.191  1.00  0.00     0.131 C 
HETATM   15  F1  UNL     1      24.968  -0.996  54.899  1.00  0.00    -0.205 F 
HETATM   16  C22 UNL     1      24.261   0.190  53.259  1.00  0.00     0.130 C 
HETATM   17  N5  UNL     1      23.721   0.952  52.178  1.00  0.00    -0.364 N 
HETATM   18  C23 UNL     1      19.341   1.522  51.457  1.00  0.00     0.153 C 
HETATM   19  H30 UNL     1      24.258   0.855  51.255  1.00  0.00     0.165 HD
ENDROOT
BRANCH   1  20
HETATM   20  N2  UNL     1      17.758   3.251  51.885  1.00  0.00     0.094 NA
HETATM   21  H17 UNL     1      17.599   2.824  52.840  1.00  0.00     0.317 HD
BRANCH  20  22
HETATM   22  C8  UNL     1      16.684   2.880  50.994  1.00  0.00     0.218 C 
HETATM   23  C9  UNL     1      16.127   4.141  50.401  1.00  0.00     0.042 C 
BRANCH  22  24
HETATM   24  C7  UNL     1      15.645   2.070  51.661  1.00  0.00     0.055 C 
BRANCH  24  25
HETATM   25  C6  UNL     1      14.813   2.679  52.684  1.00  0.00     0.125 C 
BRANCH  25  26
HETATM   26  N1  UNL     1      13.626   2.112  53.222  1.00  0.00    -0.381 N 
HETATM   27  C2  UNL     1      12.741   3.082  53.870  1.00  0.00     0.021 C 
HETATM   28  C1  UNL     1      13.138   4.370  53.908  1.00  0.00     0.040 C 
HETATM   29  C3  UNL     1      11.400   3.047  54.557  1.00  0.00     0.223 C 
HETATM   30  O1  UNL     1      11.072   1.727  54.752  1.00  0.00    -0.384 OA
HETATM   31  C4  UNL     1      12.239   0.958  54.823  1.00  0.00     0.187 C 
HETATM   32  C5  UNL     1      12.840   0.887  53.443  1.00  0.00     0.149 C 
ENDBRANCH  25  26
ENDBRANCH  24  25
ENDBRANCH  22  24
ENDBRANCH  20  22
ENDBRANCH   1  20
TORSDOF 5
ENDMDL
