MODEL 1
REMARK VINA RESULT:      -9.1      0.000      0.000
REMARK  2 active torsions:
REMARK  status: ('A' for Active; 'I' for Inactive)
REMARK    1  A    between atoms: C8_9  and  C9_10 
REMARK       I    between atoms: C9_10  and  N1_12 
REMARK    2  A    between atoms: N1_12  and  C10_13 
ROOT
HETATM    1  C9  UNL     1      26.294   3.237  50.753  1.00  0.00     0.248 C 
HETATM    2  O2  UNL     1      27.170   2.605  50.110  1.00  0.00    -0.271 OA
HETATM    3  N1  UNL     1      26.023   2.887  52.107  1.00  0.00    -0.325 N 
HETATM    4  H8  UNL     1      25.282   3.474  52.543  1.00  0.00     0.169 HD
ENDROOT
BRANCH   1   5
HETATM    5  C8  UNL     1      25.706   4.257  49.923  1.00  0.00     0.200 C 
HETATM    6  C7  UNL     1      26.774   4.776  48.918  1.00  0.00     0.004 C 
HETATM    7  C6  UNL     1      27.167   5.963  48.450  1.00  0.00    -0.019 C 
HETATM    8  C5  UNL     1      27.116   7.434  48.357  1.00  0.00     0.041 C 
HETATM    9  C4  UNL     1      26.444   8.469  48.898  1.00  0.00    -0.017 C 
HETATM   10  C3  UNL     1      25.429   9.049  49.819  1.00  0.00     0.002 C 
HETATM   11  C2  UNL     1      24.841   8.126  50.520  1.00  0.00     0.074 C 
HETATM   12  C1  UNL     1      24.745   6.731  50.798  1.00  0.00     0.242 C 
HETATM   13  O1  UNL     1      23.964   6.373  51.703  1.00  0.00    -0.269 OA
HETATM   14  N4  UNL     1      25.145   5.421  50.499  1.00  0.00    -0.341 N 
HETATM   15  H14 UNL     1      24.790   4.673  51.173  1.00  0.00     0.164 HD
ENDBRANCH   1   5
BRANCH   3  16
HETATM   16  C10 UNL     1      26.867   1.793  52.519  1.00  0.00     0.035 A 
HETATM   17  C11 UNL     1      28.033   2.023  53.184  1.00  0.00     0.032 A 
HETATM   18  C12 UNL     1      28.836   0.981  53.576  1.00  0.00     0.035 A 
HETATM   19  C13 UNL     1      28.433  -0.312  53.280  1.00  0.00     0.070 A 
HETATM   20  N2  UNL     1      29.230  -1.338  53.670  1.00  0.00    -0.241 NA
HETATM   21  C16 UNL     1      27.240  -0.541  52.600  1.00  0.00     0.012 A 
HETATM   22  C14 UNL     1      28.837  -2.591  53.382  1.00  0.00     0.233 A 
HETATM   23  N3  UNL     1      27.701  -2.858  52.731  1.00  0.00    -0.253 NA
HETATM   24  C15 UNL     1      26.890  -1.855  52.332  1.00  0.00     0.132 A 
HETATM   25  C17 UNL     1      26.430   0.507  52.205  1.00  0.00     0.044 A 
ENDBRANCH   3  16
TORSDOF 2
ENDMDL
MODEL 2
REMARK VINA RESULT:      -8.7      2.193      2.432
REMARK  2 active torsions:
REMARK  status: ('A' for Active; 'I' for Inactive)
REMARK    1  A    between atoms: C8_9  and  C9_10 
REMARK       I    between atoms: C9_10  and  N1_12 
REMARK    2  A    between atoms: N1_12  and  C10_13 
ROOT
HETATM    1  C9  UNL     1      25.825   3.185  50.896  1.00  0.00     0.248 C 
HETATM    2  O2  UNL     1      25.060   3.462  51.853  1.00  0.00    -0.271 OA
HETATM    3  N1  UNL     1      26.598   1.989  50.935  1.00  0.00    -0.325 N 
HETATM    4  H8  UNL     1      27.195   1.858  50.091  1.00  0.00     0.169 HD
ENDROOT
BRANCH   1   5
HETATM    5  C8  UNL     1      25.753   4.210  49.886  1.00  0.00     0.200 C 
HETATM    6  C7  UNL     1      27.057   4.182  49.038  1.00  0.00     0.004 C 
HETATM    7  C6  UNL     1      27.906   5.083  48.538  1.00  0.00    -0.019 C 
HETATM    8  C5  UNL     1      28.396   6.454  48.302  1.00  0.00     0.041 C 
HETATM    9  C4  UNL     1      28.074   7.723  48.620  1.00  0.00    -0.017 C 
HETATM   10  C3  UNL     1      27.223   8.741  49.293  1.00  0.00     0.002 C 
HETATM   11  C2  UNL     1      26.258   8.186  49.964  1.00  0.00     0.074 C 
HETATM   12  C1  UNL     1      25.634   6.963  50.348  1.00  0.00     0.242 C 
HETATM   13  O1  UNL     1      24.666   7.028  51.133  1.00  0.00    -0.269 OA
HETATM   14  N4  UNL     1      25.575   5.566  50.246  1.00  0.00    -0.341 N 
HETATM   15  H14 UNL     1      24.892   5.090  50.914  1.00  0.00     0.164 HD
ENDBRANCH   1   5
BRANCH   3  16
HETATM   16  C10 UNL     1      26.340   1.265  52.155  1.00  0.00     0.035 A 
HETATM   17  C11 UNL     1      27.310   1.121  53.100  1.00  0.00     0.032 A 
HETATM   18  C12 UNL     1      27.064   0.432  54.260  1.00  0.00     0.035 A 
HETATM   19  C13 UNL     1      25.804  -0.115  54.450  1.00  0.00     0.070 A 
HETATM   20  N2  UNL     1      25.567  -0.795  55.600  1.00  0.00    -0.241 NA
HETATM   21  C16 UNL     1      24.816   0.036  53.481  1.00  0.00     0.012 A 
HETATM   22  C14 UNL     1      24.344  -1.324  55.781  1.00  0.00     0.233 A 
HETATM   23  N3  UNL     1      23.366  -1.205  54.879  1.00  0.00    -0.253 NA
HETATM   24  C15 UNL     1      23.577  -0.534  53.727  1.00  0.00     0.132 A 
HETATM   25  C17 UNL     1      25.063   0.729  52.311  1.00  0.00     0.044 A 
ENDBRANCH   3  16
TORSDOF 2
ENDMDL
MODEL 3
REMARK VINA RESULT:      -8.6      2.267      3.162
REMARK  2 active torsions:
REMARK  status: ('A' for Active; 'I' for Inactive)
REMARK    1  A    between atoms: C8_9  and  C9_10 
REMARK       I    between atoms: C9_10  and  N1_12 
REMARK    2  A    between atoms: N1_12  and  C10_13 
ROOT
HETATM    1  C9  UNL     1      25.719   4.234  50.065  1.00  0.00     0.248 C 
HETATM    2  O2  UNL     1      26.181   3.108  49.752  1.00  0.00    -0.271 OA
HETATM    3  N1  UNL     1      24.878   4.358  51.209  1.00  0.00    -0.325 N 
HETATM    4  H8  UNL     1      24.552   5.333  51.376  1.00  0.00     0.169 HD
ENDROOT
BRANCH   1   5
HETATM    5  C8  UNL     1      26.169   5.235  49.133  1.00  0.00     0.200 C 
HETATM    6  C7  UNL     1      27.578   4.841  48.604  1.00  0.00     0.004 C 
HETATM    7  C6  UNL     1      28.734   5.468  48.368  1.00  0.00    -0.019 C 
HETATM    8  C5  UNL     1      29.621   6.645  48.337  1.00  0.00     0.041 C 
HETATM    9  C4  UNL     1      29.591   7.955  48.654  1.00  0.00    -0.017 C 
HETATM   10  C3  UNL     1      28.916   9.172  49.180  1.00  0.00     0.002 C 
HETATM   11  C2  UNL     1      27.706   8.911  49.576  1.00  0.00     0.074 C 
HETATM   12  C1  UNL     1      26.701   7.913  49.730  1.00  0.00     0.242 C 
HETATM   13  O1  UNL     1      25.630   8.248  50.277  1.00  0.00    -0.269 OA
HETATM   14  N4  UNL     1      26.289   6.588  49.529  1.00  0.00    -0.341 N 
HETATM   15  H14 UNL     1      25.364   6.324  49.992  1.00  0.00     0.164 HD
ENDBRANCH   1   5
BRANCH   3  16
HETATM   16  C10 UNL     1      24.701   3.074  51.841  1.00  0.00     0.035 A 
HETATM   17  C11 UNL     1      23.635   2.285  51.534  1.00  0.00     0.032 A 
HETATM   18  C12 UNL     1      23.468   1.064  52.138  1.00  0.00     0.035 A 
HETATM   19  C13 UNL     1      24.410   0.650  53.067  1.00  0.00     0.070 A 
HETATM   20  N2  UNL     1      24.239  -0.558  53.660  1.00  0.00    -0.241 NA
HETATM   21  C16 UNL     1      25.498   1.462  53.377  1.00  0.00     0.012 A 
HETATM   22  C14 UNL     1      25.154  -0.956  54.561  1.00  0.00     0.233 A 
HETATM   23  N3  UNL     1      26.213  -0.211  54.889  1.00  0.00    -0.253 NA
HETATM   24  C15 UNL     1      26.406   0.995  54.314  1.00  0.00     0.132 A 
HETATM   25  C17 UNL     1      25.668   2.692  52.771  1.00  0.00     0.044 A 
ENDBRANCH   3  16
TORSDOF 2
ENDMDL
MODEL 4
REMARK VINA RESULT:      -8.3      4.496      6.158
REMARK  2 active torsions:
REMARK  status: ('A' for Active; 'I' for Inactive)
REMARK    1  A    between atoms: C8_9  and  C9_10 
REMARK       I    between atoms: C9_10  and  N1_12 
REMARK    2  A    between atoms: N1_12  and  C10_13 
ROOT
HETATM    1  C9  UNL     1      23.591   1.256  52.756  1.00  0.00     0.248 C 
HETATM    2  O2  UNL     1      23.866   0.650  53.821  1.00  0.00    -0.271 OA
HETATM    3  N1  UNL     1      24.617   1.493  51.795  1.00  0.00    -0.325 N 
HETATM    4  H8  UNL     1      24.280   2.002  50.951  1.00  0.00     0.169 HD
ENDROOT
BRANCH   1   5
HETATM    5  C8  UNL     1      22.196   1.610  52.728  1.00  0.00     0.200 C 
HETATM    6  C7  UNL     1      21.400   0.617  53.624  1.00  0.00     0.004 C 
HETATM    7  C6  UNL     1      20.251  -0.057  53.538  1.00  0.00    -0.019 C 
HETATM    8  C5  UNL     1      19.007  -0.475  52.866  1.00  0.00     0.041 C 
HETATM    9  C4  UNL     1      18.362  -0.280  51.700  1.00  0.00    -0.017 C 
HETATM   10  C3  UNL     1      18.235   0.318  50.343  1.00  0.00     0.002 C 
HETATM   11  C2  UNL     1      19.269   1.048  50.047  1.00  0.00     0.074 C 
HETATM   12  C1  UNL     1      20.530   1.546  50.485  1.00  0.00     0.242 C 
HETATM   13  O1  UNL     1      21.192   2.237  49.683  1.00  0.00    -0.269 OA
HETATM   14  N4  UNL     1      21.487   1.653  51.506  1.00  0.00    -0.341 N 
HETATM   15  H14 UNL     1      22.406   2.114  51.220  1.00  0.00     0.164 HD
ENDBRANCH   1   5
BRANCH   3  16
HETATM   16  C10 UNL     1      25.871   0.952  52.258  1.00  0.00     0.035 A 
HETATM   17  C11 UNL     1      26.868   1.773  52.691  1.00  0.00     0.032 A 
HETATM   18  C12 UNL     1      28.061   1.257  53.131  1.00  0.00     0.035 A 
HETATM   19  C13 UNL     1      28.229  -0.120  53.125  1.00  0.00     0.070 A 
HETATM   20  N2  UNL     1      29.411  -0.623  53.561  1.00  0.00    -0.241 NA
HETATM   21  C16 UNL     1      27.207  -0.953  52.681  1.00  0.00     0.012 A 
HETATM   22  C14 UNL     1      29.571  -1.958  53.554  1.00  0.00     0.233 A 
HETATM   23  N3  UNL     1      28.619  -2.796  53.137  1.00  0.00    -0.253 NA
HETATM   24  C15 UNL     1      27.433  -2.320  52.697  1.00  0.00     0.132 A 
HETATM   25  C17 UNL     1      26.005  -0.435  52.237  1.00  0.00     0.044 A 
ENDBRANCH   3  16
TORSDOF 2
ENDMDL
MODEL 5
REMARK VINA RESULT:      -8.1      1.953      2.490
REMARK  2 active torsions:
REMARK  status: ('A' for Active; 'I' for Inactive)
REMARK    1  A    between atoms: C8_9  and  C9_10 
REMARK       I    between atoms: C9_10  and  N1_12 
REMARK    2  A    between atoms: N1_12  and  C10_13 
ROOT
HETATM    1  C9  UNL     1      25.088   3.132  51.982  1.00  0.00     0.248 C 
HETATM    2  O2  UNL     1      25.820   2.707  51.054  1.00  0.00    -0.271 OA
HETATM    3  N1  UNL     1      25.271   2.639  53.307  1.00  0.00    -0.325 N 
HETATM    4  H8  UNL     1      24.613   3.059  53.996  1.00  0.00     0.169 HD
ENDROOT
BRANCH   1   5
HETATM    5  C8  UNL     1      24.149   4.099  51.475  1.00  0.00     0.200 C 
HETATM    6  C7  UNL     1      23.129   3.379  50.546  1.00  0.00     0.004 C 
HETATM    7  C6  UNL     1      22.561   3.619  49.361  1.00  0.00    -0.019 C 
HETATM    8  C5  UNL     1      22.326   4.413  48.141  1.00  0.00     0.041 C 
HETATM    9  C4  UNL     1      22.746   5.560  47.573  1.00  0.00    -0.017 C 
HETATM   10  C3  UNL     1      23.578   6.794  47.544  1.00  0.00     0.002 C 
HETATM   11  C2  UNL     1      24.347   6.873  48.588  1.00  0.00     0.074 C 
HETATM   12  C1  UNL     1      24.754   6.258  49.808  1.00  0.00     0.242 C 
HETATM   13  O1  UNL     1      25.667   6.807  50.458  1.00  0.00    -0.269 OA
HETATM   14  N4  UNL     1      24.594   5.219  50.736  1.00  0.00    -0.341 N 
HETATM   15  H14 UNL     1      25.326   5.187  51.513  1.00  0.00     0.164 HD
ENDBRANCH   1   5
BRANCH   3  16
HETATM   16  C10 UNL     1      26.342   1.675  53.338  1.00  0.00     0.035 A 
HETATM   17  C11 UNL     1      27.606   2.046  53.686  1.00  0.00     0.032 A 
HETATM   18  C12 UNL     1      28.625   1.127  53.715  1.00  0.00     0.035 A 
HETATM   19  C13 UNL     1      28.339  -0.189  53.383  1.00  0.00     0.070 A 
HETATM   20  N2  UNL     1      29.351  -1.092  53.414  1.00  0.00    -0.241 NA
HETATM   21  C16 UNL     1      27.046  -0.562  53.028  1.00  0.00     0.012 A 
HETATM   22  C14 UNL     1      29.071  -2.367  53.091  1.00  0.00     0.233 A 
HETATM   23  N3  UNL     1      27.846  -2.770  52.745  1.00  0.00    -0.253 NA
HETATM   24  C15 UNL     1      26.822  -1.891  52.706  1.00  0.00     0.132 A 
HETATM   25  C17 UNL     1      26.019   0.362  52.998  1.00  0.00     0.044 A 
ENDBRANCH   3  16
TORSDOF 2
ENDMDL
MODEL 6
REMARK VINA RESULT:      -8.0      3.316      8.155
REMARK  2 active torsions:
REMARK  status: ('A' for Active; 'I' for Inactive)
REMARK    1  A    between atoms: C8_9  and  C9_10 
REMARK       I    between atoms: C9_10  and  N1_12 
REMARK    2  A    between atoms: N1_12  and  C10_13 
ROOT
HETATM    1  C9  UNL     1      23.916   2.733  51.045  1.00  0.00     0.248 C 
HETATM    2  O2  UNL     1      24.878   3.061  51.784  1.00  0.00    -0.271 OA
HETATM    3  N1  UNL     1      23.457   3.636  50.043  1.00  0.00    -0.325 N 
HETATM    4  H8  UNL     1      22.658   3.264  49.489  1.00  0.00     0.169 HD
ENDROOT
BRANCH   1   5
HETATM    5  C8  UNL     1      23.446   1.417  51.392  1.00  0.00     0.200 C 
HETATM    6  C7  UNL     1      21.961   1.510  51.848  1.00  0.00     0.004 C 
HETATM    7  C6  UNL     1      21.216   0.996  52.830  1.00  0.00    -0.019 C 
HETATM    8  C5  UNL     1      20.993   0.171  54.032  1.00  0.00     0.041 C 
HETATM    9  C4  UNL     1      21.690  -0.618  54.872  1.00  0.00    -0.017 C 
HETATM   10  C3  UNL     1      22.945  -1.266  55.342  1.00  0.00     0.002 C 
HETATM   11  C2  UNL     1      23.959  -0.930  54.602  1.00  0.00     0.074 C 
HETATM   12  C1  UNL     1      24.407  -0.173  53.480  1.00  0.00     0.242 C 
HETATM   13  O1  UNL     1      25.629  -0.177  53.228  1.00  0.00    -0.269 OA
HETATM   14  N4  UNL     1      24.094   0.660  52.396  1.00  0.00    -0.341 N 
HETATM   15  H14 UNL     1      24.934   1.069  51.880  1.00  0.00     0.164 HD
ENDBRANCH   1   5
BRANCH   3  16
HETATM   16  C10 UNL     1      24.240   4.847  50.064  1.00  0.00     0.035 A 
HETATM   17  C11 UNL     1      23.888   5.892  50.864  1.00  0.00     0.032 A 
HETATM   18  C12 UNL     1      24.634   7.044  50.882  1.00  0.00     0.035 A 
HETATM   19  C13 UNL     1      25.754   7.120  50.070  1.00  0.00     0.070 A 
HETATM   20  N2  UNL     1      26.487   8.262  50.093  1.00  0.00    -0.241 NA
HETATM   21  C16 UNL     1      26.109   6.049  49.255  1.00  0.00     0.012 A 
HETATM   22  C14 UNL     1      27.573   8.333  49.304  1.00  0.00     0.233 A 
HETATM   23  N3  UNL     1      27.951   7.331  48.506  1.00  0.00    -0.253 NA
HETATM   24  C15 UNL     1      27.239   6.184  48.464  1.00  0.00     0.132 A 
HETATM   25  C17 UNL     1      25.359   4.888  49.234  1.00  0.00     0.044 A 
ENDBRANCH   3  16
TORSDOF 2
ENDMDL
MODEL 7
REMARK VINA RESULT:      -8.0      2.116      2.896
REMARK  2 active torsions:
REMARK  status: ('A' for Active; 'I' for Inactive)
REMARK    1  A    between atoms: C8_9  and  C9_10 
REMARK       I    between atoms: C9_10  and  N1_12 
REMARK    2  A    between atoms: N1_12  and  C10_13 
ROOT
HETATM    1  C9  UNL     1      24.650   3.412  51.807  1.00  0.00     0.248 C 
HETATM    2  O2  UNL     1      25.175   2.756  50.873  1.00  0.00    -0.271 OA
HETATM    3  N1  UNL     1      24.848   2.999  53.157  1.00  0.00    -0.325 N 
HETATM    4  H8  UNL     1      24.369   3.613  53.849  1.00  0.00     0.169 HD
ENDROOT
BRANCH   1   5
HETATM    5  C8  UNL     1      23.903   4.524  51.278  1.00  0.00     0.200 C 
HETATM    6  C7  UNL     1      22.847   3.992  50.266  1.00  0.00     0.004 C 
HETATM    7  C6  UNL     1      22.398   4.346  49.059  1.00  0.00    -0.019 C 
HETATM    8  C5  UNL     1      22.365   5.196  47.855  1.00  0.00     0.041 C 
HETATM    9  C4  UNL     1      22.991   6.278  47.351  1.00  0.00    -0.017 C 
HETATM   10  C3  UNL     1      24.001   7.369  47.413  1.00  0.00     0.002 C 
HETATM   11  C2  UNL     1      24.705   7.303  48.503  1.00  0.00     0.074 C 
HETATM   12  C1  UNL     1      24.935   6.603  49.723  1.00  0.00     0.242 C 
HETATM   13  O1  UNL     1      25.878   6.990  50.444  1.00  0.00    -0.269 OA
HETATM   14  N4  UNL     1      24.560   5.579  50.605  1.00  0.00    -0.341 N 
HETATM   15  H14 UNL     1      25.228   5.416  51.422  1.00  0.00     0.164 HD
ENDBRANCH   1   5
BRANCH   3  16
HETATM   16  C10 UNL     1      25.676   1.821  53.204  1.00  0.00     0.035 A 
HETATM   17  C11 UNL     1      25.133   0.579  53.067  1.00  0.00     0.032 A 
HETATM   18  C12 UNL     1      25.922  -0.542  53.112  1.00  0.00     0.035 A 
HETATM   19  C13 UNL     1      27.287  -0.384  53.300  1.00  0.00     0.070 A 
HETATM   20  N2  UNL     1      28.062  -1.497  53.343  1.00  0.00    -0.241 NA
HETATM   21  C16 UNL     1      27.837   0.887  53.439  1.00  0.00     0.012 A 
HETATM   22  C14 UNL     1      29.385  -1.340  53.525  1.00  0.00     0.233 A 
HETATM   23  N3  UNL     1      29.956  -0.141  53.663  1.00  0.00    -0.253 NA
HETATM   24  C15 UNL     1      29.207   0.983  53.624  1.00  0.00     0.132 A 
HETATM   25  C17 UNL     1      27.043   2.018  53.394  1.00  0.00     0.044 A 
ENDBRANCH   3  16
TORSDOF 2
ENDMDL
MODEL 8
REMARK VINA RESULT:      -7.8      3.127      4.238
REMARK  2 active torsions:
REMARK  status: ('A' for Active; 'I' for Inactive)
REMARK    1  A    between atoms: C8_9  and  C9_10 
REMARK       I    between atoms: C9_10  and  N1_12 
REMARK    2  A    between atoms: N1_12  and  C10_13 
ROOT
HETATM    1  C9  UNL     1      24.942   2.787  51.598  1.00  0.00     0.248 C 
HETATM    2  O2  UNL     1      25.836   2.485  50.768  1.00  0.00    -0.271 OA
HETATM    3  N1  UNL     1      25.028   2.299  52.934  1.00  0.00    -0.325 N 
HETATM    4  H8  UNL     1      24.237   2.610  53.536  1.00  0.00     0.169 HD
ENDROOT
BRANCH   1   5
HETATM    5  C8  UNL     1      23.947   3.623  50.978  1.00  0.00     0.200 C 
HETATM    6  C7  UNL     1      22.898   4.044  52.047  1.00  0.00     0.004 C 
HETATM    7  C6  UNL     1      21.568   4.144  52.111  1.00  0.00    -0.019 C 
HETATM    8  C5  UNL     1      20.203   4.036  51.564  1.00  0.00     0.041 C 
HETATM    9  C4  UNL     1      19.585   3.657  50.428  1.00  0.00    -0.017 C 
HETATM   10  C3  UNL     1      19.585   3.134  49.035  1.00  0.00     0.002 C 
HETATM   11  C2  UNL     1      20.789   2.860  48.630  1.00  0.00     0.074 C 
HETATM   12  C1  UNL     1      22.175   2.847  48.962  1.00  0.00     0.242 C 
HETATM   13  O1  UNL     1      22.969   2.382  48.118  1.00  0.00    -0.269 OA
HETATM   14  N4  UNL     1      23.189   3.151  49.882  1.00  0.00    -0.341 N 
HETATM   15  H14 UNL     1      24.159   2.786  49.627  1.00  0.00     0.164 HD
ENDBRANCH   1   5
BRANCH   3  16
HETATM   16  C10 UNL     1      26.211   1.492  53.098  1.00  0.00     0.035 A 
HETATM   17  C11 UNL     1      27.396   2.056  53.464  1.00  0.00     0.032 A 
HETATM   18  C12 UNL     1      28.522   1.287  53.619  1.00  0.00     0.035 A 
HETATM   19  C13 UNL     1      28.427  -0.078  53.395  1.00  0.00     0.070 A 
HETATM   20  N2  UNL     1      29.544  -0.832  53.550  1.00  0.00    -0.241 NA
HETATM   21  C16 UNL     1      27.214  -0.648  53.021  1.00  0.00     0.012 A 
HETATM   22  C14 UNL     1      29.449  -2.156  53.332  1.00  0.00     0.233 A 
HETATM   23  N3  UNL     1      28.306  -2.746  52.972  1.00  0.00    -0.253 NA
HETATM   24  C15 UNL     1      27.180  -2.018  52.811  1.00  0.00     0.132 A 
HETATM   25  C17 UNL     1      26.079   0.124  52.864  1.00  0.00     0.044 A 
ENDBRANCH   3  16
TORSDOF 2
ENDMDL
MODEL 9
REMARK VINA RESULT:      -7.7      2.480      8.504
REMARK  2 active torsions:
REMARK  status: ('A' for Active; 'I' for Inactive)
REMARK    1  A    between atoms: C8_9  and  C9_10 
REMARK       I    between atoms: C9_10  and  N1_12 
REMARK    2  A    between atoms: N1_12  and  C10_13 
ROOT
HETATM    1  C9  UNL     1      25.327   3.787  50.613  1.00  0.00     0.248 C 
HETATM    2  O2  UNL     1      24.071   3.781  50.581  1.00  0.00    -0.271 OA
HETATM    3  N1  UNL     1      26.034   4.988  50.315  1.00  0.00    -0.325 N 
HETATM    4  H8  UNL     1      27.068   4.881  50.371  1.00  0.00     0.169 HD
ENDROOT
BRANCH   1   5
HETATM    5  C8  UNL     1      25.824   2.484  50.970  1.00  0.00     0.200 C 
HETATM    6  C7  UNL     1      24.646   1.619  51.507  1.00  0.00     0.004 C 
HETATM    7  C6  UNL     1      24.450   0.774  52.522  1.00  0.00    -0.019 C 
HETATM    8  C5  UNL     1      24.865   0.029  53.725  1.00  0.00     0.041 C 
HETATM    9  C4  UNL     1      25.945  -0.111  54.518  1.00  0.00    -0.017 C 
HETATM   10  C3  UNL     1      27.345   0.204  54.912  1.00  0.00     0.002 C 
HETATM   11  C2  UNL     1      27.873   1.091  54.122  1.00  0.00     0.074 C 
HETATM   12  C1  UNL     1      27.678   1.929  52.986  1.00  0.00     0.242 C 
HETATM   13  O1  UNL     1      28.607   2.700  52.668  1.00  0.00    -0.269 OA
HETATM   14  N4  UNL     1      26.853   2.342  51.930  1.00  0.00    -0.341 N 
HETATM   15  H14 UNL     1      27.212   3.179  51.373  1.00  0.00     0.164 HD
ENDBRANCH   1   5
BRANCH   3  16
HETATM   16  C10 UNL     1      25.109   6.051  50.010  1.00  0.00     0.035 A 
HETATM   17  C11 UNL     1      24.568   6.811  51.003  1.00  0.00     0.032 A 
HETATM   18  C12 UNL     1      23.687   7.822  50.712  1.00  0.00     0.035 A 
HETATM   19  C13 UNL     1      23.360   8.054  49.385  1.00  0.00     0.070 A 
HETATM   20  N2  UNL     1      22.489   9.056  49.104  1.00  0.00    -0.241 NA
HETATM   21  C16 UNL     1      23.916   7.274  48.375  1.00  0.00     0.012 A 
HETATM   22  C14 UNL     1      22.173   9.278  47.816  1.00  0.00     0.233 A 
HETATM   23  N3  UNL     1      22.682   8.555  46.815  1.00  0.00    -0.253 NA
HETATM   24  C15 UNL     1      23.551   7.552  47.067  1.00  0.00     0.132 A 
HETATM   25  C17 UNL     1      24.803   6.255  48.666  1.00  0.00     0.044 A 
ENDBRANCH   3  16
TORSDOF 2
ENDMDL
