MODEL 1
REMARK VINA RESULT:      -7.6      0.000      0.000
REMARK  4 active torsions:
REMARK  status: ('A' for Active; 'I' for Inactive)
REMARK    1  A    between atoms: O1_2  and  C2_3 
REMARK    2  A    between atoms: C6_9  and  O2_10 
REMARK    3  A    between atoms: O2_10  and  C7_11 
REMARK    4  A    between atoms: C15_21  and  O3_22 
ROOT
HETATM    1  C2  UNL     1      25.571  -0.099  53.500  1.00  0.00     0.103 A 
HETATM    2  C3  UNL     1      24.340   0.418  53.153  1.00  0.00     0.072 A 
HETATM    3  C4  UNL     1      24.339   1.385  52.169  1.00  0.00     0.075 A 
HETATM    4  N1  UNL     1      23.140   1.911  51.809  1.00  0.00    -0.241 NA
HETATM    5  C5  UNL     1      23.046   2.856  50.859  1.00  0.00     0.236 A 
HETATM    6  N2  UNL     1      24.128   3.331  50.218  1.00  0.00    -0.217 NA
HETATM    7  C6  UNL     1      25.343   2.852  50.529  1.00  0.00     0.185 A 
HETATM    8  C13 UNL     1      25.446   1.872  51.511  1.00  0.00     0.049 A 
HETATM    9  C14 UNL     1      26.643   1.306  51.912  1.00  0.00     0.057 A 
HETATM   10  C15 UNL     1      26.728   0.337  52.886  1.00  0.00     0.102 A 
ENDROOT
BRANCH   7  11
HETATM   11  O2  UNL     1      26.551   3.201  49.996  1.00  0.00    -0.274 OA
BRANCH  11  12
HETATM   12  C7  UNL     1      26.908   4.415  49.453  1.00  0.00     0.150 A 
HETATM   13  C8  UNL     1      27.844   4.756  48.581  1.00  0.00     0.056 A 
HETATM   14  C9  UNL     1      28.086   6.113  48.108  1.00  0.00     0.007 A 
HETATM   15  C10 UNL     1      27.357   7.126  48.538  1.00  0.00     0.030 A 
HETATM   16  C11 UNL     1      26.303   6.830  49.502  1.00  0.00     0.040 A 
HETATM   17  C12 UNL     1      25.552   7.820  49.956  1.00  0.00     0.085 C 
HETATM   18  N3  UNL     1      26.078   5.483  49.958  1.00  0.00    -0.336 N 
HETATM   19 BR1  UNL     1      25.867   9.587  49.341  1.00  0.00    -0.061 Br
HETATM   20  H10 UNL     1      25.298   5.374  50.650  1.00  0.00     0.168 HD
ENDBRANCH  11  12
ENDBRANCH   7  11
BRANCH  10  21
HETATM   21  O3  UNL     1      27.956  -0.200  53.252  1.00  0.00    -0.353 OA
HETATM   22  C16 UNL     1      28.926   0.704  53.756  1.00  0.00     0.210 C 
ENDBRANCH  10  21
BRANCH   1  23
HETATM   23  O1  UNL     1      25.676  -1.061  54.462  1.00  0.00    -0.353 OA
HETATM   24  C1  UNL     1      24.815  -1.205  55.568  1.00  0.00     0.210 C 
ENDBRANCH   1  23
TORSDOF 4
ENDMDL
MODEL 2
REMARK VINA RESULT:      -7.5      2.410      3.588
REMARK  4 active torsions:
REMARK  status: ('A' for Active; 'I' for Inactive)
REMARK    1  A    between atoms: O1_2  and  C2_3 
REMARK    2  A    between atoms: C6_9  and  O2_10 
REMARK    3  A    between atoms: O2_10  and  C7_11 
REMARK    4  A    between atoms: C15_21  and  O3_22 
ROOT
HETATM    1  C2  UNL     1      23.291  -0.102  53.070  1.00  0.00     0.103 A 
HETATM    2  C3  UNL     1      24.587   0.034  53.525  1.00  0.00     0.072 A 
HETATM    3  C4  UNL     1      25.387   0.922  52.835  1.00  0.00     0.075 A 
HETATM    4  N1  UNL     1      26.666   1.074  53.262  1.00  0.00    -0.241 NA
HETATM    5  C5  UNL     1      27.514   1.918  52.650  1.00  0.00     0.236 A 
HETATM    6  N2  UNL     1      27.144   2.651  51.586  1.00  0.00    -0.217 NA
HETATM    7  C6  UNL     1      25.892   2.546  51.115  1.00  0.00     0.185 A 
HETATM    8  C13 UNL     1      25.009   1.675  51.746  1.00  0.00     0.049 A 
HETATM    9  C14 UNL     1      23.697   1.485  51.349  1.00  0.00     0.057 A 
HETATM   10  C15 UNL     1      22.837   0.618  51.983  1.00  0.00     0.102 A 
ENDROOT
BRANCH   7  11
HETATM   11  O2  UNL     1      25.328   3.200  50.057  1.00  0.00    -0.274 OA
BRANCH  11  12
HETATM   12  C7  UNL     1      25.751   4.376  49.477  1.00  0.00     0.150 A 
HETATM   13  C8  UNL     1      25.112   5.493  49.168  1.00  0.00     0.056 A 
HETATM   14  C9  UNL     1      25.727   6.659  48.548  1.00  0.00     0.007 A 
HETATM   15  C10 UNL     1      27.012   6.673  48.244  1.00  0.00     0.030 A 
HETATM   16  C11 UNL     1      27.786   5.476  48.555  1.00  0.00     0.040 A 
HETATM   17  C12 UNL     1      29.076   5.453  48.265  1.00  0.00     0.085 C 
HETATM   18  N3  UNL     1      27.161   4.334  49.168  1.00  0.00    -0.336 N 
HETATM   19 BR1  UNL     1      29.878   6.971  47.456  1.00  0.00    -0.061 Br
HETATM   20  H10 UNL     1      27.801   3.524  49.351  1.00  0.00     0.168 HD
ENDBRANCH  11  12
ENDBRANCH   7  11
BRANCH  10  21
HETATM   21  O3  UNL     1      21.528   0.465  51.544  1.00  0.00    -0.353 OA
HETATM   22  C16 UNL     1      20.616   1.500  51.871  1.00  0.00     0.210 C 
ENDBRANCH  10  21
BRANCH   1  23
HETATM   23  O1  UNL     1      22.423  -0.954  53.686  1.00  0.00    -0.353 OA
HETATM   24  C1  UNL     1      21.811  -0.732  54.936  1.00  0.00     0.210 C 
ENDBRANCH   1  23
TORSDOF 4
ENDMDL
MODEL 3
REMARK VINA RESULT:      -7.5      3.795      6.265
REMARK  4 active torsions:
REMARK  status: ('A' for Active; 'I' for Inactive)
REMARK    1  A    between atoms: O1_2  and  C2_3 
REMARK    2  A    between atoms: C6_9  and  O2_10 
REMARK    3  A    between atoms: O2_10  and  C7_11 
REMARK    4  A    between atoms: C15_21  and  O3_22 
ROOT
HETATM    1  C2  UNL     1      27.354  -0.007  53.672  1.00  0.00     0.103 A 
HETATM    2  C3  UNL     1      27.692   0.849  52.643  1.00  0.00     0.072 A 
HETATM    3  C4  UNL     1      26.676   1.640  52.148  1.00  0.00     0.075 A 
HETATM    4  N1  UNL     1      26.981   2.490  51.135  1.00  0.00    -0.241 NA
HETATM    5  C5  UNL     1      26.053   3.298  50.595  1.00  0.00     0.236 A 
HETATM    6  N2  UNL     1      24.780   3.307  51.025  1.00  0.00    -0.217 NA
HETATM    7  C6  UNL     1      24.414   2.489  52.024  1.00  0.00     0.185 A 
HETATM    8  C13 UNL     1      25.371   1.651  52.588  1.00  0.00     0.049 A 
HETATM    9  C14 UNL     1      25.110   0.768  53.621  1.00  0.00     0.057 A 
HETATM   10  C15 UNL     1      26.068  -0.055  54.168  1.00  0.00     0.102 A 
ENDROOT
BRANCH   7  11
HETATM   11  O2  UNL     1      23.182   2.351  52.598  1.00  0.00    -0.274 OA
BRANCH  11  12
HETATM   12  C7  UNL     1      22.076   1.727  52.066  1.00  0.00     0.150 A 
HETATM   13  C8  UNL     1      21.566   1.713  50.844  1.00  0.00     0.056 A 
HETATM   14  C9  UNL     1      20.367   0.985  50.451  1.00  0.00     0.007 A 
HETATM   15  C10 UNL     1      19.687   0.266  51.325  1.00  0.00     0.030 A 
HETATM   16  C11 UNL     1      20.187   0.231  52.695  1.00  0.00     0.040 A 
HETATM   17  C12 UNL     1      19.532  -0.479  53.599  1.00  0.00     0.085 C 
HETATM   18  N3  UNL     1      21.374   0.957  53.065  1.00  0.00    -0.336 N 
HETATM   19 BR1  UNL     1      17.969  -1.427  53.088  1.00  0.00    -0.061 Br
HETATM   20  H10 UNL     1      21.650   0.868  54.073  1.00  0.00     0.168 HD
ENDBRANCH  11  12
ENDBRANCH   7  11
BRANCH  10  21
HETATM   21  O3  UNL     1      25.753  -0.924  55.206  1.00  0.00    -0.353 OA
HETATM   22  C16 UNL     1      24.382  -1.243  55.381  1.00  0.00     0.210 C 
ENDBRANCH  10  21
BRANCH   1  23
HETATM   23  O1  UNL     1      28.290  -0.829  54.228  1.00  0.00    -0.353 OA
HETATM   24  C1  UNL     1      29.620  -0.969  53.784  1.00  0.00     0.210 C 
ENDBRANCH   1  23
TORSDOF 4
ENDMDL
MODEL 4
REMARK VINA RESULT:      -7.5      4.689      6.985
REMARK  4 active torsions:
REMARK  status: ('A' for Active; 'I' for Inactive)
REMARK    1  A    between atoms: O1_2  and  C2_3 
REMARK    2  A    between atoms: C6_9  and  O2_10 
REMARK    3  A    between atoms: O2_10  and  C7_11 
REMARK    4  A    between atoms: C15_21  and  O3_22 
ROOT
HETATM    1  C2  UNL     1      19.095  -0.063  51.931  1.00  0.00     0.103 A 
HETATM    2  C3  UNL     1      19.440  -0.639  53.137  1.00  0.00     0.072 A 
HETATM    3  C4  UNL     1      20.777  -0.598  53.474  1.00  0.00     0.075 A 
HETATM    4  N1  UNL     1      21.143  -1.158  54.655  1.00  0.00    -0.241 NA
HETATM    5  C5  UNL     1      22.423  -1.161  55.062  1.00  0.00     0.236 A 
HETATM    6  N2  UNL     1      23.406  -0.615  54.326  1.00  0.00    -0.217 NA
HETATM    7  C6  UNL     1      23.109  -0.046  53.147  1.00  0.00     0.185 A 
HETATM    8  C13 UNL     1      21.785  -0.038  52.721  1.00  0.00     0.049 A 
HETATM    9  C14 UNL     1      21.362   0.519  51.527  1.00  0.00     0.057 A 
HETATM   10  C15 UNL     1      20.048   0.518  51.119  1.00  0.00     0.102 A 
ENDROOT
BRANCH   7  11
HETATM   11  O2  UNL     1      23.956   0.558  52.262  1.00  0.00    -0.274 OA
BRANCH  11  12
HETATM   12  C7  UNL     1      25.277   0.894  52.462  1.00  0.00     0.150 A 
HETATM   13  C8  UNL     1      25.915   2.053  52.421  1.00  0.00     0.056 A 
HETATM   14  C9  UNL     1      27.340   2.228  52.664  1.00  0.00     0.007 A 
HETATM   15  C10 UNL     1      28.116   1.199  52.951  1.00  0.00     0.030 A 
HETATM   16  C11 UNL     1      27.485  -0.116  53.015  1.00  0.00     0.040 A 
HETATM   17  C12 UNL     1      28.231  -1.171  53.300  1.00  0.00     0.085 C 
HETATM   18  N3  UNL     1      26.075  -0.269  52.773  1.00  0.00    -0.336 N 
HETATM   19 BR1  UNL     1      30.088  -0.944  53.615  1.00  0.00    -0.061 Br
HETATM   20  H10 UNL     1      25.719  -1.253  52.842  1.00  0.00     0.168 HD
ENDBRANCH  11  12
ENDBRANCH   7  11
BRANCH  10  21
HETATM   21  O3  UNL     1      19.676   1.092  49.910  1.00  0.00    -0.353 OA
HETATM   22  C16 UNL     1      20.723   1.506  49.048  1.00  0.00     0.210 C 
ENDBRANCH  10  21
BRANCH   1  23
HETATM   23  O1  UNL     1      17.798  -0.054  51.510  1.00  0.00    -0.353 OA
HETATM   24  C1  UNL     1      16.675  -0.318  52.321  1.00  0.00     0.210 C 
ENDBRANCH   1  23
TORSDOF 4
ENDMDL
MODEL 5
REMARK VINA RESULT:      -7.4      2.288      2.966
REMARK  4 active torsions:
REMARK  status: ('A' for Active; 'I' for Inactive)
REMARK    1  A    between atoms: O1_2  and  C2_3 
REMARK    2  A    between atoms: C6_9  and  O2_10 
REMARK    3  A    between atoms: O2_10  and  C7_11 
REMARK    4  A    between atoms: C15_21  and  O3_22 
ROOT
HETATM    1  C2  UNL     1      26.745   0.099  54.252  1.00  0.00     0.103 A 
HETATM    2  C3  UNL     1      25.637  -0.676  53.976  1.00  0.00     0.072 A 
HETATM    3  C4  UNL     1      24.531  -0.010  53.489  1.00  0.00     0.075 A 
HETATM    4  N1  UNL     1      23.428  -0.750  53.210  1.00  0.00    -0.241 NA
HETATM    5  C5  UNL     1      22.307  -0.184  52.732  1.00  0.00     0.236 A 
HETATM    6  N2  UNL     1      22.218   1.138  52.506  1.00  0.00    -0.217 NA
HETATM    7  C6  UNL     1      23.275   1.925  52.763  1.00  0.00     0.185 A 
HETATM    8  C13 UNL     1      24.439   1.343  53.257  1.00  0.00     0.049 A 
HETATM    9  C14 UNL     1      25.588   2.054  53.557  1.00  0.00     0.057 A 
HETATM   10  C15 UNL     1      26.731   1.464  54.046  1.00  0.00     0.102 A 
ENDROOT
BRANCH   7  11
HETATM   11  O2  UNL     1      23.383   3.277  52.601  1.00  0.00    -0.274 OA
BRANCH  11  12
HETATM   12  C7  UNL     1      23.693   3.960  51.446  1.00  0.00     0.150 A 
HETATM   13  C8  UNL     1      23.803   3.569  50.185  1.00  0.00     0.056 A 
HETATM   14  C9  UNL     1      24.144   4.441  49.070  1.00  0.00     0.007 A 
HETATM   15  C10 UNL     1      24.373   5.728  49.255  1.00  0.00     0.030 A 
HETATM   16  C11 UNL     1      24.270   6.237  50.619  1.00  0.00     0.040 A 
HETATM   17  C12 UNL     1      24.493   7.522  50.843  1.00  0.00     0.085 C 
HETATM   18  N3  UNL     1      23.932   5.359  51.708  1.00  0.00    -0.336 N 
HETATM   19 BR1  UNL     1      24.939   8.659  49.391  1.00  0.00    -0.061 Br
HETATM   20  H10 UNL     1      23.883   5.820  52.649  1.00  0.00     0.168 HD
ENDBRANCH  11  12
ENDBRANCH   7  11
BRANCH  10  21
HETATM   21  O3  UNL     1      27.859   2.223  54.330  1.00  0.00    -0.353 OA
HETATM   22  C16 UNL     1      28.682   2.583  53.234  1.00  0.00     0.210 C 
ENDBRANCH  10  21
BRANCH   1  23
HETATM   23  O1  UNL     1      27.887  -0.468  54.736  1.00  0.00    -0.353 OA
HETATM   24  C1  UNL     1      28.958  -0.942  53.952  1.00  0.00     0.210 C 
ENDBRANCH   1  23
TORSDOF 4
ENDMDL
MODEL 6
REMARK VINA RESULT:      -7.4      5.533      8.696
REMARK  4 active torsions:
REMARK  status: ('A' for Active; 'I' for Inactive)
REMARK    1  A    between atoms: O1_2  and  C2_3 
REMARK    2  A    between atoms: C6_9  and  O2_10 
REMARK    3  A    between atoms: O2_10  and  C7_11 
REMARK    4  A    between atoms: C15_21  and  O3_22 
ROOT
HETATM    1  C2  UNL     1      25.077   1.236  52.275  1.00  0.00     0.103 A 
HETATM    2  C3  UNL     1      25.143   0.263  53.251  1.00  0.00     0.072 A 
HETATM    3  C4  UNL     1      23.942  -0.123  53.812  1.00  0.00     0.075 A 
HETATM    4  N1  UNL     1      23.980  -1.078  54.776  1.00  0.00    -0.241 NA
HETATM    5  C5  UNL     1      22.858  -1.513  55.374  1.00  0.00     0.236 A 
HETATM    6  N2  UNL     1      21.646  -1.029  55.053  1.00  0.00    -0.217 NA
HETATM    7  C6  UNL     1      21.542  -0.082  54.108  1.00  0.00     0.185 A 
HETATM    8  C13 UNL     1      22.700   0.372  53.484  1.00  0.00     0.049 A 
HETATM    9  C14 UNL     1      22.715   1.343  52.498  1.00  0.00     0.057 A 
HETATM   10  C15 UNL     1      23.869   1.781  51.891  1.00  0.00     0.102 A 
ENDROOT
BRANCH   7  11
HETATM   11  O2  UNL     1      20.413   0.530  53.644  1.00  0.00    -0.274 OA
BRANCH  11  12
HETATM   12  C7  UNL     1      19.307  -0.067  53.081  1.00  0.00     0.150 A 
HETATM   13  C8  UNL     1      18.512   0.295  52.086  1.00  0.00     0.056 A 
HETATM   14  C9  UNL     1      17.368  -0.473  51.614  1.00  0.00     0.007 A 
HETATM   15  C10 UNL     1      17.039  -1.623  52.172  1.00  0.00     0.030 A 
HETATM   16  C11 UNL     1      17.869  -2.090  53.278  1.00  0.00     0.040 A 
HETATM   17  C12 UNL     1      17.570  -3.239  53.862  1.00  0.00     0.085 C 
HETATM   18  N3  UNL     1      18.996  -1.319  53.730  1.00  0.00    -0.336 N 
HETATM   19 BR1  UNL     1      16.078  -4.239  53.248  1.00  0.00    -0.061 Br
HETATM   20  H10 UNL     1      19.528  -1.740  54.530  1.00  0.00     0.168 HD
ENDBRANCH  11  12
ENDBRANCH   7  11
BRANCH  10  21
HETATM   21  O3  UNL     1      23.829   2.759  50.904  1.00  0.00    -0.353 OA
HETATM   22  C16 UNL     1      22.546   3.185  50.477  1.00  0.00     0.210 C 
ENDBRANCH  10  21
BRANCH   1  23
HETATM   23  O1  UNL     1      26.210   1.683  51.661  1.00  0.00    -0.353 OA
HETATM   24  C1  UNL     1      27.387   2.094  52.319  1.00  0.00     0.210 C 
ENDBRANCH   1  23
TORSDOF 4
ENDMDL
MODEL 7
REMARK VINA RESULT:      -7.2      4.633      7.257
REMARK  4 active torsions:
REMARK  status: ('A' for Active; 'I' for Inactive)
REMARK    1  A    between atoms: O1_2  and  C2_3 
REMARK    2  A    between atoms: C6_9  and  O2_10 
REMARK    3  A    between atoms: O2_10  and  C7_11 
REMARK    4  A    between atoms: C15_21  and  O3_22 
ROOT
HETATM    1  C2  UNL     1      26.650   0.027  53.052  1.00  0.00     0.103 A 
HETATM    2  C3  UNL     1      26.037  -0.667  54.076  1.00  0.00     0.072 A 
HETATM    3  C4  UNL     1      24.664  -0.550  54.157  1.00  0.00     0.075 A 
HETATM    4  N1  UNL     1      24.037  -1.222  55.155  1.00  0.00    -0.241 NA
HETATM    5  C5  UNL     1      22.703  -1.166  55.307  1.00  0.00     0.236 A 
HETATM    6  N2  UNL     1      21.923  -0.444  54.485  1.00  0.00    -0.217 NA
HETATM    7  C6  UNL     1      22.483   0.244  53.478  1.00  0.00     0.185 A 
HETATM    8  C13 UNL     1      23.864   0.188  53.314  1.00  0.00     0.049 A 
HETATM    9  C14 UNL     1      24.549   0.855  52.314  1.00  0.00     0.057 A 
HETATM   10  C15 UNL     1      25.916   0.790  52.167  1.00  0.00     0.102 A 
ENDROOT
BRANCH   7  11
HETATM   11  O2  UNL     1      21.868   1.027  52.543  1.00  0.00    -0.274 OA
BRANCH  11  12
HETATM   12  C7  UNL     1      20.678   0.780  51.895  1.00  0.00     0.150 A 
HETATM   13  C8  UNL     1      20.234   1.118  50.694  1.00  0.00     0.056 A 
HETATM   14  C9  UNL     1      18.926   0.765  50.161  1.00  0.00     0.007 A 
HETATM   15  C10 UNL     1      18.067   0.058  50.871  1.00  0.00     0.030 A 
HETATM   16  C11 UNL     1      18.483  -0.354  52.207  1.00  0.00     0.040 A 
HETATM   17  C12 UNL     1      17.649  -1.064  52.949  1.00  0.00     0.085 C 
HETATM   18  N3  UNL     1      19.781   0.004  52.717  1.00  0.00    -0.336 N 
HETATM   19 BR1  UNL     1      15.943  -1.523  52.255  1.00  0.00    -0.061 Br
HETATM   20  H10 UNL     1      19.985  -0.339  53.687  1.00  0.00     0.168 HD
ENDBRANCH  11  12
ENDBRANCH   7  11
BRANCH  10  21
HETATM   21  O3  UNL     1      26.556   1.479  51.144  1.00  0.00    -0.353 OA
HETATM   22  C16 UNL     1      26.395   2.887  51.121  1.00  0.00     0.210 C 
ENDBRANCH  10  21
BRANCH   1  23
HETATM   23  O1  UNL     1      28.003  -0.026  52.889  1.00  0.00    -0.353 OA
HETATM   24  C1  UNL     1      28.949   0.627  53.705  1.00  0.00     0.210 C 
ENDBRANCH   1  23
TORSDOF 4
ENDMDL
MODEL 8
REMARK VINA RESULT:      -7.1      2.791      3.580
REMARK  4 active torsions:
REMARK  status: ('A' for Active; 'I' for Inactive)
REMARK    1  A    between atoms: O1_2  and  C2_3 
REMARK    2  A    between atoms: C6_9  and  O2_10 
REMARK    3  A    between atoms: O2_10  and  C7_11 
REMARK    4  A    between atoms: C15_21  and  O3_22 
ROOT
HETATM    1  C2  UNL     1      27.077  -0.357  53.447  1.00  0.00     0.103 A 
HETATM    2  C3  UNL     1      25.789  -0.837  53.573  1.00  0.00     0.072 A 
HETATM    3  C4  UNL     1      24.774   0.057  53.300  1.00  0.00     0.075 A 
HETATM    4  N1  UNL     1      23.498  -0.390  53.417  1.00  0.00    -0.241 NA
HETATM    5  C5  UNL     1      22.449   0.413  53.169  1.00  0.00     0.236 A 
HETATM    6  N2  UNL     1      22.606   1.694  52.794  1.00  0.00    -0.217 NA
HETATM    7  C6  UNL     1      23.844   2.196  52.660  1.00  0.00     0.185 A 
HETATM    8  C13 UNL     1      24.934   1.369  52.915  1.00  0.00     0.049 A 
HETATM    9  C14 UNL     1      26.252   1.777  52.810  1.00  0.00     0.057 A 
HETATM   10  C15 UNL     1      27.319   0.947  53.066  1.00  0.00     0.102 A 
ENDROOT
BRANCH   7  11
HETATM   11  O2  UNL     1      24.209   3.459  52.292  1.00  0.00    -0.274 OA
BRANCH  11  12
HETATM   12  C7  UNL     1      24.041   4.055  51.062  1.00  0.00     0.150 A 
HETATM   13  C8  UNL     1      24.503   5.186  50.552  1.00  0.00     0.056 A 
HETATM   14  C9  UNL     1      24.219   5.670  49.208  1.00  0.00     0.007 A 
HETATM   15  C10 UNL     1      23.452   4.983  48.381  1.00  0.00     0.030 A 
HETATM   16  C11 UNL     1      22.904   3.722  48.871  1.00  0.00     0.040 A 
HETATM   17  C12 UNL     1      22.131   3.006  48.071  1.00  0.00     0.085 C 
HETATM   18  N3  UNL     1      23.195   3.259  50.202  1.00  0.00    -0.336 N 
HETATM   19 BR1  UNL     1      21.760   3.636  46.321  1.00  0.00    -0.061 Br
HETATM   20  H10 UNL     1      22.754   2.343  50.459  1.00  0.00     0.168 HD
ENDBRANCH  11  12
ENDBRANCH   7  11
BRANCH  10  21
HETATM   21  O3  UNL     1      28.625   1.406  52.945  1.00  0.00    -0.353 OA
HETATM   22  C16 UNL     1      29.025   2.438  53.830  1.00  0.00     0.210 C 
ENDBRANCH  10  21
BRANCH   1  23
HETATM   23  O1  UNL     1      28.147  -1.165  53.695  1.00  0.00    -0.353 OA
HETATM   24  C1  UNL     1      28.493  -2.314  52.954  1.00  0.00     0.210 C 
ENDBRANCH   1  23
TORSDOF 4
ENDMDL
MODEL 9
REMARK VINA RESULT:      -7.1      3.208      5.508
REMARK  4 active torsions:
REMARK  status: ('A' for Active; 'I' for Inactive)
REMARK    1  A    between atoms: O1_2  and  C2_3 
REMARK    2  A    between atoms: C6_9  and  O2_10 
REMARK    3  A    between atoms: O2_10  and  C7_11 
REMARK    4  A    between atoms: C15_21  and  O3_22 
ROOT
HETATM    1  C2  UNL     1      27.229  -0.102  53.641  1.00  0.00     0.103 A 
HETATM    2  C3  UNL     1      27.551   0.818  52.664  1.00  0.00     0.072 A 
HETATM    3  C4  UNL     1      26.504   1.559  52.153  1.00  0.00     0.075 A 
HETATM    4  N1  UNL     1      26.793   2.470  51.190  1.00  0.00    -0.241 NA
HETATM    5  C5  UNL     1      25.835   3.235  50.639  1.00  0.00     0.236 A 
HETATM    6  N2  UNL     1      24.547   3.138  51.008  1.00  0.00    -0.217 NA
HETATM    7  C6  UNL     1      24.196   2.254  51.956  1.00  0.00     0.185 A 
HETATM    8  C13 UNL     1      25.184   1.461  52.531  1.00  0.00     0.049 A 
HETATM    9  C14 UNL     1      24.940   0.518  53.514  1.00  0.00     0.057 A 
HETATM   10  C15 UNL     1      25.928  -0.259  54.073  1.00  0.00     0.102 A 
ENDROOT
BRANCH   7  11
HETATM   11  O2  UNL     1      22.952   2.008  52.464  1.00  0.00    -0.274 OA
BRANCH  11  12
HETATM   12  C7  UNL     1      21.812   1.680  51.766  1.00  0.00     0.150 A 
HETATM   13  C8  UNL     1      21.012   0.626  51.815  1.00  0.00     0.056 A 
HETATM   14  C9  UNL     1      19.827   0.441  50.989  1.00  0.00     0.007 A 
HETATM   15  C10 UNL     1      19.462   1.350  50.104  1.00  0.00     0.030 A 
HETATM   16  C11 UNL     1      20.294   2.543  49.990  1.00  0.00     0.040 A 
HETATM   17  C12 UNL     1      19.960   3.476  49.113  1.00  0.00     0.085 C 
HETATM   18  N3  UNL     1      21.462   2.709  50.815  1.00  0.00    -0.336 N 
HETATM   19 BR1  UNL     1      18.417   3.235  48.035  1.00  0.00    -0.061 Br
HETATM   20  H10 UNL     1      21.992   3.600  50.657  1.00  0.00     0.168 HD
ENDBRANCH  11  12
ENDBRANCH   7  11
BRANCH  10  21
HETATM   21  O3  UNL     1      25.630  -1.192  55.059  1.00  0.00    -0.353 OA
HETATM   22  C16 UNL     1      24.279  -1.268  55.481  1.00  0.00     0.210 C 
ENDBRANCH  10  21
BRANCH   1  23
HETATM   23  O1  UNL     1      28.195  -0.881  54.207  1.00  0.00    -0.353 OA
HETATM   24  C1  UNL     1      29.554  -0.896  53.833  1.00  0.00     0.210 C 
ENDBRANCH   1  23
TORSDOF 4
ENDMDL
