MODEL 1
REMARK VINA RESULT:      -9.1      0.000      0.000
REMARK  3 active torsions:
REMARK  status: ('A' for Active; 'I' for Inactive)
REMARK    1  A    between atoms: O1_1  and  C1_2 
REMARK    2  A    between atoms: C6_8  and  C7_9 
REMARK    3  A    between atoms: C7_9  and  N1_10 
ROOT
HETATM    1  N1  UNL     1      22.556   3.966  51.998  1.00  0.00    -0.345 N 
HETATM    2  C8  UNL     1      23.853   3.575  52.619  1.00  0.00     0.152 C 
HETATM    3  C9  UNL     1      23.687   2.148  52.936  1.00  0.00    -0.007 C 
HETATM    4  C10 UNL     1      23.644   0.867  53.156  1.00  0.00    -0.003 C 
HETATM    5  C11 UNL     1      23.476  -0.537  53.468  1.00  0.00    -0.004 C 
HETATM    6  C12 UNL     1      22.344  -0.780  54.107  1.00  0.00    -0.022 C 
HETATM    7  C13 UNL     1      21.245   0.080  54.550  1.00  0.00     0.068 C 
HETATM    8  C14 UNL     1      20.114   0.029  53.554  1.00  0.00    -0.018 A 
HETATM    9  C15 UNL     1      19.346  -1.085  53.510  1.00  0.00     0.010 A 
HETATM   10  C16 UNL     1      18.353  -1.188  52.580  1.00  0.00     0.001 A 
HETATM   11  C17 UNL     1      17.992  -0.275  51.620  1.00  0.00     0.002 A 
HETATM   12  C18 UNL     1      18.831   0.848  51.730  1.00  0.00     0.039 A 
HETATM   13  C19 UNL     1      19.872   1.059  52.639  1.00  0.00     0.162 A 
HETATM   14  N2  UNL     1      20.243   2.383  52.189  1.00  0.00     0.071 N 
HETATM   15  C20 UNL     1      21.366   3.217  52.068  1.00  0.00     0.290 A 
HETATM   16  S1  UNL     1      20.006   4.011  51.524  1.00  0.00     0.151 SA
HETATM   17  H19 UNL     1      21.058   1.855  52.459  1.00  0.00     0.312 HD
ENDROOT
BRANCH   1  18
HETATM   18  C7  UNL     1      22.736   5.275  51.463  1.00  0.00     0.166 C 
BRANCH  18  19
HETATM   19  C6  UNL     1      23.949   5.518  50.694  1.00  0.00    -0.006 A 
HETATM   20  C1  UNL     1      24.672   6.715  50.695  1.00  0.00     0.090 A 
HETATM   21  C2  UNL     1      25.807   6.885  49.931  1.00  0.00     0.044 A 
HETATM   22 BR1  UNL     1      26.682   8.583  50.047  1.00  0.00    -0.048 Br
HETATM   23  C3  UNL     1      26.261   5.855  49.134  1.00  0.00     0.022 A 
HETATM   24  C4  UNL     1      25.594   4.654  49.089  1.00  0.00     0.002 A 
HETATM   25  C5  UNL     1      24.442   4.498  49.872  1.00  0.00     0.012 A 
BRANCH  20  26
HETATM   26  O1  UNL     1      24.151   7.719  51.532  1.00  0.00    -0.359 OA
HETATM   27  H1  UNL     1      24.328   7.621  52.539  1.00  0.00     0.217 HD
ENDBRANCH  20  26
ENDBRANCH  18  19
ENDBRANCH   1  18
TORSDOF 3
ENDMDL
MODEL 2
REMARK VINA RESULT:      -8.9      3.609      5.777
REMARK  3 active torsions:
REMARK  status: ('A' for Active; 'I' for Inactive)
REMARK    1  A    between atoms: O1_1  and  C1_2 
REMARK    2  A    between atoms: C6_8  and  C7_9 
REMARK    3  A    between atoms: C7_9  and  N1_10 
ROOT
HETATM    1  N1  UNL     1      24.089   2.923  50.135  1.00  0.00    -0.345 N 
HETATM    2  C8  UNL     1      22.864   2.104  50.357  1.00  0.00     0.152 C 
HETATM    3  C9  UNL     1      23.171   1.308  51.555  1.00  0.00    -0.007 C 
HETATM    4  C10 UNL     1      23.339   0.646  52.661  1.00  0.00    -0.003 C 
HETATM    5  C11 UNL     1      23.646  -0.137  53.840  1.00  0.00    -0.004 C 
HETATM    6  C12 UNL     1      24.826  -0.731  53.758  1.00  0.00    -0.022 C 
HETATM    7  C13 UNL     1      25.863  -0.748  52.725  1.00  0.00     0.068 C 
HETATM    8  C14 UNL     1      26.944   0.247  53.063  1.00  0.00    -0.018 A 
HETATM    9  C15 UNL     1      27.806  -0.053  54.063  1.00  0.00     0.010 A 
HETATM   10  C16 UNL     1      28.758   0.851  54.433  1.00  0.00     0.001 A 
HETATM   11  C17 UNL     1      28.989   2.100  53.912  1.00  0.00     0.002 A 
HETATM   12  C18 UNL     1      28.060   2.337  52.884  1.00  0.00     0.039 A 
HETATM   13  C19 UNL     1      27.049   1.487  52.424  1.00  0.00     0.162 A 
HETATM   14  N2  UNL     1      26.541   2.354  51.384  1.00  0.00     0.071 N 
HETATM   15  C20 UNL     1      25.343   2.680  50.727  1.00  0.00     0.290 A 
HETATM   16  S1  UNL     1      26.599   3.577  50.100  1.00  0.00     0.151 SA
HETATM   17  H19 UNL     1      25.790   1.850  51.829  1.00  0.00     0.312 HD
ENDROOT
BRANCH   1  18
HETATM   18  C7  UNL     1      23.767   3.878  49.127  1.00  0.00     0.166 C 
BRANCH  18  19
HETATM   19  C6  UNL     1      23.081   5.090  49.554  1.00  0.00    -0.006 A 
HETATM   20  C1  UNL     1      21.786   5.454  49.176  1.00  0.00     0.090 A 
HETATM   21  C2  UNL     1      21.199   6.625  49.605  1.00  0.00     0.044 A 
HETATM   22 BR1  UNL     1      19.418   6.975  48.998  1.00  0.00    -0.048 Br
HETATM   23  C3  UNL     1      21.895   7.480  50.433  1.00  0.00     0.022 A 
HETATM   24  C4  UNL     1      23.173   7.179  50.841  1.00  0.00     0.002 A 
HETATM   25  C5  UNL     1      23.755   5.984  50.395  1.00  0.00     0.012 A 
BRANCH  20  26
HETATM   26  O1  UNL     1      21.137   4.533  48.331  1.00  0.00    -0.359 OA
HETATM   27  H1  UNL     1      20.241   4.827  47.926  1.00  0.00     0.217 HD
ENDBRANCH  20  26
ENDBRANCH  18  19
ENDBRANCH   1  18
TORSDOF 3
ENDMDL
MODEL 3
REMARK VINA RESULT:      -8.8      3.974      5.766
REMARK  3 active torsions:
REMARK  status: ('A' for Active; 'I' for Inactive)
REMARK    1  A    between atoms: O1_1  and  C1_2 
REMARK    2  A    between atoms: C6_8  and  C7_9 
REMARK    3  A    between atoms: C7_9  and  N1_10 
ROOT
HETATM    1  N1  UNL     1      24.324   0.870  52.953  1.00  0.00    -0.345 N 
HETATM    2  C8  UNL     1      25.094   1.792  52.072  1.00  0.00     0.152 C 
HETATM    3  C9  UNL     1      24.079   2.374  51.181  1.00  0.00    -0.007 C 
HETATM    4  C10 UNL     1      23.224   2.998  50.426  1.00  0.00    -0.003 C 
HETATM    5  C11 UNL     1      22.221   3.567  49.549  1.00  0.00    -0.004 C 
HETATM    6  C12 UNL     1      21.440   2.646  49.010  1.00  0.00    -0.022 C 
HETATM    7  C13 UNL     1      21.391   1.187  49.128  1.00  0.00     0.068 C 
HETATM    8  C14 UNL     1      20.337   0.785  50.128  1.00  0.00    -0.018 A 
HETATM    9  C15 UNL     1      19.036   0.891  49.769  1.00  0.00     0.010 A 
HETATM   10  C16 UNL     1      18.056   0.592  50.670  1.00  0.00     0.001 A 
HETATM   11  C17 UNL     1      18.199   0.173  51.970  1.00  0.00     0.002 A 
HETATM   12  C18 UNL     1      19.571   0.087  52.267  1.00  0.00     0.039 A 
HETATM   13  C19 UNL     1      20.653   0.367  51.425  1.00  0.00     0.162 A 
HETATM   14  N2  UNL     1      21.703   0.044  52.365  1.00  0.00     0.071 N 
HETATM   15  C20 UNL     1      23.014   0.418  52.704  1.00  0.00     0.290 A 
HETATM   16  S1  UNL     1      22.496  -0.811  53.703  1.00  0.00     0.151 SA
HETATM   17  H19 UNL     1      21.964   0.832  51.793  1.00  0.00     0.312 HD
ENDROOT
BRANCH   1  18
HETATM   18  C7  UNL     1      25.213   0.450  53.985  1.00  0.00     0.166 C 
BRANCH  18  19
HETATM   19  C6  UNL     1      26.342  -0.383  53.592  1.00  0.00    -0.006 A 
HETATM   20  C1  UNL     1      27.685  -0.081  53.838  1.00  0.00     0.090 A 
HETATM   21  C2  UNL     1      28.708  -0.908  53.426  1.00  0.00     0.044 A 
HETATM   22 BR1  UNL     1      30.491  -0.352  53.843  1.00  0.00    -0.048 Br
HETATM   23  C3  UNL     1      28.421  -2.074  52.748  1.00  0.00     0.022 A 
HETATM   24  C4  UNL     1      27.120  -2.426  52.475  1.00  0.00     0.002 A 
HETATM   25  C5  UNL     1      26.091  -1.574  52.902  1.00  0.00     0.012 A 
BRANCH  20  26
HETATM   26  O1  UNL     1      27.901   1.123  54.535  1.00  0.00    -0.359 OA
HETATM   27  H1  UNL     1      27.322   1.926  54.263  1.00  0.00     0.217 HD
ENDBRANCH  20  26
ENDBRANCH  18  19
ENDBRANCH   1  18
TORSDOF 3
ENDMDL
MODEL 4
REMARK VINA RESULT:      -8.8      2.133      3.156
REMARK  3 active torsions:
REMARK  status: ('A' for Active; 'I' for Inactive)
REMARK    1  A    between atoms: O1_1  and  C1_2 
REMARK    2  A    between atoms: C6_8  and  C7_9 
REMARK    3  A    between atoms: C7_9  and  N1_10 
ROOT
HETATM    1  N1  UNL     1      24.837   2.871  50.339  1.00  0.00    -0.345 N 
HETATM    2  C8  UNL     1      26.312   2.700  50.467  1.00  0.00     0.152 C 
HETATM    3  C9  UNL     1      26.466   1.501  51.306  1.00  0.00    -0.007 C 
HETATM    4  C10 UNL     1      26.676   0.398  51.961  1.00  0.00    -0.003 C 
HETATM    5  C11 UNL     1      26.823  -0.781  52.789  1.00  0.00    -0.004 C 
HETATM    6  C12 UNL     1      26.072  -0.732  53.877  1.00  0.00    -0.022 C 
HETATM    7  C13 UNL     1      25.134   0.266  54.396  1.00  0.00     0.068 C 
HETATM    8  C14 UNL     1      23.721  -0.118  54.041  1.00  0.00    -0.018 A 
HETATM    9  C15 UNL     1      23.144  -1.143  54.712  1.00  0.00     0.010 A 
HETATM   10  C16 UNL     1      21.888  -1.555  54.374  1.00  0.00     0.001 A 
HETATM   11  C17 UNL     1      21.068  -1.056  53.393  1.00  0.00     0.002 A 
HETATM   12  C18 UNL     1      21.733  -0.001  52.744  1.00  0.00     0.039 A 
HETATM   13  C19 UNL     1      23.011   0.502  53.007  1.00  0.00     0.162 A 
HETATM   14  N2  UNL     1      23.005   1.548  52.008  1.00  0.00     0.071 N 
HETATM   15  C20 UNL     1      23.875   2.241  51.151  1.00  0.00     0.290 A 
HETATM   16  S1  UNL     1      22.322   2.816  50.971  1.00  0.00     0.151 SA
HETATM   17  H19 UNL     1      23.920   1.134  52.087  1.00  0.00     0.312 HD
ENDROOT
BRANCH   1  18
HETATM   18  C7  UNL     1      24.626   3.878  49.353  1.00  0.00     0.166 C 
BRANCH  18  19
HETATM   19  C6  UNL     1      24.898   5.256  49.739  1.00  0.00    -0.006 A 
HETATM   20  C1  UNL     1      25.991   6.010  49.302  1.00  0.00     0.090 A 
HETATM   21  C2  UNL     1      26.198   7.308  49.718  1.00  0.00     0.044 A 
HETATM   22 BR1  UNL     1      27.742   8.203  49.026  1.00  0.00    -0.048 Br
HETATM   23  C3  UNL     1      25.312   7.900  50.593  1.00  0.00     0.022 A 
HETATM   24  C4  UNL     1      24.217   7.211  51.059  1.00  0.00     0.002 A 
HETATM   25  C5  UNL     1      24.022   5.892  50.626  1.00  0.00     0.012 A 
BRANCH  20  26
HETATM   26  O1  UNL     1      26.851   5.341  48.411  1.00  0.00    -0.359 OA
HETATM   27  H1  UNL     1      26.965   4.330  48.548  1.00  0.00     0.217 HD
ENDBRANCH  20  26
ENDBRANCH  18  19
ENDBRANCH   1  18
TORSDOF 3
ENDMDL
MODEL 5
REMARK VINA RESULT:      -8.6      2.801      3.768
REMARK  3 active torsions:
REMARK  status: ('A' for Active; 'I' for Inactive)
REMARK    1  A    between atoms: O1_1  and  C1_2 
REMARK    2  A    between atoms: C6_8  and  C7_9 
REMARK    3  A    between atoms: C7_9  and  N1_10 
ROOT
HETATM    1  N1  UNL     1      24.414   3.223  50.909  1.00  0.00    -0.345 N 
HETATM    2  C8  UNL     1      25.870   2.998  50.683  1.00  0.00     0.152 C 
HETATM    3  C9  UNL     1      26.134   1.685  51.292  1.00  0.00    -0.007 C 
HETATM    4  C10 UNL     1      26.416   0.492  51.724  1.00  0.00    -0.003 C 
HETATM    5  C11 UNL     1      26.672  -0.799  52.326  1.00  0.00    -0.004 C 
HETATM    6  C12 UNL     1      26.176  -0.894  53.549  1.00  0.00    -0.022 C 
HETATM    7  C13 UNL     1      25.430   0.039  54.397  1.00  0.00     0.068 C 
HETATM    8  C14 UNL     1      23.954  -0.254  54.312  1.00  0.00    -0.018 A 
HETATM    9  C15 UNL     1      23.479  -1.353  54.945  1.00  0.00     0.010 A 
HETATM   10  C16 UNL     1      22.158  -1.679  54.839  1.00  0.00     0.001 A 
HETATM   11  C17 UNL     1      21.176  -1.021  54.143  1.00  0.00     0.002 A 
HETATM   12  C18 UNL     1      21.743   0.102  53.517  1.00  0.00     0.039 A 
HETATM   13  C19 UNL     1      23.075   0.530  53.558  1.00  0.00     0.162 A 
HETATM   14  N2  UNL     1      22.912   1.712  52.741  1.00  0.00     0.071 N 
HETATM   15  C20 UNL     1      23.615   2.503  51.818  1.00  0.00     0.290 A 
HETATM   16  S1  UNL     1      22.094   3.135  52.067  1.00  0.00     0.151 SA
HETATM   17  H19 UNL     1      23.798   1.269  52.557  1.00  0.00     0.312 HD
ENDROOT
BRANCH   1  18
HETATM   18  C7  UNL     1      24.052   4.369  50.144  1.00  0.00     0.166 C 
BRANCH  18  19
HETATM   19  C6  UNL     1      23.338   4.138  48.895  1.00  0.00    -0.006 A 
HETATM   20  C1  UNL     1      22.928   5.138  48.009  1.00  0.00     0.090 A 
HETATM   21  C2  UNL     1      22.241   4.852  46.848  1.00  0.00     0.044 A 
HETATM   22 BR1  UNL     1      21.752   6.336  45.743  1.00  0.00    -0.048 Br
HETATM   23  C3  UNL     1      21.939   3.544  46.532  1.00  0.00     0.022 A 
HETATM   24  C4  UNL     1      22.315   2.514  47.363  1.00  0.00     0.002 A 
HETATM   25  C5  UNL     1      23.013   2.824  48.539  1.00  0.00     0.012 A 
BRANCH  20  26
HETATM   26  O1  UNL     1      23.272   6.447  48.397  1.00  0.00    -0.359 OA
HETATM   27  H1  UNL     1      22.605   6.942  49.001  1.00  0.00     0.217 HD
ENDBRANCH  20  26
ENDBRANCH  18  19
ENDBRANCH   1  18
TORSDOF 3
ENDMDL
MODEL 6
REMARK VINA RESULT:      -8.3      3.850      5.660
REMARK  3 active torsions:
REMARK  status: ('A' for Active; 'I' for Inactive)
REMARK    1  A    between atoms: O1_1  and  C1_2 
REMARK    2  A    between atoms: C6_8  and  C7_9 
REMARK    3  A    between atoms: C7_9  and  N1_10 
ROOT
HETATM    1  N1  UNL     1      20.951   3.230  51.747  1.00  0.00    -0.345 N 
HETATM    2  C8  UNL     1      19.787   2.379  52.123  1.00  0.00     0.152 C 
HETATM    3  C9  UNL     1      20.345   1.395  53.063  1.00  0.00    -0.007 C 
HETATM    4  C10 UNL     1      20.750   0.558  53.972  1.00  0.00    -0.003 C 
HETATM    5  C11 UNL     1      21.304  -0.410  54.895  1.00  0.00    -0.004 C 
HETATM    6  C12 UNL     1      22.407  -0.976  54.433  1.00  0.00    -0.022 C 
HETATM    7  C13 UNL     1      23.164  -0.814  53.190  1.00  0.00     0.068 C 
HETATM    8  C14 UNL     1      24.330   0.116  53.413  1.00  0.00    -0.018 A 
HETATM    9  C15 UNL     1      25.396  -0.343  54.110  1.00  0.00     0.010 A 
HETATM   10  C16 UNL     1      26.441   0.491  54.380  1.00  0.00     0.001 A 
HETATM   11  C17 UNL     1      26.584   1.811  54.030  1.00  0.00     0.002 A 
HETATM   12  C18 UNL     1      25.444   2.212  53.313  1.00  0.00     0.039 A 
HETATM   13  C19 UNL     1      24.322   1.446  52.980  1.00  0.00     0.162 A 
HETATM   14  N2  UNL     1      23.610   2.472  52.251  1.00  0.00     0.071 N 
HETATM   15  C20 UNL     1      22.302   2.897  51.968  1.00  0.00     0.290 A 
HETATM   16  S1  UNL     1      23.401   3.894  51.210  1.00  0.00     0.151 SA
HETATM   17  H19 UNL     1      22.971   1.897  52.777  1.00  0.00     0.312 HD
ENDROOT
BRANCH   1  18
HETATM   18  C7  UNL     1      20.431   4.338  51.018  1.00  0.00     0.166 C 
BRANCH  18  19
HETATM   19  C6  UNL     1      19.823   4.058  49.724  1.00  0.00    -0.006 A 
HETATM   20  C1  UNL     1      18.514   4.390  49.364  1.00  0.00     0.090 A 
HETATM   21  C2  UNL     1      17.995   4.083  48.125  1.00  0.00     0.044 A 
HETATM   22 BR1  UNL     1      16.185   4.608  47.789  1.00  0.00    -0.048 Br
HETATM   23  C3  UNL     1      18.774   3.428  47.195  1.00  0.00     0.022 A 
HETATM   24  C4  UNL     1      20.071   3.074  47.488  1.00  0.00     0.002 A 
HETATM   25  C5  UNL     1      20.582   3.394  48.753  1.00  0.00     0.012 A 
BRANCH  20  26
HETATM   26  O1  UNL     1      17.779   5.058  50.362  1.00  0.00    -0.359 OA
HETATM   27  H1  UNL     1      17.799   4.649  51.304  1.00  0.00     0.217 HD
ENDBRANCH  20  26
ENDBRANCH  18  19
ENDBRANCH   1  18
TORSDOF 3
ENDMDL
MODEL 7
REMARK VINA RESULT:      -8.3      2.424      4.300
REMARK  3 active torsions:
REMARK  status: ('A' for Active; 'I' for Inactive)
REMARK    1  A    between atoms: O1_1  and  C1_2 
REMARK    2  A    between atoms: C6_8  and  C7_9 
REMARK    3  A    between atoms: C7_9  and  N1_10 
ROOT
HETATM    1  N1  UNL     1      23.835   3.132  50.356  1.00  0.00    -0.345 N 
HETATM    2  C8  UNL     1      22.361   2.989  50.187  1.00  0.00     0.152 C 
HETATM    3  C9  UNL     1      21.936   2.204  51.356  1.00  0.00    -0.007 C 
HETATM    4  C10 UNL     1      21.479   1.598  52.412  1.00  0.00    -0.003 C 
HETATM    5  C11 UNL     1      21.065   0.823  53.563  1.00  0.00    -0.004 C 
HETATM    6  C12 UNL     1      21.812  -0.254  53.743  1.00  0.00    -0.022 C 
HETATM    7  C13 UNL     1      22.958  -0.804  53.016  1.00  0.00     0.068 C 
HETATM    8  C14 UNL     1      24.242  -0.409  53.700  1.00  0.00    -0.018 A 
HETATM    9  C15 UNL     1      24.567  -1.023  54.862  1.00  0.00     0.010 A 
HETATM   10  C16 UNL     1      25.691  -0.647  55.538  1.00  0.00     0.001 A 
HETATM   11  C17 UNL     1      26.600   0.323  55.196  1.00  0.00     0.002 A 
HETATM   12  C18 UNL     1      26.197   0.912  53.984  1.00  0.00     0.039 A 
HETATM   13  C19 UNL     1      25.071   0.606  53.212  1.00  0.00     0.162 A 
HETATM   14  N2  UNL     1      25.316   1.555  52.149  1.00  0.00     0.071 N 
HETATM   15  C20 UNL     1      24.627   2.365  51.232  1.00  0.00     0.290 A 
HETATM   16  S1  UNL     1      26.271   2.543  51.025  1.00  0.00     0.151 SA
HETATM   17  H19 UNL     1      24.330   1.481  52.342  1.00  0.00     0.312 HD
ENDROOT
BRANCH   1  18
HETATM   18  C7  UNL     1      24.270   4.074  49.379  1.00  0.00     0.166 C 
BRANCH  18  19
HETATM   19  C6  UNL     1      24.247   5.481  49.755  1.00  0.00    -0.006 A 
HETATM   20  C1  UNL     1      25.362   6.324  49.773  1.00  0.00     0.090 A 
HETATM   21  C2  UNL     1      25.274   7.646  50.154  1.00  0.00     0.044 A 
HETATM   22 BR1  UNL     1      26.894   8.666  50.121  1.00  0.00    -0.048 Br
HETATM   23  C3  UNL     1      24.058   8.174  50.533  1.00  0.00     0.022 A 
HETATM   24  C4  UNL     1      22.924   7.396  50.538  1.00  0.00     0.002 A 
HETATM   25  C5  UNL     1      23.031   6.054  50.148  1.00  0.00     0.012 A 
BRANCH  20  26
HETATM   26  O1  UNL     1      26.567   5.717  49.372  1.00  0.00    -0.359 OA
HETATM   27  H1  UNL     1      26.491   4.840  48.844  1.00  0.00     0.217 HD
ENDBRANCH  20  26
ENDBRANCH  18  19
ENDBRANCH   1  18
TORSDOF 3
ENDMDL
MODEL 8
REMARK VINA RESULT:      -8.3      4.552      7.580
REMARK  3 active torsions:
REMARK  status: ('A' for Active; 'I' for Inactive)
REMARK    1  A    between atoms: O1_1  and  C1_2 
REMARK    2  A    between atoms: C6_8  and  C7_9 
REMARK    3  A    between atoms: C7_9  and  N1_10 
ROOT
HETATM    1  N1  UNL     1      18.645   0.861  51.558  1.00  0.00    -0.345 N 
HETATM    2  C8  UNL     1      18.348  -0.424  52.252  1.00  0.00     0.152 C 
HETATM    3  C9  UNL     1      19.500  -0.631  53.142  1.00  0.00    -0.007 C 
HETATM    4  C10 UNL     1      20.439  -0.828  54.020  1.00  0.00    -0.003 C 
HETATM    5  C11 UNL     1      21.576  -1.028  54.894  1.00  0.00    -0.004 C 
HETATM    6  C12 UNL     1      22.730  -0.874  54.265  1.00  0.00    -0.022 C 
HETATM    7  C13 UNL     1      23.074  -0.544  52.880  1.00  0.00     0.068 C 
HETATM    8  C14 UNL     1      23.381   0.928  52.761  1.00  0.00    -0.018 A 
HETATM    9  C15 UNL     1      24.556   1.382  53.258  1.00  0.00     0.010 A 
HETATM   10  C16 UNL     1      24.839   2.716  53.221  1.00  0.00     0.001 A 
HETATM   11  C17 UNL     1      24.062   3.733  52.724  1.00  0.00     0.002 A 
HETATM   12  C18 UNL     1      22.866   3.185  52.228  1.00  0.00     0.039 A 
HETATM   13  C19 UNL     1      22.475   1.842  52.215  1.00  0.00     0.162 A 
HETATM   14  N2  UNL     1      21.200   2.030  51.559  1.00  0.00     0.071 N 
HETATM   15  C20 UNL     1      19.905   1.487  51.519  1.00  0.00     0.290 A 
HETATM   16  S1  UNL     1      20.020   2.763  50.454  1.00  0.00     0.151 SA
HETATM   17  H19 UNL     1      21.139   1.309  52.260  1.00  0.00     0.312 HD
ENDROOT
BRANCH   1  18
HETATM   18  C7  UNL     1      17.462   1.229  50.854  1.00  0.00     0.166 C 
BRANCH  18  19
HETATM   19  C6  UNL     1      16.464   1.999  51.585  1.00  0.00    -0.006 A 
HETATM   20  C1  UNL     1      15.271   1.482  52.098  1.00  0.00     0.090 A 
HETATM   21  C2  UNL     1      14.361   2.270  52.770  1.00  0.00     0.044 A 
HETATM   22 BR1  UNL     1      12.777   1.408  53.412  1.00  0.00    -0.048 Br
HETATM   23  C3  UNL     1      14.615   3.613  52.952  1.00  0.00     0.022 A 
HETATM   24  C4  UNL     1      15.771   4.182  52.470  1.00  0.00     0.002 A 
HETATM   25  C5  UNL     1      16.686   3.366  51.790  1.00  0.00     0.012 A 
BRANCH  20  26
HETATM   26  O1  UNL     1      15.081   0.105  51.876  1.00  0.00    -0.359 OA
HETATM   27  H1  UNL     1      14.404  -0.373  52.482  1.00  0.00     0.217 HD
ENDBRANCH  20  26
ENDBRANCH  18  19
ENDBRANCH   1  18
TORSDOF 3
ENDMDL
MODEL 9
REMARK VINA RESULT:      -8.1      2.585      4.415
REMARK  3 active torsions:
REMARK  status: ('A' for Active; 'I' for Inactive)
REMARK    1  A    between atoms: O1_1  and  C1_2 
REMARK    2  A    between atoms: C6_8  and  C7_9 
REMARK    3  A    between atoms: C7_9  and  N1_10 
ROOT
HETATM    1  N1  UNL     1      21.585   2.745  50.492  1.00  0.00    -0.345 N 
HETATM    2  C8  UNL     1      20.241   2.262  50.920  1.00  0.00     0.152 C 
HETATM    3  C9  UNL     1      20.498   1.541  52.176  1.00  0.00    -0.007 C 
HETATM    4  C10 UNL     1      20.638   0.973  53.337  1.00  0.00    -0.003 C 
HETATM    5  C11 UNL     1      20.896   0.262  54.572  1.00  0.00    -0.004 C 
HETATM    6  C12 UNL     1      21.897  -0.596  54.463  1.00  0.00    -0.022 C 
HETATM    7  C13 UNL     1      22.781  -0.959  53.353  1.00  0.00     0.068 C 
HETATM    8  C14 UNL     1      24.087  -0.215  53.469  1.00  0.00    -0.018 A 
HETATM    9  C15 UNL     1      24.968  -0.606  54.420  1.00  0.00     0.010 A 
HETATM   10  C16 UNL     1      26.133   0.083  54.591  1.00  0.00     0.001 A 
HETATM   11  C17 UNL     1      26.575   1.185  53.901  1.00  0.00     0.002 A 
HETATM   12  C18 UNL     1      25.612   1.528  52.936  1.00  0.00     0.039 A 
HETATM   13  C19 UNL     1      24.392   0.896  52.675  1.00  0.00     0.162 A 
HETATM   14  N2  UNL     1      23.974   1.748  51.584  1.00  0.00     0.071 N 
HETATM   15  C20 UNL     1      22.812   2.277  50.999  1.00  0.00     0.290 A 
HETATM   16  S1  UNL     1      24.157   2.788  50.158  1.00  0.00     0.151 SA
HETATM   17  H19 UNL     1      23.186   1.481  52.152  1.00  0.00     0.312 HD
ENDROOT
BRANCH   1  18
HETATM   18  C7  UNL     1      21.371   3.642  49.406  1.00  0.00     0.166 C 
BRANCH  18  19
HETATM   19  C6  UNL     1      21.752   5.034  49.608  1.00  0.00    -0.006 A 
HETATM   20  C1  UNL     1      22.524   5.791  48.722  1.00  0.00     0.090 A 
HETATM   21  C2  UNL     1      22.861   7.102  48.980  1.00  0.00     0.044 A 
HETATM   22 BR1  UNL     1      23.923   7.999  47.664  1.00  0.00    -0.048 Br
HETATM   23  C3  UNL     1      22.434   7.706  50.144  1.00  0.00     0.022 A 
HETATM   24  C4  UNL     1      21.672   7.015  51.056  1.00  0.00     0.002 A 
HETATM   25  C5  UNL     1      21.338   5.683  50.778  1.00  0.00     0.012 A 
BRANCH  20  26
HETATM   26  O1  UNL     1      22.922   5.109  47.556  1.00  0.00    -0.359 OA
HETATM   27  H1  UNL     1      22.196   4.584  47.055  1.00  0.00     0.217 HD
ENDBRANCH  20  26
ENDBRANCH  18  19
ENDBRANCH   1  18
TORSDOF 3
ENDMDL
