MODEL 1
REMARK VINA RESULT:      -8.5      0.000      0.000
REMARK  2 active torsions:
REMARK  status: ('A' for Active; 'I' for Inactive)
REMARK    1  A    between atoms: C3_3  and  N1_4 
REMARK    2  A    between atoms: C6_8  and  C7_9 
ROOT
HETATM    1  N1  UNL     1      21.614   0.685  52.943  1.00  0.00    -0.259 NA
HETATM    2  C4  UNL     1      22.548   0.121  53.552  1.00  0.00     0.081 C 
HETATM    3  C5  UNL     1      23.820   0.810  53.204  1.00  0.00     0.145 C 
HETATM    4  N2  UNL     1      25.108   0.625  53.371  1.00  0.00    -0.265 NA
HETATM    5  C6  UNL     1      25.813  -0.453  54.036  1.00  0.00     0.285 C 
HETATM    6  N3  UNL     1      25.409  -0.687  55.386  1.00  0.00    -0.160 NA
HETATM    7  N4  UNL     1      24.351  -1.122  55.954  1.00  0.00    -0.165 NA
HETATM    8  C14 UNL     1      23.077  -1.574  55.441  1.00  0.00     0.149 C 
HETATM    9  C15 UNL     1      22.381  -1.017  54.445  1.00  0.00    -0.013 C 
HETATM   10  C16 UNL     1      21.072  -1.662  54.069  1.00  0.00     0.052 C 
ENDROOT
BRANCH   5  11
HETATM   11  C7  UNL     1      27.268  -0.363  53.865  1.00  0.00    -0.005 A 
HETATM   12  C8  UNL     1      28.022   0.698  54.378  1.00  0.00     0.012 A 
HETATM   13  C9  UNL     1      29.373   0.880  54.277  1.00  0.00     0.001 A 
HETATM   14  C10 UNL     1      30.064  -0.095  53.592  1.00  0.00     0.001 A 
HETATM   15  C11 UNL     1      29.394  -1.189  53.046  1.00  0.00     0.007 A 
HETATM   16  C12 UNL     1      28.014  -1.321  53.180  1.00  0.00    -0.052 A 
HETATM   17  C13 UNL     1      27.333  -2.489  52.592  1.00  0.00     0.049 C 
ENDBRANCH   5  11
BRANCH   1  18
HETATM   18  C3  UNL     1      20.251   0.506  52.864  1.00  0.00     0.113 C 
HETATM   19  C2  UNL     1      19.731   0.415  51.631  1.00  0.00    -0.012 C 
HETATM   20  C1  UNL     1      18.368   0.227  51.015  1.00  0.00     0.037 C 
ENDBRANCH   1  18
TORSDOF 2
ENDMDL
MODEL 2
REMARK VINA RESULT:      -7.8      2.941      3.477
REMARK  2 active torsions:
REMARK  status: ('A' for Active; 'I' for Inactive)
REMARK    1  A    between atoms: C3_3  and  N1_4 
REMARK    2  A    between atoms: C6_8  and  C7_9 
ROOT
HETATM    1  N1  UNL     1      23.654   3.328  49.976  1.00  0.00    -0.259 NA
HETATM    2  C4  UNL     1      23.936   2.422  50.789  1.00  0.00     0.081 C 
HETATM    3  C5  UNL     1      25.382   2.526  51.125  1.00  0.00     0.145 C 
HETATM    4  N2  UNL     1      26.290   1.823  51.759  1.00  0.00    -0.265 NA
HETATM    5  C6  UNL     1      26.172   0.544  52.429  1.00  0.00     0.285 C 
HETATM    6  N3  UNL     1      25.152   0.484  53.427  1.00  0.00    -0.160 NA
HETATM    7  N4  UNL     1      23.875   0.520  53.423  1.00  0.00    -0.165 NA
HETATM    8  C14 UNL     1      22.901   0.642  52.362  1.00  0.00     0.149 C 
HETATM    9  C15 UNL     1      22.983   1.446  51.299  1.00  0.00    -0.013 C 
HETATM   10  C16 UNL     1      21.849   1.405  50.309  1.00  0.00     0.052 C 
ENDROOT
BRANCH   5  11
HETATM   11  C7  UNL     1      27.469   0.024  52.881  1.00  0.00    -0.005 A 
HETATM   12  C8  UNL     1      28.472   0.851  53.398  1.00  0.00     0.012 A 
HETATM   13  C9  UNL     1      29.708   0.476  53.845  1.00  0.00     0.001 A 
HETATM   14  C10 UNL     1      29.991  -0.870  53.777  1.00  0.00     0.001 A 
HETATM   15  C11 UNL     1      29.050  -1.769  53.275  1.00  0.00     0.007 A 
HETATM   16  C12 UNL     1      27.806  -1.328  52.833  1.00  0.00    -0.052 A 
HETATM   17  C13 UNL     1      26.831  -2.301  52.308  1.00  0.00     0.049 C 
ENDBRANCH   5  11
BRANCH   1  18
HETATM   18  C3  UNL     1      22.512   3.731  49.319  1.00  0.00     0.113 C 
HETATM   19  C2  UNL     1      22.685   4.338  48.137  1.00  0.00    -0.012 C 
HETATM   20  C1  UNL     1      21.816   4.944  47.064  1.00  0.00     0.037 C 
ENDBRANCH   1  18
TORSDOF 2
ENDMDL
MODEL 3
REMARK VINA RESULT:      -7.7      2.443      3.956
REMARK  2 active torsions:
REMARK  status: ('A' for Active; 'I' for Inactive)
REMARK    1  A    between atoms: C3_3  and  N1_4 
REMARK    2  A    between atoms: C6_8  and  C7_9 
ROOT
HETATM    1  N1  UNL     1      21.906   2.556  52.465  1.00  0.00    -0.259 NA
HETATM    2  C4  UNL     1      23.124   2.598  52.187  1.00  0.00     0.081 C 
HETATM    3  C5  UNL     1      23.745   1.310  52.597  1.00  0.00     0.145 C 
HETATM    4  N2  UNL     1      24.947   0.801  52.720  1.00  0.00    -0.265 NA
HETATM    5  C6  UNL     1      26.241   1.403  52.465  1.00  0.00     0.285 C 
HETATM    6  N3  UNL     1      26.397   1.950  51.155  1.00  0.00    -0.160 NA
HETATM    7  N4  UNL     1      25.891   2.934  50.516  1.00  0.00    -0.165 NA
HETATM    8  C14 UNL     1      24.913   3.937  50.874  1.00  0.00     0.149 C 
HETATM    9  C15 UNL     1      23.789   3.736  51.566  1.00  0.00    -0.013 C 
HETATM   10  C16 UNL     1      22.914   4.933  51.831  1.00  0.00     0.052 C 
ENDROOT
BRANCH   5  11
HETATM   11  C7  UNL     1      27.354   0.541  52.879  1.00  0.00    -0.005 A 
HETATM   12  C8  UNL     1      27.327  -0.850  52.722  1.00  0.00     0.012 A 
HETATM   13  C9  UNL     1      28.302  -1.743  53.071  1.00  0.00     0.001 A 
HETATM   14  C10 UNL     1      29.437  -1.206  53.639  1.00  0.00     0.001 A 
HETATM   15  C11 UNL     1      29.551   0.170  53.833  1.00  0.00     0.007 A 
HETATM   16  C12 UNL     1      28.523   1.032  53.458  1.00  0.00    -0.052 A 
HETATM   17  C13 UNL     1      28.672   2.482  53.675  1.00  0.00     0.049 C 
ENDBRANCH   5  11
BRANCH   1  18
HETATM   18  C3  UNL     1      20.842   3.420  52.328  1.00  0.00     0.113 C 
HETATM   19  C2  UNL     1      19.693   2.888  51.887  1.00  0.00    -0.012 C 
HETATM   20  C1  UNL     1      18.298   3.365  51.577  1.00  0.00     0.037 C 
ENDBRANCH   1  18
TORSDOF 2
ENDMDL
MODEL 4
REMARK VINA RESULT:      -7.7      1.640      7.593
REMARK  2 active torsions:
REMARK  status: ('A' for Active; 'I' for Inactive)
REMARK    1  A    between atoms: C3_3  and  N1_4 
REMARK    2  A    between atoms: C6_8  and  C7_9 
ROOT
HETATM    1  N1  UNL     1      26.167  -0.148  53.374  1.00  0.00    -0.259 NA
HETATM    2  C4  UNL     1      25.148   0.456  52.975  1.00  0.00     0.081 C 
HETATM    3  C5  UNL     1      23.948  -0.311  53.404  1.00  0.00     0.145 C 
HETATM    4  N2  UNL     1      22.655  -0.305  53.185  1.00  0.00    -0.265 NA
HETATM    5  C6  UNL     1      21.861   0.564  52.339  1.00  0.00     0.285 C 
HETATM    6  N3  UNL     1      22.018   1.959  52.603  1.00  0.00    -0.160 NA
HETATM    7  N4  UNL     1      22.963   2.808  52.468  1.00  0.00    -0.165 NA
HETATM    8  C14 UNL     1      24.317   2.698  51.973  1.00  0.00     0.149 C 
HETATM    9  C15 UNL     1      25.171   1.700  52.218  1.00  0.00    -0.013 C 
HETATM   10  C16 UNL     1      26.538   1.788  51.590  1.00  0.00     0.052 C 
ENDROOT
BRANCH   5  11
HETATM   11  C7  UNL     1      20.460   0.136  52.250  1.00  0.00    -0.005 A 
HETATM   12  C8  UNL     1      19.818  -0.558  53.282  1.00  0.00     0.012 A 
HETATM   13  C9  UNL     1      18.526  -1.002  53.305  1.00  0.00     0.001 A 
HETATM   14  C10 UNL     1      17.775  -0.731  52.182  1.00  0.00     0.001 A 
HETATM   15  C11 UNL     1      18.333  -0.043  51.104  1.00  0.00     0.007 A 
HETATM   16  C12 UNL     1      19.657   0.384  51.138  1.00  0.00    -0.052 A 
HETATM   17  C13 UNL     1      20.219   1.109  49.984  1.00  0.00     0.049 C 
ENDBRANCH   5  11
BRANCH   1  18
HETATM   18  C3  UNL     1      27.525   0.064  53.288  1.00  0.00     0.113 C 
HETATM   19  C2  UNL     1      28.310  -1.003  53.489  1.00  0.00    -0.012 C 
HETATM   20  C1  UNL     1      29.787  -1.305  53.508  1.00  0.00     0.037 C 
ENDBRANCH   1  18
TORSDOF 2
ENDMDL
MODEL 5
REMARK VINA RESULT:      -7.6      4.864      7.856
REMARK  2 active torsions:
REMARK  status: ('A' for Active; 'I' for Inactive)
REMARK    1  A    between atoms: C3_3  and  N1_4 
REMARK    2  A    between atoms: C6_8  and  C7_9 
ROOT
HETATM    1  N1  UNL     1      27.481   4.503  49.085  1.00  0.00    -0.259 NA
HETATM    2  C4  UNL     1      26.408   4.394  49.716  1.00  0.00     0.081 C 
HETATM    3  C5  UNL     1      26.392   3.071  50.394  1.00  0.00     0.145 C 
HETATM    4  N2  UNL     1      25.540   2.318  51.047  1.00  0.00    -0.265 NA
HETATM    5  C6  UNL     1      24.146   2.555  51.366  1.00  0.00     0.285 C 
HETATM    6  N3  UNL     1      23.892   3.778  52.059  1.00  0.00    -0.160 NA
HETATM    7  N4  UNL     1      23.964   5.019  51.766  1.00  0.00    -0.165 NA
HETATM    8  C14 UNL     1      24.348   5.722  50.562  1.00  0.00     0.149 C 
HETATM    9  C15 UNL     1      25.369   5.415  49.757  1.00  0.00    -0.013 C 
HETATM   10  C16 UNL     1      25.584   6.286  48.546  1.00  0.00     0.052 C 
ENDROOT
BRANCH   5  11
HETATM   11  C7  UNL     1      23.502   1.387  51.979  1.00  0.00    -0.005 A 
HETATM   12  C8  UNL     1      24.074   0.686  53.045  1.00  0.00     0.012 A 
HETATM   13  C9  UNL     1      23.565  -0.409  53.687  1.00  0.00     0.001 A 
HETATM   14  C10 UNL     1      22.350  -0.867  53.227  1.00  0.00     0.001 A 
HETATM   15  C11 UNL     1      21.706  -0.229  52.167  1.00  0.00     0.007 A 
HETATM   16  C12 UNL     1      22.275   0.883  51.551  1.00  0.00    -0.052 A 
HETATM   17  C13 UNL     1      21.571   1.537  50.433  1.00  0.00     0.049 C 
ENDBRANCH   5  11
BRANCH   1  18
HETATM   18  C3  UNL     1      28.053   5.471  48.289  1.00  0.00     0.113 C 
HETATM   19  C2  UNL     1      29.393   5.511  48.267  1.00  0.00    -0.012 C 
HETATM   20  C1  UNL     1      30.466   6.331  47.598  1.00  0.00     0.037 C 
ENDBRANCH   1  18
TORSDOF 2
ENDMDL
MODEL 6
REMARK VINA RESULT:      -7.4      1.509      2.507
REMARK  2 active torsions:
REMARK  status: ('A' for Active; 'I' for Inactive)
REMARK    1  A    between atoms: C3_3  and  N1_4 
REMARK    2  A    between atoms: C6_8  and  C7_9 
ROOT
HETATM    1  N1  UNL     1      21.142  -0.435  53.534  1.00  0.00    -0.259 NA
HETATM    2  C4  UNL     1      22.178   0.146  53.144  1.00  0.00     0.081 C 
HETATM    3  C5  UNL     1      23.349  -0.715  53.460  1.00  0.00     0.145 C 
HETATM    4  N2  UNL     1      24.657  -0.625  53.455  1.00  0.00    -0.265 NA
HETATM    5  C6  UNL     1      25.509   0.491  53.095  1.00  0.00     0.285 C 
HETATM    6  N3  UNL     1      25.276   1.023  51.791  1.00  0.00    -0.160 NA
HETATM    7  N4  UNL     1      24.322   1.661  51.228  1.00  0.00    -0.165 NA
HETATM    8  C14 UNL     1      23.037   2.122  51.702  1.00  0.00     0.149 C 
HETATM    9  C15 UNL     1      22.196   1.449  52.492  1.00  0.00    -0.013 C 
HETATM   10  C16 UNL     1      20.905   2.128  52.870  1.00  0.00     0.052 C 
ENDROOT
BRANCH   5  11
HETATM   11  C7  UNL     1      26.926   0.231  53.379  1.00  0.00    -0.005 A 
HETATM   12  C8  UNL     1      27.742   1.155  54.041  1.00  0.00     0.012 A 
HETATM   13  C9  UNL     1      29.066   1.018  54.354  1.00  0.00     0.001 A 
HETATM   14  C10 UNL     1      29.656  -0.167  53.973  1.00  0.00     0.001 A 
HETATM   15  C11 UNL     1      28.918  -1.146  53.309  1.00  0.00     0.007 A 
HETATM   16  C12 UNL     1      27.572  -0.950  53.015  1.00  0.00    -0.052 A 
HETATM   17  C13 UNL     1      26.817  -2.003  52.312  1.00  0.00     0.049 C 
ENDBRANCH   5  11
BRANCH   1  18
HETATM   18  C3  UNL     1      19.796  -0.146  53.521  1.00  0.00     0.113 C 
HETATM   19  C2  UNL     1      18.966  -1.176  53.305  1.00  0.00    -0.012 C 
HETATM   20  C1  UNL     1      17.479  -1.398  53.198  1.00  0.00     0.037 C 
ENDBRANCH   1  18
TORSDOF 2
ENDMDL
MODEL 7
REMARK VINA RESULT:      -7.3      5.842      9.104
REMARK  2 active torsions:
REMARK  status: ('A' for Active; 'I' for Inactive)
REMARK    1  A    between atoms: C3_3  and  N1_4 
REMARK    2  A    between atoms: C6_8  and  C7_9 
ROOT
HETATM    1  N1  UNL     1      28.316   4.918  48.560  1.00  0.00    -0.259 NA
HETATM    2  C4  UNL     1      27.128   4.984  48.941  1.00  0.00     0.081 C 
HETATM    3  C5  UNL     1      26.704   3.633  49.397  1.00  0.00     0.145 C 
HETATM    4  N2  UNL     1      25.597   3.024  49.747  1.00  0.00    -0.265 NA
HETATM    5  C6  UNL     1      24.240   3.529  49.815  1.00  0.00     0.285 C 
HETATM    6  N3  UNL     1      24.078   4.698  50.619  1.00  0.00    -0.160 NA
HETATM    7  N4  UNL     1      24.453   5.917  50.536  1.00  0.00    -0.165 NA
HETATM    8  C14 UNL     1      25.228   6.639  49.551  1.00  0.00     0.149 C 
HETATM    9  C15 UNL     1      26.324   6.200  48.928  1.00  0.00    -0.013 C 
HETATM   10  C16 UNL     1      26.971   7.123  47.928  1.00  0.00     0.052 C 
ENDROOT
BRANCH   5  11
HETATM   11  C7  UNL     1      23.261   2.475  50.106  1.00  0.00    -0.005 A 
HETATM   12  C8  UNL     1      23.145   1.883  51.369  1.00  0.00     0.012 A 
HETATM   13  C9  UNL     1      22.275   0.899  51.747  1.00  0.00     0.001 A 
HETATM   14  C10 UNL     1      21.416   0.445  50.771  1.00  0.00     0.001 A 
HETATM   15  C11 UNL     1      21.460   0.978  49.483  1.00  0.00     0.007 A 
HETATM   16  C12 UNL     1      22.370   1.980  49.155  1.00  0.00    -0.052 A 
HETATM   17  C13 UNL     1      22.393   2.524  47.785  1.00  0.00     0.049 C 
ENDBRANCH   5  11
BRANCH   1  18
HETATM   18  C3  UNL     1      29.229   5.813  48.047  1.00  0.00     0.113 C 
HETATM   19  C2  UNL     1      30.522   5.476  48.156  1.00  0.00    -0.012 C 
HETATM   20  C1  UNL     1      31.856   6.066  47.779  1.00  0.00     0.037 C 
ENDBRANCH   1  18
TORSDOF 2
ENDMDL
MODEL 8
REMARK VINA RESULT:      -7.1      5.097      6.548
REMARK  2 active torsions:
REMARK  status: ('A' for Active; 'I' for Inactive)
REMARK    1  A    between atoms: C3_3  and  N1_4 
REMARK    2  A    between atoms: C6_8  and  C7_9 
ROOT
HETATM    1  N1  UNL     1      23.239   1.197  52.731  1.00  0.00    -0.259 NA
HETATM    2  C4  UNL     1      23.258   2.054  51.822  1.00  0.00     0.081 C 
HETATM    3  C5  UNL     1      24.670   2.263  51.402  1.00  0.00     0.145 C 
HETATM    4  N2  UNL     1      25.352   3.091  50.648  1.00  0.00    -0.265 NA
HETATM    5  C6  UNL     1      24.898   4.228  49.872  1.00  0.00     0.285 C 
HETATM    6  N3  UNL     1      23.854   3.938  48.942  1.00  0.00    -0.160 NA
HETATM    7  N4  UNL     1      22.625   3.599  49.033  1.00  0.00    -0.165 NA
HETATM    8  C14 UNL     1      21.755   3.361  50.163  1.00  0.00     0.149 C 
HETATM    9  C15 UNL     1      22.075   2.716  51.288  1.00  0.00    -0.013 C 
HETATM   10  C16 UNL     1      21.007   2.589  52.343  1.00  0.00     0.052 C 
ENDROOT
BRANCH   5  11
HETATM   11  C7  UNL     1      26.009   4.991  49.289  1.00  0.00    -0.005 A 
HETATM   12  C8  UNL     1      27.227   4.398  48.938  1.00  0.00     0.012 A 
HETATM   13  C9  UNL     1      28.321   5.010  48.393  1.00  0.00     0.001 A 
HETATM   14  C10 UNL     1      28.204   6.364  48.165  1.00  0.00     0.001 A 
HETATM   15  C11 UNL     1      27.025   7.038  48.485  1.00  0.00     0.007 A 
HETATM   16  C12 UNL     1      25.943   6.361  49.039  1.00  0.00    -0.052 A 
HETATM   17  C13 UNL     1      24.710   7.101  49.366  1.00  0.00     0.049 C 
ENDBRANCH   5  11
BRANCH   1  18
HETATM   18  C3  UNL     1      22.258   0.606  53.496  1.00  0.00     0.113 C 
HETATM   19  C2  UNL     1      22.388  -0.709  53.721  1.00  0.00    -0.012 C 
HETATM   20  C1  UNL     1      21.634  -1.788  54.456  1.00  0.00     0.037 C 
ENDBRANCH   1  18
TORSDOF 2
ENDMDL
MODEL 9
REMARK VINA RESULT:      -6.9      3.881      5.110
REMARK  2 active torsions:
REMARK  status: ('A' for Active; 'I' for Inactive)
REMARK    1  A    between atoms: C3_3  and  N1_4 
REMARK    2  A    between atoms: C6_8  and  C7_9 
ROOT
HETATM    1  N1  UNL     1      20.723   0.883  52.849  1.00  0.00    -0.259 NA
HETATM    2  C4  UNL     1      21.911   1.241  52.697  1.00  0.00     0.081 C 
HETATM    3  C5  UNL     1      21.920   2.617  52.133  1.00  0.00     0.145 C 
HETATM    4  N2  UNL     1      22.787   3.458  51.624  1.00  0.00    -0.265 NA
HETATM    5  C6  UNL     1      24.213   3.306  51.411  1.00  0.00     0.285 C 
HETATM    6  N3  UNL     1      24.956   2.947  52.577  1.00  0.00    -0.160 NA
HETATM    7  N4  UNL     1      25.028   1.913  53.325  1.00  0.00    -0.165 NA
HETATM    8  C14 UNL     1      24.358   0.632  53.295  1.00  0.00     0.149 C 
HETATM    9  C15 UNL     1      23.067   0.419  53.028  1.00  0.00    -0.013 C 
HETATM   10  C16 UNL     1      22.582  -1.007  53.045  1.00  0.00     0.052 C 
ENDROOT
BRANCH   5  11
HETATM   11  C7  UNL     1      24.794   4.430  50.667  1.00  0.00    -0.005 A 
HETATM   12  C8  UNL     1      24.327   5.742  50.801  1.00  0.00     0.012 A 
HETATM   13  C9  UNL     1      24.791   6.857  50.160  1.00  0.00     0.001 A 
HETATM   14  C10 UNL     1      25.838   6.659  49.286  1.00  0.00     0.001 A 
HETATM   15  C11 UNL     1      26.368   5.383  49.090  1.00  0.00     0.007 A 
HETATM   16  C12 UNL     1      25.852   4.284  49.772  1.00  0.00    -0.052 A 
HETATM   17  C13 UNL     1      26.433   2.948  49.544  1.00  0.00     0.049 C 
ENDBRANCH   5  11
BRANCH   1  18
HETATM   18  C3  UNL     1      20.095  -0.250  53.315  1.00  0.00     0.113 C 
HETATM   19  C2  UNL     1      18.857  -0.480  52.857  1.00  0.00    -0.012 C 
HETATM   20  C1  UNL     1      17.783  -1.522  53.038  1.00  0.00     0.037 C 
ENDBRANCH   1  18
TORSDOF 2
ENDMDL
