MODEL 1
REMARK VINA RESULT:      -8.2      0.000      0.000
REMARK  8 active torsions:
REMARK  status: ('A' for Active; 'I' for Inactive)
REMARK    1  A    between atoms: N1_1  and  C1_2 
REMARK    2  A    between atoms: C1_2  and  C2_3 
REMARK    3  A    between atoms: C2_3  and  C3_4 
REMARK    4  A    between atoms: C3_4  and  N2_5 
REMARK    5  A    between atoms: C7_9  and  C8_10 
REMARK    6  A    between atoms: C11_14  and  N4_15 
REMARK    7  A    between atoms: N4_15  and  C12_16 
REMARK    8  A    between atoms: C16_20  and  O1_21 
ROOT
HETATM    1  C8  UNL     1      23.865   1.528  52.027  1.00  0.00     0.088 A 
HETATM    2  C9  UNL     1      22.937   0.501  52.248  1.00  0.00     0.053 A 
HETATM    3  C10 UNL     1      23.237  -0.394  53.273  1.00  0.00     0.139 A 
HETATM    4  N3  UNL     1      24.367  -0.279  54.016  1.00  0.00    -0.075 NA
HETATM    5  C11 UNL     1      25.247   0.735  53.771  1.00  0.00     0.727 A 
HETATM    6  N5  UNL     1      24.963   1.610  52.776  1.00  0.00    -0.062 NA
ENDROOT
BRANCH   1   7
HETATM    7  C7  UNL     1      23.567   2.479  50.971  1.00  0.00     0.002 A 
HETATM    8  C6  UNL     1      23.410   3.755  51.249  1.00  0.00    -0.018 A 
HETATM    9  C5  UNL     1      23.380   4.868  52.200  1.00  0.00     0.027 C 
HETATM   10  C20 UNL     1      23.100   4.581  50.020  1.00  0.00     0.141 A 
HETATM   11  C4  UNL     1      23.779   5.941  51.485  1.00  0.00     0.087 C 
HETATM   12  N2  UNL     1      24.073   5.627  50.107  1.00  0.00    -0.378 N 
HETATM   13  C19 UNL     1      23.154   3.606  48.966  1.00  0.00     0.004 A 
HETATM   14  C18 UNL     1      23.407   2.416  49.507  1.00  0.00     0.013 A 
BRANCH  12  15
HETATM   15  C3  UNL     1      24.835   5.881  48.936  1.00  0.00     0.125 C 
BRANCH  15  16
HETATM   16  C2  UNL     1      26.312   5.722  49.020  1.00  0.00     0.049 C 
BRANCH  16  17
HETATM   17  C1  UNL     1      26.805   4.312  49.097  1.00  0.00     0.268 C 
BRANCH  17  18
HETATM   18  N1  UNL     1      26.858   3.866  50.495  1.00  0.00     0.078 N 
HETATM   19  H1  UNL     1      26.269   4.512  51.056  1.00  0.00     0.312 HD
HETATM   20  H2  UNL     1      26.437   2.931  50.526  1.00  0.00     0.312 HD
ENDBRANCH  17  18
ENDBRANCH  16  17
ENDBRANCH  15  16
ENDBRANCH  12  15
ENDBRANCH   1   7
BRANCH   5  21
HETATM   21  N4  UNL     1      26.470   1.012  54.443  1.00  0.00    -0.188 N 
HETATM   22  H13 UNL     1      26.665   1.709  55.193  1.00  0.00     0.184 HD
BRANCH  21  23
HETATM   23  C12 UNL     1      27.592   0.235  54.044  1.00  0.00     0.052 A 
HETATM   24  C13 UNL     1      28.901   0.702  54.028  1.00  0.00     0.030 A 
HETATM   25  C14 UNL     1      29.985  -0.037  53.639  1.00  0.00     0.005 A 
HETATM   26  C15 UNL     1      29.801  -1.342  53.228  1.00  0.00     0.036 A 
HETATM   27  C16 UNL     1      28.534  -1.889  53.213  1.00  0.00     0.067 A 
HETATM   28  C17 UNL     1      27.491  -1.086  53.617  1.00  0.00     0.066 A 
BRANCH  27  29
HETATM   29  O1  UNL     1      28.250  -3.207  52.809  1.00  0.00    -0.361 OA
HETATM   30  H17 UNL     1      28.063  -3.862  53.579  1.00  0.00     0.217 HD
ENDBRANCH  27  29
ENDBRANCH  21  23
ENDBRANCH   5  21
TORSDOF 8
ENDMDL
MODEL 2
REMARK VINA RESULT:      -8.1      2.934      6.668
REMARK  8 active torsions:
REMARK  status: ('A' for Active; 'I' for Inactive)
REMARK    1  A    between atoms: N1_1  and  C1_2 
REMARK    2  A    between atoms: C1_2  and  C2_3 
REMARK    3  A    between atoms: C2_3  and  C3_4 
REMARK    4  A    between atoms: C3_4  and  N2_5 
REMARK    5  A    between atoms: C7_9  and  C8_10 
REMARK    6  A    between atoms: C11_14  and  N4_15 
REMARK    7  A    between atoms: N4_15  and  C12_16 
REMARK    8  A    between atoms: C16_20  and  O1_21 
ROOT
HETATM    1  C8  UNL     1      22.655   1.938  52.622  1.00  0.00     0.088 A 
HETATM    2  C9  UNL     1      21.362   1.400  52.670  1.00  0.00     0.053 A 
HETATM    3  C10 UNL     1      20.311   2.300  52.514  1.00  0.00     0.139 A 
HETATM    4  N3  UNL     1      20.526   3.627  52.328  1.00  0.00    -0.075 NA
HETATM    5  C11 UNL     1      21.801   4.115  52.287  1.00  0.00     0.727 A 
HETATM    6  N5  UNL     1      22.829   3.245  52.438  1.00  0.00    -0.062 NA
ENDROOT
BRANCH   1   7
HETATM    7  C7  UNL     1      23.767   1.015  52.772  1.00  0.00     0.002 A 
HETATM    8  C6  UNL     1      24.957   1.327  52.309  1.00  0.00    -0.018 A 
HETATM    9  C5  UNL     1      25.871   2.251  51.633  1.00  0.00     0.027 C 
HETATM   10  C20 UNL     1      25.978   0.238  52.554  1.00  0.00     0.141 A 
HETATM   11  C4  UNL     1      27.079   1.999  52.179  1.00  0.00     0.087 C 
HETATM   12  N2  UNL     1      27.044   0.959  53.179  1.00  0.00    -0.378 N 
HETATM   13  C19 UNL     1      25.221  -0.741  53.283  1.00  0.00     0.004 A 
HETATM   14  C18 UNL     1      23.967  -0.305  53.395  1.00  0.00     0.013 A 
BRANCH  12  15
HETATM   15  C3  UNL     1      27.555   0.414  54.387  1.00  0.00     0.125 C 
BRANCH  15  16
HETATM   16  C2  UNL     1      28.998   0.055  54.432  1.00  0.00     0.049 C 
BRANCH  16  17
HETATM   17  C1  UNL     1      29.464  -0.879  53.361  1.00  0.00     0.268 C 
BRANCH  17  18
HETATM   18  N1  UNL     1      28.745  -2.156  53.449  1.00  0.00     0.078 N 
HETATM   19  H1  UNL     1      27.749  -1.975  53.215  1.00  0.00     0.312 HD
HETATM   20  H2  UNL     1      29.142  -2.773  52.732  1.00  0.00     0.312 HD
ENDBRANCH  17  18
ENDBRANCH  16  17
ENDBRANCH  15  16
ENDBRANCH  12  15
ENDBRANCH   1   7
BRANCH   5  21
HETATM   21  N4  UNL     1      22.215   5.462  52.100  1.00  0.00    -0.188 N 
HETATM   22  H13 UNL     1      21.891   6.324  52.589  1.00  0.00     0.184 HD
BRANCH  21  23
HETATM   23  C12 UNL     1      23.213   5.678  51.110  1.00  0.00     0.052 A 
HETATM   24  C13 UNL     1      23.206   5.088  49.852  1.00  0.00     0.030 A 
HETATM   25  C14 UNL     1      24.167   5.285  48.897  1.00  0.00     0.005 A 
HETATM   26  C15 UNL     1      25.230   6.122  49.169  1.00  0.00     0.036 A 
HETATM   27  C16 UNL     1      25.316   6.751  50.394  1.00  0.00     0.067 A 
HETATM   28  C17 UNL     1      24.314   6.506  51.306  1.00  0.00     0.066 A 
BRANCH  27  29
HETATM   29  O1  UNL     1      26.362   7.619  50.761  1.00  0.00    -0.361 OA
HETATM   30  H17 UNL     1      27.137   7.170  51.267  1.00  0.00     0.217 HD
ENDBRANCH  27  29
ENDBRANCH  21  23
ENDBRANCH   5  21
TORSDOF 8
ENDMDL
MODEL 3
REMARK VINA RESULT:      -8.1      1.951      2.561
REMARK  8 active torsions:
REMARK  status: ('A' for Active; 'I' for Inactive)
REMARK    1  A    between atoms: N1_1  and  C1_2 
REMARK    2  A    between atoms: C1_2  and  C2_3 
REMARK    3  A    between atoms: C2_3  and  C3_4 
REMARK    4  A    between atoms: C3_4  and  N2_5 
REMARK    5  A    between atoms: C7_9  and  C8_10 
REMARK    6  A    between atoms: C11_14  and  N4_15 
REMARK    7  A    between atoms: N4_15  and  C12_16 
REMARK    8  A    between atoms: C16_20  and  O1_21 
ROOT
HETATM    1  C8  UNL     1      25.322   2.750  51.308  1.00  0.00     0.088 A 
HETATM    2  C9  UNL     1      24.069   2.146  51.136  1.00  0.00     0.053 A 
HETATM    3  C10 UNL     1      23.704   1.195  52.086  1.00  0.00     0.139 A 
HETATM    4  N3  UNL     1      24.517   0.870  53.123  1.00  0.00    -0.075 NA
HETATM    5  C11 UNL     1      25.732   1.480  53.258  1.00  0.00     0.727 A 
HETATM    6  N5  UNL     1      26.094   2.406  52.338  1.00  0.00    -0.062 NA
ENDROOT
BRANCH   1   7
HETATM    7  C7  UNL     1      25.718   3.752  50.335  1.00  0.00     0.002 A 
HETATM    8  C6  UNL     1      24.981   4.825  50.146  1.00  0.00    -0.018 A 
HETATM    9  C5  UNL     1      23.810   5.649  50.453  1.00  0.00     0.027 C 
HETATM   10  C20 UNL     1      25.555   5.744  49.090  1.00  0.00     0.141 A 
HETATM   11  C4  UNL     1      24.211   6.916  50.219  1.00  0.00     0.087 C 
HETATM   12  N2  UNL     1      25.579   7.004  49.768  1.00  0.00    -0.378 N 
HETATM   13  C19 UNL     1      26.774   5.077  48.725  1.00  0.00     0.004 A 
HETATM   14  C18 UNL     1      26.859   3.945  49.422  1.00  0.00     0.013 A 
BRANCH  12  15
HETATM   15  C3  UNL     1      26.803   7.724  49.722  1.00  0.00     0.125 C 
BRANCH  15  16
HETATM   16  C2  UNL     1      26.767   9.176  50.043  1.00  0.00     0.049 C 
BRANCH  16  17
HETATM   17  C1  UNL     1      27.917   9.979  49.524  1.00  0.00     0.268 C 
BRANCH  17  18
HETATM   18  N1  UNL     1      29.186   9.425  50.010  1.00  0.00     0.078 N 
HETATM   19  H1  UNL     1      29.898   9.564  49.266  1.00  0.00     0.312 HD
HETATM   20  H2  UNL     1      29.459   9.978  50.830  1.00  0.00     0.312 HD
ENDBRANCH  17  18
ENDBRANCH  16  17
ENDBRANCH  15  16
ENDBRANCH  12  15
ENDBRANCH   1   7
BRANCH   5  21
HETATM   21  N4  UNL     1      26.706   1.271  54.272  1.00  0.00    -0.188 N 
HETATM   22  H13 UNL     1      26.756   1.677  55.231  1.00  0.00     0.184 HD
BRANCH  21  23
HETATM   23  C12 UNL     1      27.768   0.382  53.945  1.00  0.00     0.052 A 
HETATM   24  C13 UNL     1      29.114   0.725  53.983  1.00  0.00     0.030 A 
HETATM   25  C14 UNL     1      30.140  -0.122  53.663  1.00  0.00     0.005 A 
HETATM   26  C15 UNL     1      29.853  -1.414  53.271  1.00  0.00     0.036 A 
HETATM   27  C16 UNL     1      28.543  -1.840  53.205  1.00  0.00     0.067 A 
HETATM   28  C17 UNL     1      27.563  -0.933  53.541  1.00  0.00     0.066 A 
BRANCH  27  29
HETATM   29  O1  UNL     1      28.155  -3.136  52.816  1.00  0.00    -0.361 OA
HETATM   30  H17 UNL     1      28.608  -3.897  53.338  1.00  0.00     0.217 HD
ENDBRANCH  27  29
ENDBRANCH  21  23
ENDBRANCH   5  21
TORSDOF 8
ENDMDL
MODEL 4
REMARK VINA RESULT:      -7.9      2.909      5.247
REMARK  8 active torsions:
REMARK  status: ('A' for Active; 'I' for Inactive)
REMARK    1  A    between atoms: N1_1  and  C1_2 
REMARK    2  A    between atoms: C1_2  and  C2_3 
REMARK    3  A    between atoms: C2_3  and  C3_4 
REMARK    4  A    between atoms: C3_4  and  N2_5 
REMARK    5  A    between atoms: C7_9  and  C8_10 
REMARK    6  A    between atoms: C11_14  and  N4_15 
REMARK    7  A    between atoms: N4_15  and  C12_16 
REMARK    8  A    between atoms: C16_20  and  O1_21 
ROOT
HETATM    1  C8  UNL     1      24.020   1.623  52.508  1.00  0.00     0.088 A 
HETATM    2  C9  UNL     1      24.072   2.202  51.234  1.00  0.00     0.053 A 
HETATM    3  C10 UNL     1      25.317   2.667  50.815  1.00  0.00     0.139 A 
HETATM    4  N3  UNL     1      26.420   2.565  51.600  1.00  0.00    -0.075 NA
HETATM    5  C11 UNL     1      26.329   1.994  52.837  1.00  0.00     0.727 A 
HETATM    6  N5  UNL     1      25.122   1.539  53.251  1.00  0.00    -0.062 NA
ENDROOT
BRANCH   1   7
HETATM    7  C7  UNL     1      22.734   1.121  52.960  1.00  0.00     0.002 A 
HETATM    8  C6  UNL     1      21.640   1.827  52.771  1.00  0.00    -0.018 A 
HETATM    9  C5  UNL     1      20.951   3.018  52.269  1.00  0.00     0.027 C 
HETATM   10  C20 UNL     1      20.407   1.142  53.316  1.00  0.00     0.141 A 
HETATM   11  C4  UNL     1      19.715   2.585  51.940  1.00  0.00     0.087 C 
HETATM   12  N2  UNL     1      19.521   1.177  52.193  1.00  0.00    -0.378 N 
HETATM   13  C19 UNL     1      20.931  -0.102  53.805  1.00  0.00     0.004 A 
HETATM   14  C18 UNL     1      22.249  -0.108  53.613  1.00  0.00     0.013 A 
BRANCH  12  15
HETATM   15  C3  UNL     1      18.901  -0.050  51.837  1.00  0.00     0.125 C 
BRANCH  15  16
HETATM   16  C2  UNL     1      17.424  -0.150  51.983  1.00  0.00     0.049 C 
BRANCH  16  17
HETATM   17  C1  UNL     1      16.927  -1.383  52.670  1.00  0.00     0.268 C 
BRANCH  17  18
HETATM   18  N1  UNL     1      17.699  -1.631  53.894  1.00  0.00     0.078 N 
HETATM   19  H1  UNL     1      17.768  -0.733  54.412  1.00  0.00     0.312 HD
HETATM   20  H2  UNL     1      17.157  -2.293  54.460  1.00  0.00     0.312 HD
ENDBRANCH  17  18
ENDBRANCH  16  17
ENDBRANCH  15  16
ENDBRANCH  12  15
ENDBRANCH   1   7
BRANCH   5  21
HETATM   21  N4  UNL     1      27.369   1.801  53.788  1.00  0.00    -0.188 N 
HETATM   22  H13 UNL     1      27.659   2.415  54.579  1.00  0.00     0.184 HD
BRANCH  21  23
HETATM   23  C12 UNL     1      28.127   0.606  53.652  1.00  0.00     0.052 A 
HETATM   24  C13 UNL     1      29.493   0.515  53.891  1.00  0.00     0.030 A 
HETATM   25  C14 UNL     1      30.230  -0.630  53.755  1.00  0.00     0.005 A 
HETATM   26  C15 UNL     1      29.605  -1.794  53.354  1.00  0.00     0.036 A 
HETATM   27  C16 UNL     1      28.250  -1.795  53.096  1.00  0.00     0.067 A 
HETATM   28  C17 UNL     1      27.573  -0.606  53.253  1.00  0.00     0.066 A 
BRANCH  27  29
HETATM   29  O1  UNL     1      27.528  -2.930  52.682  1.00  0.00    -0.361 OA
HETATM   30  H17 UNL     1      28.077  -3.799  52.641  1.00  0.00     0.217 HD
ENDBRANCH  27  29
ENDBRANCH  21  23
ENDBRANCH   5  21
TORSDOF 8
ENDMDL
MODEL 5
REMARK VINA RESULT:      -7.9      2.637      4.820
REMARK  8 active torsions:
REMARK  status: ('A' for Active; 'I' for Inactive)
REMARK    1  A    between atoms: N1_1  and  C1_2 
REMARK    2  A    between atoms: C1_2  and  C2_3 
REMARK    3  A    between atoms: C2_3  and  C3_4 
REMARK    4  A    between atoms: C3_4  and  N2_5 
REMARK    5  A    between atoms: C7_9  and  C8_10 
REMARK    6  A    between atoms: C11_14  and  N4_15 
REMARK    7  A    between atoms: N4_15  and  C12_16 
REMARK    8  A    between atoms: C16_20  and  O1_21 
ROOT
HETATM    1  C8  UNL     1      24.349   2.791  51.533  1.00  0.00     0.088 A 
HETATM    2  C9  UNL     1      25.091   3.223  50.426  1.00  0.00     0.053 A 
HETATM    3  C10 UNL     1      26.465   2.999  50.477  1.00  0.00     0.139 A 
HETATM    4  N3  UNL     1      27.054   2.397  51.541  1.00  0.00    -0.075 NA
HETATM    5  C11 UNL     1      26.297   1.989  52.602  1.00  0.00     0.727 A 
HETATM    6  N5  UNL     1      24.959   2.203  52.561  1.00  0.00    -0.062 NA
ENDROOT
BRANCH   1   7
HETATM    7  C7  UNL     1      22.912   3.005  51.497  1.00  0.00     0.002 A 
HETATM    8  C6  UNL     1      22.173   2.405  50.589  1.00  0.00    -0.018 A 
HETATM    9  C5  UNL     1      22.025   1.508  49.441  1.00  0.00     0.027 C 
HETATM   10  C20 UNL     1      20.707   2.758  50.710  1.00  0.00     0.141 A 
HETATM   11  C4  UNL     1      20.790   0.981  49.575  1.00  0.00     0.087 C 
HETATM   12  N2  UNL     1      20.088   1.469  50.738  1.00  0.00    -0.378 N 
HETATM   13  C19 UNL     1      20.687   3.613  51.864  1.00  0.00     0.004 A 
HETATM   14  C18 UNL     1      21.936   3.761  52.301  1.00  0.00     0.013 A 
BRANCH  12  15
HETATM   15  C3  UNL     1      19.155   1.236  51.784  1.00  0.00     0.125 C 
BRANCH  15  16
HETATM   16  C2  UNL     1      19.188  -0.087  52.463  1.00  0.00     0.049 C 
BRANCH  16  17
HETATM   17  C1  UNL     1      17.872  -0.792  52.563  1.00  0.00     0.268 C 
BRANCH  17  18
HETATM   18  N1  UNL     1      17.778  -1.517  53.836  1.00  0.00     0.078 N 
HETATM   19  H1  UNL     1      16.902  -1.217  54.307  1.00  0.00     0.312 HD
HETATM   20  H2  UNL     1      17.702  -2.514  53.608  1.00  0.00     0.312 HD
ENDBRANCH  17  18
ENDBRANCH  16  17
ENDBRANCH  15  16
ENDBRANCH  12  15
ENDBRANCH   1   7
BRANCH   5  21
HETATM   21  N4  UNL     1      26.735   1.345  53.792  1.00  0.00    -0.188 N 
HETATM   22  H13 UNL     1      26.394   1.466  54.770  1.00  0.00     0.184 HD
BRANCH  21  23
HETATM   23  C12 UNL     1      27.785   0.398  53.640  1.00  0.00     0.052 A 
HETATM   24  C13 UNL     1      29.134   0.694  53.797  1.00  0.00     0.030 A 
HETATM   25  C14 UNL     1      30.150  -0.210  53.644  1.00  0.00     0.005 A 
HETATM   26  C15 UNL     1      29.849  -1.515  53.311  1.00  0.00     0.036 A 
HETATM   27  C16 UNL     1      28.536  -1.898  53.136  1.00  0.00     0.067 A 
HETATM   28  C17 UNL     1      27.566  -0.935  53.306  1.00  0.00     0.066 A 
BRANCH  27  29
HETATM   29  O1  UNL     1      28.134  -3.204  52.796  1.00  0.00    -0.361 OA
HETATM   30  H17 UNL     1      28.050  -3.379  51.786  1.00  0.00     0.217 HD
ENDBRANCH  27  29
ENDBRANCH  21  23
ENDBRANCH   5  21
TORSDOF 8
ENDMDL
MODEL 6
REMARK VINA RESULT:      -7.8      1.895      2.482
REMARK  8 active torsions:
REMARK  status: ('A' for Active; 'I' for Inactive)
REMARK    1  A    between atoms: N1_1  and  C1_2 
REMARK    2  A    between atoms: C1_2  and  C2_3 
REMARK    3  A    between atoms: C2_3  and  C3_4 
REMARK    4  A    between atoms: C3_4  and  N2_5 
REMARK    5  A    between atoms: C7_9  and  C8_10 
REMARK    6  A    between atoms: C11_14  and  N4_15 
REMARK    7  A    between atoms: N4_15  and  C12_16 
REMARK    8  A    between atoms: C16_20  and  O1_21 
ROOT
HETATM    1  C8  UNL     1      22.166   0.378  52.680  1.00  0.00     0.088 A 
HETATM    2  C9  UNL     1      20.908  -0.196  52.901  1.00  0.00     0.053 A 
HETATM    3  C10 UNL     1      20.811  -1.081  53.973  1.00  0.00     0.139 A 
HETATM    4  N3  UNL     1      21.878  -1.373  54.760  1.00  0.00    -0.075 NA
HETATM    5  C11 UNL     1      23.089  -0.793  54.513  1.00  0.00     0.727 A 
HETATM    6  N5  UNL     1      23.192   0.069  53.472  1.00  0.00    -0.062 NA
ENDROOT
BRANCH   1   7
HETATM    7  C7  UNL     1      22.288   1.312  51.574  1.00  0.00     0.002 A 
HETATM    8  C6  UNL     1      22.600   2.569  51.796  1.00  0.00    -0.018 A 
HETATM    9  C5  UNL     1      22.940   3.667  52.704  1.00  0.00     0.027 C 
HETATM   10  C20 UNL     1      22.671   3.382  50.523  1.00  0.00     0.141 A 
HETATM   11  C4  UNL     1      23.738   4.478  51.977  1.00  0.00     0.087 C 
HETATM   12  N2  UNL     1      23.956   4.002  50.632  1.00  0.00    -0.378 N 
HETATM   13  C19 UNL     1      22.409   2.399  49.509  1.00  0.00     0.004 A 
HETATM   14  C18 UNL     1      22.181   1.230  50.107  1.00  0.00     0.013 A 
BRANCH  12  15
HETATM   15  C3  UNL     1      24.810   3.894  49.502  1.00  0.00     0.125 C 
BRANCH  15  16
HETATM   16  C2  UNL     1      26.112   3.197  49.680  1.00  0.00     0.049 C 
BRANCH  16  17
HETATM   17  C1  UNL     1      26.214   2.317  50.885  1.00  0.00     0.268 C 
BRANCH  17  18
HETATM   18  N1  UNL     1      27.029   2.963  51.921  1.00  0.00     0.078 N 
HETATM   19  H1  UNL     1      27.053   3.981  51.716  1.00  0.00     0.312 HD
HETATM   20  H2  UNL     1      26.546   2.821  52.814  1.00  0.00     0.312 HD
ENDBRANCH  17  18
ENDBRANCH  16  17
ENDBRANCH  15  16
ENDBRANCH  12  15
ENDBRANCH   1   7
BRANCH   5  21
HETATM   21  N4  UNL     1      24.306  -0.974  55.226  1.00  0.00    -0.188 N 
HETATM   22  H13 UNL     1      24.452  -1.271  56.215  1.00  0.00     0.184 HD
BRANCH  21  23
HETATM   23  C12 UNL     1      25.501  -0.721  54.498  1.00  0.00     0.052 A 
HETATM   24  C13 UNL     1      25.766  -1.224  53.230  1.00  0.00     0.030 A 
HETATM   25  C14 UNL     1      26.917  -0.991  52.527  1.00  0.00     0.005 A 
HETATM   26  C15 UNL     1      27.903  -0.204  53.086  1.00  0.00     0.036 A 
HETATM   27  C16 UNL     1      27.724   0.338  54.342  1.00  0.00     0.067 A 
HETATM   28  C17 UNL     1      26.542   0.061  54.991  1.00  0.00     0.066 A 
BRANCH  27  29
HETATM   29  O1  UNL     1      28.673   1.150  54.992  1.00  0.00    -0.361 OA
HETATM   30  H17 UNL     1      29.641   1.026  54.668  1.00  0.00     0.217 HD
ENDBRANCH  27  29
ENDBRANCH  21  23
ENDBRANCH   5  21
TORSDOF 8
ENDMDL
MODEL 7
REMARK VINA RESULT:      -7.7      1.927      2.228
REMARK  8 active torsions:
REMARK  status: ('A' for Active; 'I' for Inactive)
REMARK    1  A    between atoms: N1_1  and  C1_2 
REMARK    2  A    between atoms: C1_2  and  C2_3 
REMARK    3  A    between atoms: C2_3  and  C3_4 
REMARK    4  A    between atoms: C3_4  and  N2_5 
REMARK    5  A    between atoms: C7_9  and  C8_10 
REMARK    6  A    between atoms: C11_14  and  N4_15 
REMARK    7  A    between atoms: N4_15  and  C12_16 
REMARK    8  A    between atoms: C16_20  and  O1_21 
ROOT
HETATM    1  C8  UNL     1      23.174   0.653  52.814  1.00  0.00     0.088 A 
HETATM    2  C9  UNL     1      22.094   0.246  53.607  1.00  0.00     0.053 A 
HETATM    3  C10 UNL     1      22.385  -0.640  54.642  1.00  0.00     0.139 A 
HETATM    4  N3  UNL     1      23.646  -1.086  54.870  1.00  0.00    -0.075 NA
HETATM    5  C11 UNL     1      24.674  -0.666  54.075  1.00  0.00     0.727 A 
HETATM    6  N5  UNL     1      24.400   0.195  53.066  1.00  0.00    -0.062 NA
ENDROOT
BRANCH   1   7
HETATM    7  C7  UNL     1      22.896   1.585  51.735  1.00  0.00     0.002 A 
HETATM    8  C6  UNL     1      23.046   2.879  51.918  1.00  0.00    -0.018 A 
HETATM    9  C5  UNL     1      23.402   4.024  52.758  1.00  0.00     0.027 C 
HETATM   10  C20 UNL     1      22.701   3.682  50.683  1.00  0.00     0.141 A 
HETATM   11  C4  UNL     1      23.878   4.947  51.895  1.00  0.00     0.087 C 
HETATM   12  N2  UNL     1      23.863   4.502  50.522  1.00  0.00    -0.378 N 
HETATM   13  C19 UNL     1      22.379   2.661  49.726  1.00  0.00     0.004 A 
HETATM   14  C18 UNL     1      22.478   1.476  50.326  1.00  0.00     0.013 A 
BRANCH  12  15
HETATM   15  C3  UNL     1      24.449   4.523  49.229  1.00  0.00     0.125 C 
BRANCH  15  16
HETATM   16  C2  UNL     1      25.902   4.825  49.129  1.00  0.00     0.049 C 
BRANCH  16  17
HETATM   17  C1  UNL     1      26.244   6.233  48.756  1.00  0.00     0.268 C 
BRANCH  17  18
HETATM   18  N1  UNL     1      26.509   7.029  49.960  1.00  0.00     0.078 N 
HETATM   19  H1  UNL     1      25.952   7.903  49.890  1.00  0.00     0.312 HD
HETATM   20  H2  UNL     1      26.165   6.486  50.759  1.00  0.00     0.312 HD
ENDBRANCH  17  18
ENDBRANCH  16  17
ENDBRANCH  15  16
ENDBRANCH  12  15
ENDBRANCH   1   7
BRANCH   5  21
HETATM   21  N4  UNL     1      26.049  -1.022  54.164  1.00  0.00    -0.188 N 
HETATM   22  H13 UNL     1      26.477  -1.957  54.333  1.00  0.00     0.184 HD
BRANCH  21  23
HETATM   23  C12 UNL     1      26.981   0.039  53.999  1.00  0.00     0.052 A 
HETATM   24  C13 UNL     1      28.100   0.227  54.801  1.00  0.00     0.030 A 
HETATM   25  C14 UNL     1      28.997   1.250  54.653  1.00  0.00     0.005 A 
HETATM   26  C15 UNL     1      28.808   2.177  53.648  1.00  0.00     0.036 A 
HETATM   27  C16 UNL     1      27.722   2.067  52.804  1.00  0.00     0.067 A 
HETATM   28  C17 UNL     1      26.861   1.012  53.012  1.00  0.00     0.066 A 
BRANCH  27  29
HETATM   29  O1  UNL     1      27.446   2.963  51.754  1.00  0.00    -0.361 OA
HETATM   30  H17 UNL     1      27.200   2.517  50.861  1.00  0.00     0.217 HD
ENDBRANCH  27  29
ENDBRANCH  21  23
ENDBRANCH   5  21
TORSDOF 8
ENDMDL
MODEL 8
REMARK VINA RESULT:      -7.6      2.320      4.064
REMARK  8 active torsions:
REMARK  status: ('A' for Active; 'I' for Inactive)
REMARK    1  A    between atoms: N1_1  and  C1_2 
REMARK    2  A    between atoms: C1_2  and  C2_3 
REMARK    3  A    between atoms: C2_3  and  C3_4 
REMARK    4  A    between atoms: C3_4  and  N2_5 
REMARK    5  A    between atoms: C7_9  and  C8_10 
REMARK    6  A    between atoms: C11_14  and  N4_15 
REMARK    7  A    between atoms: N4_15  and  C12_16 
REMARK    8  A    between atoms: C16_20  and  O1_21 
ROOT
HETATM    1  C8  UNL     1      24.182   1.906  51.175  1.00  0.00     0.088 A 
HETATM    2  C9  UNL     1      24.838   2.828  50.350  1.00  0.00     0.053 A 
HETATM    3  C10 UNL     1      26.132   3.183  50.725  1.00  0.00     0.139 A 
HETATM    4  N3  UNL     1      26.726   2.664  51.830  1.00  0.00    -0.075 NA
HETATM    5  C11 UNL     1      26.054   1.767  52.610  1.00  0.00     0.727 A 
HETATM    6  N5  UNL     1      24.794   1.416  52.252  1.00  0.00    -0.062 NA
ENDROOT
BRANCH   1   7
HETATM    7  C7  UNL     1      22.835   1.514  50.797  1.00  0.00     0.002 A 
HETATM    8  C6  UNL     1      22.003   1.039  51.698  1.00  0.00    -0.018 A 
HETATM    9  C5  UNL     1      21.683   0.651  53.073  1.00  0.00     0.027 C 
HETATM   10  C20 UNL     1      20.656   0.682  51.110  1.00  0.00     0.141 A 
HETATM   11  C4  UNL     1      20.356   0.867  53.191  1.00  0.00     0.087 C 
HETATM   12  N2  UNL     1      19.754   1.373  51.980  1.00  0.00    -0.378 N 
HETATM   13  C19 UNL     1      20.801   1.072  49.736  1.00  0.00     0.004 A 
HETATM   14  C18 UNL     1      22.039   1.532  49.558  1.00  0.00     0.013 A 
BRANCH  12  15
HETATM   15  C3  UNL     1      18.765   2.179  51.357  1.00  0.00     0.125 C 
BRANCH  15  16
HETATM   16  C2  UNL     1      18.815   3.647  51.593  1.00  0.00     0.049 C 
BRANCH  16  17
HETATM   17  C1  UNL     1      19.570   4.439  50.573  1.00  0.00     0.268 C 
BRANCH  17  18
HETATM   18  N1  UNL     1      20.925   4.733  51.057  1.00  0.00     0.078 N 
HETATM   19  H1  UNL     1      21.583   4.579  50.269  1.00  0.00     0.312 HD
HETATM   20  H2  UNL     1      20.943   5.728  51.308  1.00  0.00     0.312 HD
ENDBRANCH  17  18
ENDBRANCH  16  17
ENDBRANCH  15  16
ENDBRANCH  12  15
ENDBRANCH   1   7
BRANCH   5  21
HETATM   21  N4  UNL     1      26.512   1.122  53.792  1.00  0.00    -0.188 N 
HETATM   22  H13 UNL     1      26.134   1.181  54.762  1.00  0.00     0.184 HD
BRANCH  21  23
HETATM   23  C12 UNL     1      27.643   0.273  53.643  1.00  0.00     0.052 A 
HETATM   24  C13 UNL     1      28.960   0.694  53.787  1.00  0.00     0.030 A 
HETATM   25  C14 UNL     1      30.053  -0.116  53.638  1.00  0.00     0.005 A 
HETATM   26  C15 UNL     1      29.871  -1.447  53.323  1.00  0.00     0.036 A 
HETATM   27  C16 UNL     1      28.597  -1.950  53.162  1.00  0.00     0.067 A 
HETATM   28  C17 UNL     1      27.545  -1.078  53.327  1.00  0.00     0.066 A 
BRANCH  27  29
HETATM   29  O1  UNL     1      28.315  -3.292  52.841  1.00  0.00    -0.361 OA
HETATM   30  H17 UNL     1      27.628  -3.418  52.085  1.00  0.00     0.217 HD
ENDBRANCH  27  29
ENDBRANCH  21  23
ENDBRANCH   5  21
TORSDOF 8
ENDMDL
MODEL 9
REMARK VINA RESULT:      -7.4      3.587      7.099
REMARK  8 active torsions:
REMARK  status: ('A' for Active; 'I' for Inactive)
REMARK    1  A    between atoms: N1_1  and  C1_2 
REMARK    2  A    between atoms: C1_2  and  C2_3 
REMARK    3  A    between atoms: C2_3  and  C3_4 
REMARK    4  A    between atoms: C3_4  and  N2_5 
REMARK    5  A    between atoms: C7_9  and  C8_10 
REMARK    6  A    between atoms: C11_14  and  N4_15 
REMARK    7  A    between atoms: N4_15  and  C12_16 
REMARK    8  A    between atoms: C16_20  and  O1_21 
ROOT
HETATM    1  C8  UNL     1      24.626   1.531  52.155  1.00  0.00     0.088 A 
HETATM    2  C9  UNL     1      25.812   1.253  52.847  1.00  0.00     0.053 A 
HETATM    3  C10 UNL     1      26.977   1.811  52.326  1.00  0.00     0.139 A 
HETATM    4  N3  UNL     1      26.966   2.581  51.209  1.00  0.00    -0.075 NA
HETATM    5  C11 UNL     1      25.790   2.830  50.561  1.00  0.00     0.727 A 
HETATM    6  N5  UNL     1      24.651   2.291  51.061  1.00  0.00    -0.062 NA
ENDROOT
BRANCH   1   7
HETATM    7  C7  UNL     1      23.397   0.969  52.687  1.00  0.00     0.002 A 
HETATM    8  C6  UNL     1      22.289   1.678  52.695  1.00  0.00    -0.018 A 
HETATM    9  C5  UNL     1      21.549   2.908  52.402  1.00  0.00     0.027 C 
HETATM   10  C20 UNL     1      21.122   0.923  53.293  1.00  0.00     0.141 A 
HETATM   11  C4  UNL     1      20.285   2.499  52.165  1.00  0.00     0.087 C 
HETATM   12  N2  UNL     1      20.119   1.070  52.282  1.00  0.00    -0.378 N 
HETATM   13  C19 UNL     1      21.697  -0.360  53.584  1.00  0.00     0.004 A 
HETATM   14  C18 UNL     1      22.986  -0.329  53.251  1.00  0.00     0.013 A 
BRANCH  12  15
HETATM   15  C3  UNL     1      19.464  -0.119  51.864  1.00  0.00     0.125 C 
BRANCH  15  16
HETATM   16  C2  UNL     1      17.978  -0.151  51.923  1.00  0.00     0.049 C 
BRANCH  16  17
HETATM   17  C1  UNL     1      17.389  -1.265  52.729  1.00  0.00     0.268 C 
BRANCH  17  18
HETATM   18  N1  UNL     1      18.278  -1.613  53.844  1.00  0.00     0.078 N 
HETATM   19  H1  UNL     1      19.224  -1.789  53.453  1.00  0.00     0.312 HD
HETATM   20  H2  UNL     1      18.325  -0.791  54.456  1.00  0.00     0.312 HD
ENDBRANCH  17  18
ENDBRANCH  16  17
ENDBRANCH  15  16
ENDBRANCH  12  15
ENDBRANCH   1   7
BRANCH   5  21
HETATM   21  N4  UNL     1      25.586   3.609  49.389  1.00  0.00    -0.188 N 
HETATM   22  H13 UNL     1      25.328   3.296  48.428  1.00  0.00     0.184 HD
BRANCH  21  23
HETATM   23  C12 UNL     1      25.752   5.013  49.534  1.00  0.00     0.052 A 
HETATM   24  C13 UNL     1      26.693   5.765  48.841  1.00  0.00     0.030 A 
HETATM   25  C14 UNL     1      26.863   7.116  48.982  1.00  0.00     0.005 A 
HETATM   26  C15 UNL     1      26.061   7.811  49.865  1.00  0.00     0.036 A 
HETATM   27  C16 UNL     1      25.100   7.144  50.594  1.00  0.00     0.067 A 
HETATM   28  C17 UNL     1      24.985   5.785  50.402  1.00  0.00     0.066 A 
BRANCH  27  29
HETATM   29  O1  UNL     1      24.238   7.767  51.517  1.00  0.00    -0.361 OA
HETATM   30  H17 UNL     1      23.360   8.120  51.116  1.00  0.00     0.217 HD
ENDBRANCH  27  29
ENDBRANCH  21  23
ENDBRANCH   5  21
TORSDOF 8
ENDMDL
