MODEL 1
REMARK VINA RESULT:      -8.6      0.000      0.000
REMARK  3 active torsions:
REMARK  status: ('A' for Active; 'I' for Inactive)
REMARK    1  A    between atoms: O1_2  and  C2_3 
REMARK    2  A    between atoms: C10_14  and  N3_15 
REMARK    3  A    between atoms: N3_15  and  C11_16 
ROOT
HETATM    1  C2  UNL     1      22.650  -0.597  53.622  1.00  0.00     0.070 A 
HETATM    2  C3  UNL     1      24.015  -0.671  53.743  1.00  0.00     0.037 A 
HETATM    3  C4  UNL     1      24.782   0.418  53.388  1.00  0.00     0.014 A 
HETATM    4  C5  UNL     1      24.255   1.618  52.906  1.00  0.00    -0.006 A 
HETATM    5  C6  UNL     1      22.882   1.654  52.799  1.00  0.00     0.088 A 
HETATM    6  C7  UNL     1      22.080   0.584  53.144  1.00  0.00     0.074 A 
HETATM    7  O2  UNL     1      22.181   2.761  52.339  1.00  0.00    -0.289 OA
HETATM    8  C8  UNL     1      22.651   3.946  51.749  1.00  0.00     0.202 A 
HETATM    9  N1  UNL     1      21.659   4.814  51.484  1.00  0.00    -0.215 NA
HETATM   10  C9  UNL     1      21.989   5.981  50.920  1.00  0.00     0.238 A 
HETATM   11  N2  UNL     1      23.270   6.337  50.601  1.00  0.00    -0.222 NA
HETATM   12  C10 UNL     1      24.299   5.510  50.843  1.00  0.00     0.156 A 
HETATM   13  C16 UNL     1      23.965   4.305  51.424  1.00  0.00     0.128 A 
HETATM   14  N4  UNL     1      25.121   3.517  51.626  1.00  0.00    -0.379 N 
HETATM   15  C17 UNL     1      25.401   2.513  52.650  1.00  0.00     0.161 C 
HETATM   16  H12 UNL     1      25.846   3.733  50.898  1.00  0.00     0.160 HD
ENDROOT
BRANCH  12  17
HETATM   17  N3  UNL     1      25.603   5.912  50.505  1.00  0.00    -0.362 N 
HETATM   18  H8  UNL     1      26.391   6.330  50.994  1.00  0.00     0.162 HD
BRANCH  17  19
HETATM   19  C11 UNL     1      25.950   5.702  49.114  1.00  0.00     0.134 A 
HETATM   20  C12 UNL     1      27.060   4.686  49.015  1.00  0.00     0.046 A 
HETATM   21  C13 UNL     1      28.112   5.187  48.385  1.00  0.00     0.136 A 
HETATM   22  F1  UNL     1      29.375   4.832  47.980  1.00  0.00    -0.205 F 
HETATM   23  C14 UNL     1      27.797   6.565  48.016  1.00  0.00     0.070 A 
HETATM   24 CL1  UNL     1      28.616   7.879  47.189  1.00  0.00    -0.081 Cl
HETATM   25  C15 UNL     1      26.554   6.846  48.440  1.00  0.00     0.029 A 
ENDBRANCH  17  19
ENDBRANCH  12  17
BRANCH   1  26
HETATM   26  O1  UNL     1      21.758  -1.617  53.941  1.00  0.00    -0.356 OA
HETATM   27  C1  UNL     1      20.372  -1.247  53.969  1.00  0.00     0.210 C 
ENDBRANCH   1  26
TORSDOF 3
ENDMDL
MODEL 2
REMARK VINA RESULT:      -8.5      4.756      6.436
REMARK  3 active torsions:
REMARK  status: ('A' for Active; 'I' for Inactive)
REMARK    1  A    between atoms: O1_2  and  C2_3 
REMARK    2  A    between atoms: C10_14  and  N3_15 
REMARK    3  A    between atoms: N3_15  and  C11_16 
ROOT
HETATM    1  C2  UNL     1      17.535   0.533  51.076  1.00  0.00     0.070 A 
HETATM    2  C3  UNL     1      18.250   1.066  50.034  1.00  0.00     0.037 A 
HETATM    3  C4  UNL     1      19.628   1.037  50.076  1.00  0.00     0.014 A 
HETATM    4  C5  UNL     1      20.362   0.489  51.130  1.00  0.00    -0.006 A 
HETATM    5  C6  UNL     1      19.610  -0.036  52.159  1.00  0.00     0.088 A 
HETATM    6  C7  UNL     1      18.230  -0.025  52.152  1.00  0.00     0.074 A 
HETATM    7  O2  UNL     1      20.165  -0.621  53.289  1.00  0.00    -0.289 OA
HETATM    8  C8  UNL     1      21.502  -0.661  53.721  1.00  0.00     0.202 A 
HETATM    9  N1  UNL     1      21.653  -1.375  54.849  1.00  0.00    -0.215 NA
HETATM   10  C9  UNL     1      22.887  -1.484  55.356  1.00  0.00     0.238 A 
HETATM   11  N2  UNL     1      23.993  -0.912  54.792  1.00  0.00    -0.222 NA
HETATM   12  C10 UNL     1      23.901  -0.187  53.665  1.00  0.00     0.156 A 
HETATM   13  C16 UNL     1      22.632  -0.073  53.139  1.00  0.00     0.128 A 
HETATM   14  N4  UNL     1      22.654   0.711  51.963  1.00  0.00    -0.379 N 
HETATM   15  C17 UNL     1      21.788   0.659  50.788  1.00  0.00     0.161 C 
HETATM   16  H12 UNL     1      23.429   1.418  52.007  1.00  0.00     0.160 HD
ENDROOT
BRANCH  12  17
HETATM   17  N3  UNL     1      25.061   0.381  53.113  1.00  0.00    -0.362 N 
HETATM   18  H8  UNL     1      25.380   0.638  52.182  1.00  0.00     0.162 HD
BRANCH  17  19
HETATM   19  C11 UNL     1      26.094   0.689  54.082  1.00  0.00     0.134 A 
HETATM   20  C12 UNL     1      26.614   2.084  53.845  1.00  0.00     0.046 A 
HETATM   21  C13 UNL     1      27.921   2.077  53.627  1.00  0.00     0.136 A 
HETATM   22  F1  UNL     1      28.956   2.938  53.361  1.00  0.00    -0.205 F 
HETATM   23  C14 UNL     1      28.377   0.691  53.698  1.00  0.00     0.070 A 
HETATM   24 CL1  UNL     1      29.908  -0.153  53.530  1.00  0.00    -0.081 Cl
HETATM   25  C15 UNL     1      27.320  -0.093  53.959  1.00  0.00     0.029 A 
ENDBRANCH  17  19
ENDBRANCH  12  17
BRANCH   1  26
HETATM   26  O1  UNL     1      16.147   0.496  51.164  1.00  0.00    -0.356 OA
HETATM   27  C1  UNL     1      15.456   0.104  49.968  1.00  0.00     0.210 C 
ENDBRANCH   1  26
TORSDOF 3
ENDMDL
MODEL 3
REMARK VINA RESULT:      -8.4      4.380      6.125
REMARK  3 active torsions:
REMARK  status: ('A' for Active; 'I' for Inactive)
REMARK    1  A    between atoms: O1_2  and  C2_3 
REMARK    2  A    between atoms: C10_14  and  N3_15 
REMARK    3  A    between atoms: N3_15  and  C11_16 
ROOT
HETATM    1  C2  UNL     1      17.507  -1.028  52.610  1.00  0.00     0.070 A 
HETATM    2  C3  UNL     1      17.981  -2.038  53.408  1.00  0.00     0.037 A 
HETATM    3  C4  UNL     1      19.286  -1.992  53.850  1.00  0.00     0.014 A 
HETATM    4  C5  UNL     1      20.178  -0.965  53.536  1.00  0.00    -0.006 A 
HETATM    5  C6  UNL     1      19.667   0.032  52.734  1.00  0.00     0.088 A 
HETATM    6  C7  UNL     1      18.366   0.020  52.271  1.00  0.00     0.074 A 
HETATM    7  O2  UNL     1      20.404   1.132  52.319  1.00  0.00    -0.289 OA
HETATM    8  C8  UNL     1      21.779   1.397  52.444  1.00  0.00     0.202 A 
HETATM    9  N1  UNL     1      22.112   2.606  51.960  1.00  0.00    -0.215 NA
HETATM   10  C9  UNL     1      23.399   2.968  52.026  1.00  0.00     0.238 A 
HETATM   11  N2  UNL     1      24.384   2.182  52.555  1.00  0.00    -0.222 NA
HETATM   12  C10 UNL     1      24.108   0.965  53.052  1.00  0.00     0.156 A 
HETATM   13  C16 UNL     1      22.784   0.587  52.986  1.00  0.00     0.128 A 
HETATM   14  N4  UNL     1      22.613  -0.706  53.530  1.00  0.00    -0.379 N 
HETATM   15  C17 UNL     1      21.455  -1.293  54.200  1.00  0.00     0.161 C 
HETATM   16  H12 UNL     1      23.482  -1.280  53.397  1.00  0.00     0.160 HD
ENDROOT
BRANCH  12  17
HETATM   17  N3  UNL     1      25.147   0.187  53.591  1.00  0.00    -0.362 N 
HETATM   18  H8  UNL     1      25.342  -0.257  54.485  1.00  0.00     0.162 HD
BRANCH  17  19
HETATM   19  C11 UNL     1      26.242  -0.063  52.675  1.00  0.00     0.134 A 
HETATM   20  C12 UNL     1      26.379  -1.545  52.439  1.00  0.00     0.046 A 
HETATM   21  C13 UNL     1      27.591  -1.971  52.763  1.00  0.00     0.136 A 
HETATM   22  F1  UNL     1      28.337  -3.123  52.794  1.00  0.00    -0.205 F 
HETATM   23  C14 UNL     1      28.356  -0.821  53.240  1.00  0.00     0.070 A 
HETATM   24 CL1  UNL     1      29.981  -0.535  53.840  1.00  0.00    -0.081 Cl
HETATM   25  C15 UNL     1      27.570   0.266  53.184  1.00  0.00     0.029 A 
ENDBRANCH  17  19
ENDBRANCH  12  17
BRANCH   1  26
HETATM   26  O1  UNL     1      16.217  -0.948  52.094  1.00  0.00    -0.356 OA
HETATM   27  C1  UNL     1      15.987   0.110  51.151  1.00  0.00     0.210 C 
ENDBRANCH   1  26
TORSDOF 3
ENDMDL
MODEL 4
REMARK VINA RESULT:      -8.3      4.454      6.442
REMARK  3 active torsions:
REMARK  status: ('A' for Active; 'I' for Inactive)
REMARK    1  A    between atoms: O1_2  and  C2_3 
REMARK    2  A    between atoms: C10_14  and  N3_15 
REMARK    3  A    between atoms: N3_15  and  C11_16 
ROOT
HETATM    1  C2  UNL     1      27.934   0.384  54.233  1.00  0.00     0.070 A 
HETATM    2  C3  UNL     1      27.889   1.620  53.641  1.00  0.00     0.037 A 
HETATM    3  C4  UNL     1      26.670   2.146  53.268  1.00  0.00     0.014 A 
HETATM    4  C5  UNL     1      25.451   1.492  53.457  1.00  0.00    -0.006 A 
HETATM    5  C6  UNL     1      25.535   0.253  54.053  1.00  0.00     0.088 A 
HETATM    6  C7  UNL     1      26.737  -0.306  54.440  1.00  0.00     0.074 A 
HETATM    7  O2  UNL     1      24.429  -0.542  54.320  1.00  0.00    -0.289 OA
HETATM    8  C8  UNL     1      23.090  -0.389  53.924  1.00  0.00     0.202 A 
HETATM    9  N1  UNL     1      22.295  -1.347  54.430  1.00  0.00    -0.215 NA
HETATM   10  C9  UNL     1      20.993  -1.303  54.120  1.00  0.00     0.238 A 
HETATM   11  N2  UNL     1      20.434  -0.343  53.324  1.00  0.00    -0.222 NA
HETATM   12  C10 UNL     1      21.181   0.638  52.791  1.00  0.00     0.156 A 
HETATM   13  C16 UNL     1      22.522   0.597  53.107  1.00  0.00     0.128 A 
HETATM   14  N4  UNL     1      23.208   1.668  52.491  1.00  0.00    -0.379 N 
HETATM   15  C17 UNL     1      24.403   2.387  52.925  1.00  0.00     0.161 C 
HETATM   16  H12 UNL     1      22.738   1.937  51.591  1.00  0.00     0.160 HD
ENDROOT
BRANCH  12  17
HETATM   17  N3  UNL     1      20.569   1.610  51.981  1.00  0.00    -0.362 N 
HETATM   18  H8  UNL     1      20.336   2.596  52.068  1.00  0.00     0.162 HD
BRANCH  17  19
HETATM   19  C11 UNL     1      20.141   1.122  50.685  1.00  0.00     0.134 A 
HETATM   20  C12 UNL     1      21.329   0.593  49.923  1.00  0.00     0.046 A 
HETATM   21  C13 UNL     1      21.470   1.218  48.763  1.00  0.00     0.136 A 
HETATM   22  F1  UNL     1      22.284   1.232  47.658  1.00  0.00    -0.205 F 
HETATM   23  C14 UNL     1      20.401   2.208  48.657  1.00  0.00     0.070 A 
HETATM   24 CL1  UNL     1      19.890   3.407  47.480  1.00  0.00    -0.081 Cl
HETATM   25  C15 UNL     1      19.646   2.142  49.765  1.00  0.00     0.029 A 
ENDBRANCH  17  19
ENDBRANCH  12  17
BRANCH   1  26
HETATM   26  O1  UNL     1      29.089  -0.264  54.657  1.00  0.00    -0.356 OA
HETATM   27  C1  UNL     1      29.856  -0.910  53.630  1.00  0.00     0.210 C 
ENDBRANCH   1  26
TORSDOF 3
ENDMDL
MODEL 5
REMARK VINA RESULT:      -8.2      3.775      7.296
REMARK  3 active torsions:
REMARK  status: ('A' for Active; 'I' for Inactive)
REMARK    1  A    between atoms: O1_2  and  C2_3 
REMARK    2  A    between atoms: C10_14  and  N3_15 
REMARK    3  A    between atoms: N3_15  and  C11_16 
ROOT
HETATM    1  C2  UNL     1      25.881   7.510  48.844  1.00  0.00     0.070 A 
HETATM    2  C3  UNL     1      26.949   6.845  48.297  1.00  0.00     0.037 A 
HETATM    3  C4  UNL     1      27.127   5.508  48.580  1.00  0.00     0.014 A 
HETATM    4  C5  UNL     1      26.276   4.767  49.402  1.00  0.00    -0.006 A 
HETATM    5  C6  UNL     1      25.216   5.467  49.934  1.00  0.00     0.088 A 
HETATM    6  C7  UNL     1      25.004   6.807  49.673  1.00  0.00     0.074 A 
HETATM    7  O2  UNL     1      24.267   4.898  50.772  1.00  0.00    -0.289 OA
HETATM    8  C8  UNL     1      24.246   3.633  51.385  1.00  0.00     0.202 A 
HETATM    9  N1  UNL     1      23.121   3.425  52.090  1.00  0.00    -0.215 NA
HETATM   10  C9  UNL     1      22.989   2.251  52.718  1.00  0.00     0.238 A 
HETATM   11  N2  UNL     1      23.930   1.260  52.682  1.00  0.00    -0.222 NA
HETATM   12  C10 UNL     1      25.073   1.413  51.994  1.00  0.00     0.156 A 
HETATM   13  C16 UNL     1      25.214   2.621  51.345  1.00  0.00     0.128 A 
HETATM   14  N4  UNL     1      26.450   2.673  50.661  1.00  0.00    -0.379 N 
HETATM   15  C17 UNL     1      26.815   3.393  49.443  1.00  0.00     0.161 C 
HETATM   16  H12 UNL     1      27.169   2.089  51.156  1.00  0.00     0.160 HD
ENDROOT
BRANCH  12  17
HETATM   17  N3  UNL     1      26.014   0.370  51.976  1.00  0.00    -0.362 N 
HETATM   18  H8  UNL     1      26.422  -0.238  51.270  1.00  0.00     0.162 HD
BRANCH  17  19
HETATM   19  C11 UNL     1      26.563   0.040  53.277  1.00  0.00     0.134 A 
HETATM   20  C12 UNL     1      27.171   1.271  53.900  1.00  0.00     0.046 A 
HETATM   21  C13 UNL     1      28.450   1.080  54.185  1.00  0.00     0.136 A 
HETATM   22  F1  UNL     1      29.526   1.738  54.727  1.00  0.00    -0.205 F 
HETATM   23  C14 UNL     1      28.800  -0.280  53.780  1.00  0.00     0.070 A 
HETATM   24 CL1  UNL     1      30.239  -1.285  53.809  1.00  0.00    -0.081 Cl
HETATM   25  C15 UNL     1      27.708  -0.864  53.261  1.00  0.00     0.029 A 
ENDBRANCH  17  19
ENDBRANCH  12  17
BRANCH   1  26
HETATM   26  O1  UNL     1      25.582   8.854  48.645  1.00  0.00    -0.356 OA
HETATM   27  C1  UNL     1      26.121   9.444  47.453  1.00  0.00     0.210 C 
ENDBRANCH   1  26
TORSDOF 3
ENDMDL
MODEL 6
REMARK VINA RESULT:      -8.1      4.158      7.832
REMARK  3 active torsions:
REMARK  status: ('A' for Active; 'I' for Inactive)
REMARK    1  A    between atoms: O1_2  and  C2_3 
REMARK    2  A    between atoms: C10_14  and  N3_15 
REMARK    3  A    between atoms: N3_15  and  C11_16 
ROOT
HETATM    1  C2  UNL     1      28.007   7.446  48.483  1.00  0.00     0.070 A 
HETATM    2  C3  UNL     1      28.565   6.221  48.222  1.00  0.00     0.037 A 
HETATM    3  C4  UNL     1      27.865   5.078  48.547  1.00  0.00     0.014 A 
HETATM    4  C5  UNL     1      26.599   5.082  49.135  1.00  0.00    -0.006 A 
HETATM    5  C6  UNL     1      26.071   6.330  49.382  1.00  0.00     0.088 A 
HETATM    6  C7  UNL     1      26.741   7.496  49.072  1.00  0.00     0.074 A 
HETATM    7  O2  UNL     1      24.825   6.531  49.961  1.00  0.00    -0.289 OA
HETATM    8  C8  UNL     1      23.946   5.609  50.555  1.00  0.00     0.202 A 
HETATM    9  N1  UNL     1      22.800   6.183  50.959  1.00  0.00    -0.215 NA
HETATM   10  C9  UNL     1      21.883   5.400  51.540  1.00  0.00     0.238 A 
HETATM   11  N2  UNL     1      22.049   4.059  51.744  1.00  0.00    -0.222 NA
HETATM   12  C10 UNL     1      23.174   3.433  51.361  1.00  0.00     0.156 A 
HETATM   13  C16 UNL     1      24.121   4.235  50.762  1.00  0.00     0.128 A 
HETATM   14  N4  UNL     1      25.259   3.475  50.407  1.00  0.00    -0.379 N 
HETATM   15  C17 UNL     1      26.210   3.669  49.315  1.00  0.00     0.161 C 
HETATM   16  H12 UNL     1      25.383   2.668  51.067  1.00  0.00     0.160 HD
ENDROOT
BRANCH  12  17
HETATM   17  N3  UNL     1      23.306   2.052  51.583  1.00  0.00    -0.362 N 
HETATM   18  H8  UNL     1      23.374   1.219  51.003  1.00  0.00     0.162 HD
BRANCH  17  19
HETATM   19  C11 UNL     1      23.354   1.674  52.982  1.00  0.00     0.134 A 
HETATM   20  C12 UNL     1      24.656   0.974  53.275  1.00  0.00     0.046 A 
HETATM   21  C13 UNL     1      24.447  -0.238  53.768  1.00  0.00     0.136 A 
HETATM   22  F1  UNL     1      25.140  -1.334  54.218  1.00  0.00    -0.205 F 
HETATM   23  C14 UNL     1      23.002  -0.446  53.843  1.00  0.00     0.070 A 
HETATM   24 CL1  UNL     1      21.929  -1.735  54.361  1.00  0.00    -0.081 Cl
HETATM   25  C15 UNL     1      22.389   0.658  53.389  1.00  0.00     0.029 A 
ENDBRANCH  17  19
ENDBRANCH  12  17
BRANCH   1  26
HETATM   26  O1  UNL     1      28.599   8.675  48.210  1.00  0.00    -0.356 OA
HETATM   27  C1  UNL     1      28.806   9.534  49.341  1.00  0.00     0.210 C 
ENDBRANCH   1  26
TORSDOF 3
ENDMDL
MODEL 7
REMARK VINA RESULT:      -8.0      3.707      5.218
REMARK  3 active torsions:
REMARK  status: ('A' for Active; 'I' for Inactive)
REMARK    1  A    between atoms: O1_2  and  C2_3 
REMARK    2  A    between atoms: C10_14  and  N3_15 
REMARK    3  A    between atoms: N3_15  and  C11_16 
ROOT
HETATM    1  C2  UNL     1      26.743  -0.734  53.118  1.00  0.00     0.070 A 
HETATM    2  C3  UNL     1      25.540  -0.560  53.753  1.00  0.00     0.037 A 
HETATM    3  C4  UNL     1      24.753   0.522  53.419  1.00  0.00     0.014 A 
HETATM    4  C5  UNL     1      25.103   1.471  52.457  1.00  0.00    -0.006 A 
HETATM    5  C6  UNL     1      26.318   1.263  51.842  1.00  0.00     0.088 A 
HETATM    6  C7  UNL     1      27.134   0.193  52.149  1.00  0.00     0.074 A 
HETATM    7  O2  UNL     1      26.832   2.102  50.862  1.00  0.00    -0.289 OA
HETATM    8  C8  UNL     1      26.378   3.356  50.418  1.00  0.00     0.202 A 
HETATM    9  N1  UNL     1      27.118   3.837  49.405  1.00  0.00    -0.215 NA
HETATM   10  C9  UNL     1      26.779   5.029  48.899  1.00  0.00     0.238 A 
HETATM   11  N2  UNL     1      25.728   5.776  49.354  1.00  0.00    -0.222 NA
HETATM   12  C10 UNL     1      24.956   5.345  50.364  1.00  0.00     0.156 A 
HETATM   13  C16 UNL     1      25.302   4.118  50.889  1.00  0.00     0.128 A 
HETATM   14  N4  UNL     1      24.429   3.769  51.944  1.00  0.00    -0.379 N 
HETATM   15  C17 UNL     1      24.000   2.450  52.405  1.00  0.00     0.161 C 
HETATM   16  H12 UNL     1      24.073   4.630  52.428  1.00  0.00     0.160 HD
ENDROOT
BRANCH  12  17
HETATM   17  N3  UNL     1      23.883   6.139  50.801  1.00  0.00    -0.362 N 
HETATM   18  H8  UNL     1      23.555   6.502  51.692  1.00  0.00     0.162 HD
BRANCH  17  19
HETATM   19  C11 UNL     1      22.987   6.566  49.744  1.00  0.00     0.134 A 
HETATM   20  C12 UNL     1      22.421   7.923  50.075  1.00  0.00     0.046 A 
HETATM   21  C13 UNL     1      21.096   7.893  50.109  1.00  0.00     0.136 A 
HETATM   22  F1  UNL     1      20.022   8.718  50.334  1.00  0.00    -0.205 F 
HETATM   23  C14 UNL     1      20.673   6.527  49.809  1.00  0.00     0.070 A 
HETATM   24 CL1  UNL     1      19.146   5.673  49.660  1.00  0.00    -0.081 Cl
HETATM   25  C15 UNL     1      21.767   5.778  49.601  1.00  0.00     0.029 A 
ENDBRANCH  17  19
ENDBRANCH  12  17
BRANCH   1  26
HETATM   26  O1  UNL     1      27.635  -1.776  53.356  1.00  0.00    -0.356 OA
HETATM   27  C1  UNL     1      29.027  -1.428  53.317  1.00  0.00     0.210 C 
ENDBRANCH   1  26
TORSDOF 3
ENDMDL
MODEL 8
REMARK VINA RESULT:      -7.9      4.231      8.205
REMARK  3 active torsions:
REMARK  status: ('A' for Active; 'I' for Inactive)
REMARK    1  A    between atoms: O1_2  and  C2_3 
REMARK    2  A    between atoms: C10_14  and  N3_15 
REMARK    3  A    between atoms: N3_15  and  C11_16 
ROOT
HETATM    1  C2  UNL     1      28.917   9.044  48.153  1.00  0.00     0.070 A 
HETATM    2  C3  UNL     1      29.560   7.937  47.663  1.00  0.00     0.037 A 
HETATM    3  C4  UNL     1      29.000   6.691  47.855  1.00  0.00     0.014 A 
HETATM    4  C5  UNL     1      27.795   6.476  48.527  1.00  0.00    -0.006 A 
HETATM    5  C6  UNL     1      27.178   7.611  49.005  1.00  0.00     0.088 A 
HETATM    6  C7  UNL     1      27.708   8.874  48.833  1.00  0.00     0.074 A 
HETATM    7  O2  UNL     1      25.975   7.593  49.698  1.00  0.00    -0.289 OA
HETATM    8  C8  UNL     1      25.241   6.506  50.202  1.00  0.00     0.202 A 
HETATM    9  N1  UNL     1      24.087   6.891  50.774  1.00  0.00    -0.215 NA
HETATM   10  C9  UNL     1      23.301   5.939  51.291  1.00  0.00     0.238 A 
HETATM   11  N2  UNL     1      23.607   4.607  51.269  1.00  0.00    -0.222 NA
HETATM   12  C10 UNL     1      24.746   4.165  50.712  1.00  0.00     0.156 A 
HETATM   13  C16 UNL     1      25.559   5.143  50.178  1.00  0.00     0.128 A 
HETATM   14  N4  UNL     1      26.726   4.567  49.626  1.00  0.00    -0.379 N 
HETATM   15  C17 UNL     1      27.555   5.019  48.512  1.00  0.00     0.161 C 
HETATM   16  H12 UNL     1      26.981   3.688  50.141  1.00  0.00     0.160 HD
ENDROOT
BRANCH  12  17
HETATM   17  N3  UNL     1      25.023   2.788  50.704  1.00  0.00    -0.362 N 
HETATM   18  H8  UNL     1      24.930   2.025  50.039  1.00  0.00     0.162 HD
BRANCH  17  19
HETATM   19  C11 UNL     1      25.578   2.285  51.945  1.00  0.00     0.134 A 
HETATM   20  C12 UNL     1      26.616   1.233  51.648  1.00  0.00     0.046 A 
HETATM   21  C13 UNL     1      26.313   0.083  52.233  1.00  0.00     0.136 A 
HETATM   22  F1  UNL     1      26.791  -1.197  52.368  1.00  0.00    -0.205 F 
HETATM   23  C14 UNL     1      25.060   0.270  52.961  1.00  0.00     0.070 A 
HETATM   24 CL1  UNL     1      24.012  -0.720  53.963  1.00  0.00    -0.081 Cl
HETATM   25  C15 UNL     1      24.651   1.537  52.787  1.00  0.00     0.029 A 
ENDBRANCH  17  19
ENDBRANCH  12  17
BRANCH   1  26
HETATM   26  O1  UNL     1      29.367  10.355  48.032  1.00  0.00    -0.356 OA
HETATM   27  C1  UNL     1      30.626  10.643  48.658  1.00  0.00     0.210 C 
ENDBRANCH   1  26
TORSDOF 3
ENDMDL
MODEL 9
REMARK VINA RESULT:      -7.8      3.771      5.259
REMARK  3 active torsions:
REMARK  status: ('A' for Active; 'I' for Inactive)
REMARK    1  A    between atoms: O1_2  and  C2_3 
REMARK    2  A    between atoms: C10_14  and  N3_15 
REMARK    3  A    between atoms: N3_15  and  C11_16 
ROOT
HETATM    1  C2  UNL     1      27.101  -0.516  53.413  1.00  0.00     0.070 A 
HETATM    2  C3  UNL     1      25.800  -0.576  53.840  1.00  0.00     0.037 A 
HETATM    3  C4  UNL     1      24.878   0.310  53.324  1.00  0.00     0.014 A 
HETATM    4  C5  UNL     1      25.186   1.286  52.374  1.00  0.00    -0.006 A 
HETATM    5  C6  UNL     1      26.502   1.317  51.969  1.00  0.00     0.088 A 
HETATM    6  C7  UNL     1      27.453   0.446  52.463  1.00  0.00     0.074 A 
HETATM    7  O2  UNL     1      26.993   2.217  51.033  1.00  0.00    -0.289 OA
HETATM    8  C8  UNL     1      26.378   3.338  50.450  1.00  0.00     0.202 A 
HETATM    9  N1  UNL     1      27.164   3.935  49.537  1.00  0.00    -0.215 NA
HETATM   10  C9  UNL     1      26.682   5.017  48.915  1.00  0.00     0.238 A 
HETATM   11  N2  UNL     1      25.443   5.543  49.155  1.00  0.00    -0.222 NA
HETATM   12  C10 UNL     1      24.617   4.989  50.056  1.00  0.00     0.156 A 
HETATM   13  C16 UNL     1      25.109   3.874  50.700  1.00  0.00     0.128 A 
HETATM   14  N4  UNL     1      24.161   3.380  51.625  1.00  0.00    -0.379 N 
HETATM   15  C17 UNL     1      23.933   2.014  52.092  1.00  0.00     0.161 C 
HETATM   16  H12 UNL     1      23.566   4.162  51.996  1.00  0.00     0.160 HD
ENDROOT
BRANCH  12  17
HETATM   17  N3  UNL     1      23.350   5.556  50.272  1.00  0.00    -0.362 N 
HETATM   18  H8  UNL     1      22.937   6.192  50.950  1.00  0.00     0.162 HD
BRANCH  17  19
HETATM   19  C11 UNL     1      22.343   5.151  49.311  1.00  0.00     0.134 A 
HETATM   20  C12 UNL     1      21.055   4.834  50.027  1.00  0.00     0.046 A 
HETATM   21  C13 UNL     1      20.662   3.593  49.778  1.00  0.00     0.136 A 
HETATM   22  F1  UNL     1      19.650   2.719  50.086  1.00  0.00    -0.205 F 
HETATM   23  C14 UNL     1      21.646   2.985  48.885  1.00  0.00     0.070 A 
HETATM   24 CL1  UNL     1      21.864   1.427  48.106  1.00  0.00    -0.081 Cl
HETATM   25  C15 UNL     1      22.603   3.890  48.626  1.00  0.00     0.029 A 
ENDBRANCH  17  19
ENDBRANCH  12  17
BRANCH   1  26
HETATM   26  O1  UNL     1      28.131  -1.344  53.849  1.00  0.00    -0.356 OA
HETATM   27  C1  UNL     1      29.462  -0.869  53.601  1.00  0.00     0.210 C 
ENDBRANCH   1  26
TORSDOF 3
ENDMDL
