MODEL 1
REMARK VINA RESULT:      -8.0      0.000      0.000
REMARK  4 active torsions:
REMARK  status: ('A' for Active; 'I' for Inactive)
REMARK    1  A    between atoms: C5_7  and  O2_8 
REMARK    2  A    between atoms: C6_9  and  C7_10 
REMARK    3  A    between atoms: C14_17  and  C15_18 
REMARK    4  A    between atoms: C15_18  and  C16_19 
ROOT
HETATM    1  C1  UNL     1      20.597   0.370  51.526  1.00  0.00     0.072 C 
HETATM    2  C2  UNL     1      21.764   0.967  51.387  1.00  0.00     0.067 A 
HETATM    3  O1  UNL     1      21.938   2.001  50.597  1.00  0.00    -0.295 OA
HETATM    4  C3  UNL     1      23.174   2.405  50.636  1.00  0.00     0.181 A 
HETATM    5  N1  UNL     1      23.746   3.424  49.978  1.00  0.00    -0.233 NA
HETATM    6  C4  UNL     1      25.046   3.665  50.168  1.00  0.00     0.157 A 
HETATM    7  C5  UNL     1      25.806   2.890  51.026  1.00  0.00     0.095 A 
HETATM    8  C6  UNL     1      25.163   1.853  51.678  1.00  0.00     0.024 A 
HETATM    9  C13 UNL     1      23.828   1.569  51.512  1.00  0.00     0.044 A 
HETATM   10  C14 UNL     1      22.947   0.647  52.000  1.00  0.00     0.012 A 
ENDROOT
BRANCH   8  11
HETATM   11  C7  UNL     1      26.001   1.070  52.566  1.00  0.00    -0.022 A 
HETATM   12  C8  UNL     1      26.647  -0.032  52.013  1.00  0.00     0.012 A 
HETATM   13  C9  UNL     1      27.422  -0.755  52.910  1.00  0.00     0.001 A 
HETATM   14  C10 UNL     1      27.525  -0.391  54.228  1.00  0.00     0.000 A 
HETATM   15  C11 UNL     1      26.868   0.706  54.721  1.00  0.00     0.001 A 
HETATM   16  C12 UNL     1      26.072   1.487  53.901  1.00  0.00     0.012 A 
ENDBRANCH   8  11
BRANCH   7  17
HETATM   17  O2  UNL     1      27.136   3.212  51.160  1.00  0.00    -0.358 OA
HETATM   18  H4  UNL     1      27.528   4.029  51.573  1.00  0.00     0.217 HD
ENDBRANCH   7  17
BRANCH  10  19
HETATM   19  C15 UNL     1      23.221  -0.306  52.857  1.00  0.00     0.054 C 
BRANCH  19  20
HETATM   20  C16 UNL     1      22.479  -0.556  54.109  1.00  0.00     0.098 A 
HETATM   21  C17 UNL     1      21.481  -0.427  54.989  1.00  0.00     0.179 A 
HETATM   22  O3  UNL     1      22.521  -1.281  55.311  1.00  0.00    -0.318 OA
ENDBRANCH  19  20
ENDBRANCH  10  19
TORSDOF 4
ENDMDL
MODEL 2
REMARK VINA RESULT:      -7.9      2.289      4.312
REMARK  4 active torsions:
REMARK  status: ('A' for Active; 'I' for Inactive)
REMARK    1  A    between atoms: C5_7  and  O2_8 
REMARK    2  A    between atoms: C6_9  and  C7_10 
REMARK    3  A    between atoms: C14_17  and  C15_18 
REMARK    4  A    between atoms: C15_18  and  C16_19 
ROOT
HETATM    1  C1  UNL     1      20.367   0.791  51.147  1.00  0.00     0.072 C 
HETATM    2  C2  UNL     1      21.184   0.338  52.077  1.00  0.00     0.067 A 
HETATM    3  O1  UNL     1      20.775  -0.420  53.068  1.00  0.00    -0.295 OA
HETATM    4  C3  UNL     1      21.770  -0.732  53.847  1.00  0.00     0.181 A 
HETATM    5  N1  UNL     1      21.762  -1.485  54.957  1.00  0.00    -0.233 NA
HETATM    6  C4  UNL     1      22.911  -1.680  55.610  1.00  0.00     0.157 A 
HETATM    7  C5  UNL     1      24.097  -1.124  55.165  1.00  0.00     0.095 A 
HETATM    8  C6  UNL     1      24.045  -0.358  54.015  1.00  0.00     0.024 A 
HETATM    9  C13 UNL     1      22.886  -0.132  53.311  1.00  0.00     0.044 A 
HETATM   10  C14 UNL     1      22.533   0.555  52.184  1.00  0.00     0.012 A 
ENDROOT
BRANCH   8  11
HETATM   11  C7  UNL     1      25.314   0.201  53.589  1.00  0.00    -0.022 A 
HETATM   12  C8  UNL     1      25.648   1.456  54.088  1.00  0.00     0.012 A 
HETATM   13  C9  UNL     1      26.864   1.951  53.635  1.00  0.00     0.001 A 
HETATM   14  C10 UNL     1      27.651   1.240  52.766  1.00  0.00     0.000 A 
HETATM   15  C11 UNL     1      27.274   0.006  52.305  1.00  0.00     0.001 A 
HETATM   16  C12 UNL     1      26.078  -0.568  52.703  1.00  0.00     0.012 A 
ENDBRANCH   8  11
BRANCH   7  17
HETATM   17  O2  UNL     1      25.231  -1.380  55.902  1.00  0.00    -0.358 OA
HETATM   18  H4  UNL     1      26.141  -0.996  55.775  1.00  0.00     0.217 HD
ENDBRANCH   7  17
BRANCH  10  19
HETATM   19  C15 UNL     1      23.339   1.247  51.417  1.00  0.00     0.054 C 
BRANCH  19  20
HETATM   20  C16 UNL     1      23.443   2.720  51.412  1.00  0.00     0.098 A 
HETATM   21  C17 UNL     1      23.102   3.971  51.091  1.00  0.00     0.179 A 
HETATM   22  O3  UNL     1      24.200   3.792  51.914  1.00  0.00    -0.318 OA
ENDBRANCH  19  20
ENDBRANCH  10  19
TORSDOF 4
ENDMDL
MODEL 3
REMARK VINA RESULT:      -7.6      2.365      5.911
REMARK  4 active torsions:
REMARK  status: ('A' for Active; 'I' for Inactive)
REMARK    1  A    between atoms: C5_7  and  O2_8 
REMARK    2  A    between atoms: C6_9  and  C7_10 
REMARK    3  A    between atoms: C14_17  and  C15_18 
REMARK    4  A    between atoms: C15_18  and  C16_19 
ROOT
HETATM    1  C1  UNL     1      27.163   1.384  52.361  1.00  0.00     0.072 C 
HETATM    2  C2  UNL     1      26.102   0.832  52.916  1.00  0.00     0.067 A 
HETATM    3  O1  UNL     1      26.186  -0.001  53.927  1.00  0.00    -0.295 OA
HETATM    4  C3  UNL     1      25.003  -0.403  54.289  1.00  0.00     0.181 A 
HETATM    5  N1  UNL     1      24.669  -1.250  55.274  1.00  0.00    -0.233 NA
HETATM    6  C4  UNL     1      23.378  -1.527  55.475  1.00  0.00     0.157 A 
HETATM    7  C5  UNL     1      22.388  -0.960  54.692  1.00  0.00     0.095 A 
HETATM    8  C6  UNL     1      22.791  -0.094  53.692  1.00  0.00     0.024 A 
HETATM    9  C13 UNL     1      24.107   0.219  53.450  1.00  0.00     0.044 A 
HETATM   10  C14 UNL     1      24.788   1.010  52.568  1.00  0.00     0.012 A 
ENDROOT
BRANCH   8  11
HETATM   11  C7  UNL     1      21.717   0.474  52.900  1.00  0.00    -0.022 A 
HETATM   12  C8  UNL     1      21.393  -0.181  51.715  1.00  0.00     0.012 A 
HETATM   13  C9  UNL     1      20.371   0.414  50.988  1.00  0.00     0.001 A 
HETATM   14  C10 UNL     1      19.748   1.555  51.425  1.00  0.00     0.000 A 
HETATM   15  C11 UNL     1      20.106   2.160  52.601  1.00  0.00     0.001 A 
HETATM   16  C12 UNL     1      21.115   1.638  53.393  1.00  0.00     0.012 A 
ENDBRANCH   8  11
BRANCH   7  17
HETATM   17  O2  UNL     1      21.085  -1.304  54.972  1.00  0.00    -0.358 OA
HETATM   18  H4  UNL     1      20.674  -1.461  55.865  1.00  0.00     0.217 HD
ENDBRANCH   7  17
BRANCH  10  19
HETATM   19  C15 UNL     1      24.258   1.749  51.625  1.00  0.00     0.054 C 
BRANCH  19  20
HETATM   20  C16 UNL     1      24.008   3.200  51.729  1.00  0.00     0.098 A 
HETATM   21  C17 UNL     1      23.458   4.317  52.214  1.00  0.00     0.179 A 
HETATM   22  O3  UNL     1      24.364   4.442  51.176  1.00  0.00    -0.318 OA
ENDBRANCH  19  20
ENDBRANCH  10  19
TORSDOF 4
ENDMDL
MODEL 4
REMARK VINA RESULT:      -7.6      2.075      4.415
REMARK  4 active torsions:
REMARK  status: ('A' for Active; 'I' for Inactive)
REMARK    1  A    between atoms: C5_7  and  O2_8 
REMARK    2  A    between atoms: C6_9  and  C7_10 
REMARK    3  A    between atoms: C14_17  and  C15_18 
REMARK    4  A    between atoms: C15_18  and  C16_19 
ROOT
HETATM    1  C1  UNL     1      21.663  -1.564  54.478  1.00  0.00     0.072 C 
HETATM    2  C2  UNL     1      22.760  -0.882  54.211  1.00  0.00     0.067 A 
HETATM    3  O1  UNL     1      23.947  -1.264  54.623  1.00  0.00    -0.295 OA
HETATM    4  C3  UNL     1      24.860  -0.424  54.230  1.00  0.00     0.181 A 
HETATM    5  N1  UNL     1      26.183  -0.462  54.446  1.00  0.00    -0.233 NA
HETATM    6  C4  UNL     1      26.945   0.516  53.946  1.00  0.00     0.157 A 
HETATM    7  C5  UNL     1      26.397   1.555  53.216  1.00  0.00     0.095 A 
HETATM    8  C6  UNL     1      25.028   1.542  53.025  1.00  0.00     0.024 A 
HETATM    9  C13 UNL     1      24.206   0.557  53.521  1.00  0.00     0.044 A 
HETATM   10  C14 UNL     1      22.868   0.283  53.497  1.00  0.00     0.012 A 
ENDROOT
BRANCH   8  11
HETATM   11  C7  UNL     1      24.503   2.652  52.253  1.00  0.00    -0.022 A 
HETATM   12  C8  UNL     1      24.009   3.739  52.969  1.00  0.00     0.012 A 
HETATM   13  C9  UNL     1      23.503   4.765  52.182  1.00  0.00     0.001 A 
HETATM   14  C10 UNL     1      23.502   4.688  50.812  1.00  0.00     0.000 A 
HETATM   15  C11 UNL     1      24.002   3.593  50.158  1.00  0.00     0.001 A 
HETATM   16  C12 UNL     1      24.527   2.521  50.859  1.00  0.00     0.012 A 
ENDBRANCH   8  11
BRANCH   7  17
HETATM   17  O2  UNL     1      27.259   2.516  52.740  1.00  0.00    -0.358 OA
HETATM   18  H4  UNL     1      27.096   3.178  52.014  1.00  0.00     0.217 HD
ENDBRANCH   7  17
BRANCH  10  19
HETATM   19  C15 UNL     1      21.942   1.003  52.913  1.00  0.00     0.054 C 
BRANCH  19  20
HETATM   20  C16 UNL     1      21.379   0.730  51.575  1.00  0.00     0.098 A 
HETATM   21  C17 UNL     1      21.368   0.659  50.241  1.00  0.00     0.179 A 
HETATM   22  O3  UNL     1      20.225   0.273  50.918  1.00  0.00    -0.318 OA
ENDBRANCH  19  20
ENDBRANCH  10  19
TORSDOF 4
ENDMDL
MODEL 5
REMARK VINA RESULT:      -7.3      2.842      5.667
REMARK  4 active torsions:
REMARK  status: ('A' for Active; 'I' for Inactive)
REMARK    1  A    between atoms: C5_7  and  O2_8 
REMARK    2  A    between atoms: C6_9  and  C7_10 
REMARK    3  A    between atoms: C14_17  and  C15_18 
REMARK    4  A    between atoms: C15_18  and  C16_19 
ROOT
HETATM    1  C1  UNL     1      28.167   5.133  48.405  1.00  0.00     0.072 C 
HETATM    2  C2  UNL     1      27.028   5.411  49.008  1.00  0.00     0.067 A 
HETATM    3  O1  UNL     1      26.590   6.640  49.158  1.00  0.00    -0.295 OA
HETATM    4  C3  UNL     1      25.449   6.646  49.782  1.00  0.00     0.181 A 
HETATM    5  N1  UNL     1      24.685   7.694  50.123  1.00  0.00    -0.233 NA
HETATM    6  C4  UNL     1      23.536   7.471  50.769  1.00  0.00     0.157 A 
HETATM    7  C5  UNL     1      23.125   6.189  51.087  1.00  0.00     0.095 A 
HETATM    8  C6  UNL     1      23.953   5.147  50.710  1.00  0.00     0.024 A 
HETATM    9  C13 UNL     1      25.142   5.331  50.046  1.00  0.00     0.044 A 
HETATM   10  C14 UNL     1      26.136   4.529  49.561  1.00  0.00     0.012 A 
ENDROOT
BRANCH   8  11
HETATM   11  C7  UNL     1      23.478   3.824  51.067  1.00  0.00    -0.022 A 
HETATM   12  C8  UNL     1      22.809   3.108  50.079  1.00  0.00     0.012 A 
HETATM   13  C9  UNL     1      22.361   1.856  50.478  1.00  0.00     0.001 A 
HETATM   14  C10 UNL     1      22.575   1.387  51.749  1.00  0.00     0.000 A 
HETATM   15  C11 UNL     1      23.242   2.134  52.684  1.00  0.00     0.001 A 
HETATM   16  C12 UNL     1      23.725   3.395  52.376  1.00  0.00     0.012 A 
ENDBRANCH   8  11
BRANCH   7  17
HETATM   17  O2  UNL     1      21.928   6.055  51.752  1.00  0.00    -0.358 OA
HETATM   18  H4  UNL     1      21.771   5.667  52.656  1.00  0.00     0.217 HD
ENDBRANCH   7  17
BRANCH  10  19
HETATM   19  C15 UNL     1      26.179   3.222  49.634  1.00  0.00     0.054 C 
BRANCH  19  20
HETATM   20  C16 UNL     1      26.658   2.456  50.802  1.00  0.00     0.098 A 
HETATM   21  C17 UNL     1      26.723   1.423  51.648  1.00  0.00     0.179 A 
HETATM   22  O3  UNL     1      27.551   2.506  51.886  1.00  0.00    -0.318 OA
ENDBRANCH  19  20
ENDBRANCH  10  19
TORSDOF 4
ENDMDL
MODEL 6
REMARK VINA RESULT:      -7.1      2.533      5.595
REMARK  4 active torsions:
REMARK  status: ('A' for Active; 'I' for Inactive)
REMARK    1  A    between atoms: C5_7  and  O2_8 
REMARK    2  A    between atoms: C6_9  and  C7_10 
REMARK    3  A    between atoms: C14_17  and  C15_18 
REMARK    4  A    between atoms: C15_18  and  C16_19 
ROOT
HETATM    1  C1  UNL     1      23.364  -1.611  55.623  1.00  0.00     0.072 C 
HETATM    2  C2  UNL     1      22.435  -1.178  54.794  1.00  0.00     0.067 A 
HETATM    3  O1  UNL     1      21.217  -1.667  54.781  1.00  0.00    -0.295 OA
HETATM    4  C3  UNL     1      20.495  -1.073  53.876  1.00  0.00     0.181 A 
HETATM    5  N1  UNL     1      19.210  -1.285  53.555  1.00  0.00    -0.233 NA
HETATM    6  C4  UNL     1      18.660  -0.554  52.581  1.00  0.00     0.157 A 
HETATM    7  C5  UNL     1      19.386   0.410  51.905  1.00  0.00     0.095 A 
HETATM    8  C6  UNL     1      20.706   0.586  52.279  1.00  0.00     0.024 A 
HETATM    9  C13 UNL     1      21.312  -0.144  53.274  1.00  0.00     0.044 A 
HETATM   10  C14 UNL     1      22.552  -0.196  53.845  1.00  0.00     0.012 A 
ENDROOT
BRANCH   8  11
HETATM   11  C7  UNL     1      21.424   1.608  51.542  1.00  0.00    -0.022 A 
HETATM   12  C8  UNL     1      22.063   1.208  50.371  1.00  0.00     0.012 A 
HETATM   13  C9  UNL     1      22.749   2.221  49.715  1.00  0.00     0.001 A 
HETATM   14  C10 UNL     1      22.779   3.503  50.203  1.00  0.00     0.000 A 
HETATM   15  C11 UNL     1      22.131   3.843  51.361  1.00  0.00     0.001 A 
HETATM   16  C12 UNL     1      21.421   2.899  52.084  1.00  0.00     0.012 A 
ENDBRANCH   8  11
BRANCH   7  17
HETATM   17  O2  UNL     1      18.737   1.115  50.918  1.00  0.00    -0.358 OA
HETATM   18  H4  UNL     1      17.825   0.953  50.552  1.00  0.00     0.217 HD
ENDBRANCH   7  17
BRANCH  10  19
HETATM   19  C15 UNL     1      23.583   0.546  53.522  1.00  0.00     0.054 C 
BRANCH  19  20
HETATM   20  C16 UNL     1      24.868   0.029  53.009  1.00  0.00     0.098 A 
HETATM   21  C17 UNL     1      25.935  -0.775  52.962  1.00  0.00     0.179 A 
HETATM   22  O3  UNL     1      25.840   0.230  52.015  1.00  0.00    -0.318 OA
ENDBRANCH  19  20
ENDBRANCH  10  19
TORSDOF 4
ENDMDL
MODEL 7
REMARK VINA RESULT:      -7.1      1.988      5.617
REMARK  4 active torsions:
REMARK  status: ('A' for Active; 'I' for Inactive)
REMARK    1  A    between atoms: C5_7  and  O2_8 
REMARK    2  A    between atoms: C6_9  and  C7_10 
REMARK    3  A    between atoms: C14_17  and  C15_18 
REMARK    4  A    between atoms: C15_18  and  C16_19 
ROOT
HETATM    1  C1  UNL     1      26.658   4.151  49.262  1.00  0.00     0.072 C 
HETATM    2  C2  UNL     1      26.167   3.282  50.123  1.00  0.00     0.067 A 
HETATM    3  O1  UNL     1      26.931   2.520  50.871  1.00  0.00    -0.295 OA
HETATM    4  C3  UNL     1      26.208   1.752  51.633  1.00  0.00     0.181 A 
HETATM    5  N1  UNL     1      26.611   0.841  52.531  1.00  0.00    -0.233 NA
HETATM    6  C4  UNL     1      25.688   0.156  53.212  1.00  0.00     0.157 A 
HETATM    7  C5  UNL     1      24.336   0.370  53.010  1.00  0.00     0.095 A 
HETATM    8  C6  UNL     1      23.979   1.321  52.072  1.00  0.00     0.024 A 
HETATM    9  C13 UNL     1      24.895   2.049  51.349  1.00  0.00     0.044 A 
HETATM   10  C14 UNL     1      24.848   3.020  50.389  1.00  0.00     0.012 A 
ENDROOT
BRANCH   8  11
HETATM   11  C7  UNL     1      22.551   1.508  51.896  1.00  0.00    -0.022 A 
HETATM   12  C8  UNL     1      21.905   0.637  51.024  1.00  0.00     0.012 A 
HETATM   13  C9  UNL     1      20.544   0.871  50.879  1.00  0.00     0.001 A 
HETATM   14  C10 UNL     1      19.913   1.886  51.554  1.00  0.00     0.000 A 
HETATM   15  C11 UNL     1      20.598   2.714  52.402  1.00  0.00     0.001 A 
HETATM   16  C12 UNL     1      21.959   2.557  52.609  1.00  0.00     0.012 A 
ENDBRANCH   8  11
BRANCH   7  17
HETATM   17  O2  UNL     1      23.458  -0.382  53.757  1.00  0.00    -0.358 OA
HETATM   18  H4  UNL     1      23.496  -0.573  54.733  1.00  0.00     0.217 HD
ENDBRANCH   7  17
BRANCH  10  19
HETATM   19  C15 UNL     1      23.764   3.546  49.875  1.00  0.00     0.054 C 
BRANCH  19  20
HETATM   20  C16 UNL     1      23.086   3.061  48.656  1.00  0.00     0.098 A 
HETATM   21  C17 UNL     1      22.636   2.156  47.781  1.00  0.00     0.179 A 
HETATM   22  O3  UNL     1      22.389   3.491  47.514  1.00  0.00    -0.318 OA
ENDBRANCH  19  20
ENDBRANCH  10  19
TORSDOF 4
ENDMDL
MODEL 8
REMARK VINA RESULT:      -7.0      3.121      5.967
REMARK  4 active torsions:
REMARK  status: ('A' for Active; 'I' for Inactive)
REMARK    1  A    between atoms: C5_7  and  O2_8 
REMARK    2  A    between atoms: C6_9  and  C7_10 
REMARK    3  A    between atoms: C14_17  and  C15_18 
REMARK    4  A    between atoms: C15_18  and  C16_19 
ROOT
HETATM    1  C1  UNL     1      22.621  -0.881  54.532  1.00  0.00     0.072 C 
HETATM    2  C2  UNL     1      21.730  -0.521  53.629  1.00  0.00     0.067 A 
HETATM    3  O1  UNL     1      20.467  -0.870  53.705  1.00  0.00    -0.295 OA
HETATM    4  C3  UNL     1      19.797  -0.390  52.698  1.00  0.00     0.181 A 
HETATM    5  N1  UNL     1      18.493  -0.523  52.418  1.00  0.00    -0.233 NA
HETATM    6  C4  UNL     1      18.008   0.059  51.317  1.00  0.00     0.157 A 
HETATM    7  C5  UNL     1      18.821   0.791  50.471  1.00  0.00     0.095 A 
HETATM    8  C6  UNL     1      20.158   0.895  50.810  1.00  0.00     0.024 A 
HETATM    9  C13 UNL     1      20.699   0.312  51.931  1.00  0.00     0.044 A 
HETATM   10  C14 UNL     1      21.935   0.240  52.508  1.00  0.00     0.012 A 
ENDROOT
BRANCH   8  11
HETATM   11  C7  UNL     1      20.968   1.672  49.891  1.00  0.00    -0.022 A 
HETATM   12  C8  UNL     1      21.088   3.033  50.154  1.00  0.00     0.012 A 
HETATM   13  C9  UNL     1      21.859   3.732  49.235  1.00  0.00     0.001 A 
HETATM   14  C10 UNL     1      22.444   3.106  48.164  1.00  0.00     0.000 A 
HETATM   15  C11 UNL     1      22.294   1.761  47.952  1.00  0.00     0.001 A 
HETATM   16  C12 UNL     1      21.542   0.982  48.817  1.00  0.00     0.012 A 
ENDBRANCH   8  11
BRANCH   7  17
HETATM   17  O2  UNL     1      18.234   1.356  49.361  1.00  0.00    -0.358 OA
HETATM   18  H4  UNL     1      17.943   0.899  48.526  1.00  0.00     0.217 HD
ENDBRANCH   7  17
BRANCH  10  19
HETATM   19  C15 UNL     1      23.033   0.791  52.052  1.00  0.00     0.054 C 
BRANCH  19  20
HETATM   20  C16 UNL     1      23.632   2.036  52.573  1.00  0.00     0.098 A 
HETATM   21  C17 UNL     1      23.793   3.356  52.708  1.00  0.00     0.179 A 
HETATM   22  O3  UNL     1      24.622   2.526  53.442  1.00  0.00    -0.318 OA
ENDBRANCH  19  20
ENDBRANCH  10  19
TORSDOF 4
ENDMDL
MODEL 9
REMARK VINA RESULT:      -6.8      1.977      4.519
REMARK  4 active torsions:
REMARK  status: ('A' for Active; 'I' for Inactive)
REMARK    1  A    between atoms: C5_7  and  O2_8 
REMARK    2  A    between atoms: C6_9  and  C7_10 
REMARK    3  A    between atoms: C14_17  and  C15_18 
REMARK    4  A    between atoms: C15_18  and  C16_19 
ROOT
HETATM    1  C1  UNL     1      20.579  -0.112  51.660  1.00  0.00     0.072 C 
HETATM    2  C2  UNL     1      21.791   0.307  51.964  1.00  0.00     0.067 A 
HETATM    3  O1  UNL     1      22.531  -0.276  52.879  1.00  0.00    -0.295 OA
HETATM    4  C3  UNL     1      23.680   0.325  52.990  1.00  0.00     0.181 A 
HETATM    5  N1  UNL     1      24.703   0.033  53.806  1.00  0.00    -0.233 NA
HETATM    6  C4  UNL     1      25.803   0.791  53.755  1.00  0.00     0.157 A 
HETATM    7  C5  UNL     1      25.903   1.859  52.882  1.00  0.00     0.095 A 
HETATM    8  C6  UNL     1      24.817   2.112  52.064  1.00  0.00     0.024 A 
HETATM    9  C13 UNL     1      23.667   1.359  52.083  1.00  0.00     0.044 A 
HETATM   10  C14 UNL     1      22.472   1.365  51.421  1.00  0.00     0.012 A 
ENDROOT
BRANCH   8  11
HETATM   11  C7  UNL     1      24.971   3.241  51.167  1.00  0.00    -0.022 A 
HETATM   12  C8  UNL     1      25.751   3.042  50.032  1.00  0.00     0.012 A 
HETATM   13  C9  UNL     1      25.880   4.160  49.218  1.00  0.00     0.001 A 
HETATM   14  C10 UNL     1      25.276   5.351  49.531  1.00  0.00     0.000 A 
HETATM   15  C11 UNL     1      24.517   5.492  50.663  1.00  0.00     0.001 A 
HETATM   16  C12 UNL     1      24.333   4.432  51.534  1.00  0.00     0.012 A 
ENDBRANCH   8  11
BRANCH   7  17
HETATM   17  O2  UNL     1      27.074   2.582  52.899  1.00  0.00    -0.358 OA
HETATM   18  H4  UNL     1      27.238   3.487  52.518  1.00  0.00     0.217 HD
ENDBRANCH   7  17
BRANCH  10  19
HETATM   19  C15 UNL     1      22.110   2.211  50.487  1.00  0.00     0.054 C 
BRANCH  19  20
HETATM   20  C16 UNL     1      22.174   1.945  49.036  1.00  0.00     0.098 A 
HETATM   21  C17 UNL     1      22.530   2.157  47.766  1.00  0.00     0.179 A 
HETATM   22  O3  UNL     1      21.741   1.054  48.040  1.00  0.00    -0.318 OA
ENDBRANCH  19  20
ENDBRANCH  10  19
TORSDOF 4
ENDMDL
