MODEL 1
REMARK VINA RESULT:      -7.5      0.000      0.000
REMARK  9 active torsions:
REMARK  status: ('A' for Active; 'I' for Inactive)
REMARK    1  A    between atoms: O1_1  and  C1_2 
REMARK    2  A    between atoms: N1_3  and  C2_4 
REMARK    3  A    between atoms: C2_4  and  N2_5 
REMARK    4  A    between atoms: N2_5  and  C3_6 
REMARK    5  A    between atoms: C3_6  and  N4_16 
REMARK    6  A    between atoms: C4_7  and  N3_8 
REMARK    7  A    between atoms: N3_8  and  C5_9 
REMARK    8  A    between atoms: C5_9  and  C6_10 
REMARK    9  A    between atoms: N4_16  and  C12_17 
ROOT
HETATM    1  C3  UNL     1      26.388   0.161  54.634  1.00  0.00     0.144 C 
HETATM    2  C4  UNL     1      25.531  -0.784  54.272  1.00  0.00     0.134 C 
ENDROOT
BRANCH   1   3
HETATM    3  N2  UNL     1      27.647   0.129  55.297  1.00  0.00    -0.223 NA
BRANCH   3   4
HETATM    4  C2  UNL     1      28.703  -0.014  54.568  1.00  0.00     0.237 C 
BRANCH   4   5
HETATM    5  N1  UNL     1      29.746  -0.584  53.751  1.00  0.00    -0.231 NA
HETATM    6  C1  UNL     1      29.604  -1.780  53.252  1.00  0.00     0.249 C 
BRANCH   6   7
HETATM    7  O1  UNL     1      28.458  -2.555  53.477  1.00  0.00    -0.355 OA
HETATM    8  H1  UNL     1      28.471  -3.495  53.134  1.00  0.00     0.218 HD
ENDBRANCH   6   7
ENDBRANCH   4   5
ENDBRANCH   3   4
ENDBRANCH   1   3
BRANCH   1   9
HETATM    9  N4  UNL     1      26.435   1.599  54.523  1.00  0.00    -0.340 N 
HETATM   10  H13 UNL     1      26.796   2.283  55.245  1.00  0.00     0.167 HD
BRANCH   9  11
HETATM   11  C12 UNL     1      25.936   2.153  53.298  1.00  0.00     0.035 A 
HETATM   12  C13 UNL     1      26.693   2.047  52.152  1.00  0.00     0.029 A 
HETATM   13  C14 UNL     1      26.263   2.566  50.930  1.00  0.00     0.004 A 
HETATM   14  C15 UNL     1      25.025   3.205  50.902  1.00  0.00     0.019 A 
HETATM   15  C16 UNL     1      24.251   3.324  52.038  1.00  0.00     0.013 A 
HETATM   16 BR1  UNL     1      22.553   4.219  51.925  1.00  0.00    -0.051 Br
HETATM   17  C17 UNL     1      24.728   2.789  53.224  1.00  0.00     0.048 A 
ENDBRANCH   9  11
ENDBRANCH   1   9
BRANCH   2  18
HETATM   18  N3  UNL     1      24.302  -0.662  53.616  1.00  0.00    -0.392 N 
HETATM   19  H5  UNL     1      24.347  -0.521  52.583  1.00  0.00     0.159 HD
BRANCH  18  20
HETATM   20  C5  UNL     1      23.036  -0.726  54.317  1.00  0.00     0.157 C 
BRANCH  20  21
HETATM   21  C6  UNL     1      21.928  -0.357  53.385  1.00  0.00    -0.041 A 
HETATM   22  C7  UNL     1      22.244   0.197  52.157  1.00  0.00     0.009 A 
HETATM   23  C8  UNL     1      21.171   0.518  51.338  1.00  0.00     0.001 A 
HETATM   24  C9  UNL     1      19.846   0.336  51.635  1.00  0.00     0.000 A 
HETATM   25  C10 UNL     1      19.575  -0.225  52.883  1.00  0.00     0.001 A 
HETATM   26  C11 UNL     1      20.605  -0.572  53.759  1.00  0.00     0.009 A 
ENDBRANCH  20  21
ENDBRANCH  18  20
ENDBRANCH   2  18
TORSDOF 9
ENDMDL
MODEL 2
REMARK VINA RESULT:      -7.4      2.291      4.447
REMARK  9 active torsions:
REMARK  status: ('A' for Active; 'I' for Inactive)
REMARK    1  A    between atoms: O1_1  and  C1_2 
REMARK    2  A    between atoms: N1_3  and  C2_4 
REMARK    3  A    between atoms: C2_4  and  N2_5 
REMARK    4  A    between atoms: N2_5  and  C3_6 
REMARK    5  A    between atoms: C3_6  and  N4_16 
REMARK    6  A    between atoms: C4_7  and  N3_8 
REMARK    7  A    between atoms: N3_8  and  C5_9 
REMARK    8  A    between atoms: C5_9  and  C6_10 
REMARK    9  A    between atoms: N4_16  and  C12_17 
ROOT
HETATM    1  C3  UNL     1      26.462   1.991  53.138  1.00  0.00     0.144 C 
HETATM    2  C4  UNL     1      26.831   1.617  51.920  1.00  0.00     0.134 C 
ENDROOT
BRANCH   1   3
HETATM    3  N2  UNL     1      26.828   1.552  54.441  1.00  0.00    -0.223 NA
BRANCH   3   4
HETATM    4  C2  UNL     1      27.410   0.405  54.544  1.00  0.00     0.237 C 
BRANCH   4   5
HETATM    5  N1  UNL     1      28.317  -0.701  54.359  1.00  0.00    -0.231 NA
HETATM    6  C1  UNL     1      29.502  -0.496  53.856  1.00  0.00     0.249 C 
BRANCH   6   7
HETATM    7  O1  UNL     1      29.947   0.778  53.479  1.00  0.00    -0.355 OA
HETATM    8  H1  UNL     1      30.936   0.926  53.456  1.00  0.00     0.218 HD
ENDBRANCH   6   7
ENDBRANCH   4   5
ENDBRANCH   3   4
ENDBRANCH   1   3
BRANCH   1   9
HETATM    9  N4  UNL     1      25.557   2.976  53.677  1.00  0.00    -0.340 N 
HETATM   10  H13 UNL     1      25.758   3.676  54.445  1.00  0.00     0.167 HD
BRANCH   9  11
HETATM   11  C12 UNL     1      24.241   3.003  53.104  1.00  0.00     0.035 A 
HETATM   12  C13 UNL     1      23.655   4.215  52.817  1.00  0.00     0.029 A 
HETATM   13  C14 UNL     1      22.379   4.307  52.260  1.00  0.00     0.004 A 
HETATM   14  C15 UNL     1      21.703   3.117  51.999  1.00  0.00     0.019 A 
HETATM   15  C16 UNL     1      22.271   1.891  52.280  1.00  0.00     0.013 A 
HETATM   16 BR1  UNL     1      21.280   0.290  51.893  1.00  0.00    -0.051 Br
HETATM   17  C17 UNL     1      23.541   1.859  52.832  1.00  0.00     0.048 A 
ENDBRANCH   9  11
ENDBRANCH   1   9
BRANCH   2  18
HETATM   18  N3  UNL     1      26.417   2.108  50.678  1.00  0.00    -0.392 N 
HETATM   19  H5  UNL     1      25.961   1.418  50.042  1.00  0.00     0.159 HD
BRANCH  18  20
HETATM   20  C5  UNL     1      26.604   3.490  50.286  1.00  0.00     0.157 C 
BRANCH  20  21
HETATM   21  C6  UNL     1      25.371   3.990  49.607  1.00  0.00    -0.041 A 
HETATM   22  C7  UNL     1      25.286   5.331  49.275  1.00  0.00     0.009 A 
HETATM   23  C8  UNL     1      24.116   5.731  48.647  1.00  0.00     0.001 A 
HETATM   24  C9  UNL     1      23.053   4.927  48.331  1.00  0.00     0.000 A 
HETATM   25  C10 UNL     1      23.183   3.584  48.684  1.00  0.00     0.001 A 
HETATM   26  C11 UNL     1      24.332   3.110  49.319  1.00  0.00     0.009 A 
ENDBRANCH  20  21
ENDBRANCH  18  20
ENDBRANCH   2  18
TORSDOF 9
ENDMDL
MODEL 3
REMARK VINA RESULT:      -7.4      1.816      5.006
REMARK  9 active torsions:
REMARK  status: ('A' for Active; 'I' for Inactive)
REMARK    1  A    between atoms: O1_1  and  C1_2 
REMARK    2  A    between atoms: N1_3  and  C2_4 
REMARK    3  A    between atoms: C2_4  and  N2_5 
REMARK    4  A    between atoms: N2_5  and  C3_6 
REMARK    5  A    between atoms: C3_6  and  N4_16 
REMARK    6  A    between atoms: C4_7  and  N3_8 
REMARK    7  A    between atoms: N3_8  and  C5_9 
REMARK    8  A    between atoms: C5_9  and  C6_10 
REMARK    9  A    between atoms: N4_16  and  C12_17 
ROOT
HETATM    1  C3  UNL     1      26.505   0.795  53.919  1.00  0.00     0.144 C 
HETATM    2  C4  UNL     1      26.390   2.086  53.639  1.00  0.00     0.134 C 
ENDROOT
BRANCH   1   3
HETATM    3  N2  UNL     1      27.341   0.064  54.808  1.00  0.00    -0.223 NA
BRANCH   3   4
HETATM    4  C2  UNL     1      28.462  -0.379  54.347  1.00  0.00     0.237 C 
BRANCH   4   5
HETATM    5  N1  UNL     1      29.452  -1.176  53.665  1.00  0.00    -0.231 NA
HETATM    6  C1  UNL     1      29.118  -2.317  53.132  1.00  0.00     0.249 C 
BRANCH   6   7
HETATM    7  O1  UNL     1      27.810  -2.818  53.190  1.00  0.00    -0.355 OA
HETATM    8  H1  UNL     1      27.331  -2.940  52.321  1.00  0.00     0.218 HD
ENDBRANCH   6   7
ENDBRANCH   4   5
ENDBRANCH   3   4
ENDBRANCH   1   3
BRANCH   1   9
HETATM    9  N4  UNL     1      25.858  -0.413  53.467  1.00  0.00    -0.340 N 
HETATM   10  H13 UNL     1      26.280  -1.179  52.871  1.00  0.00     0.167 HD
BRANCH   9  11
HETATM   11  C12 UNL     1      24.493  -0.586  53.873  1.00  0.00     0.035 A 
HETATM   12  C13 UNL     1      24.218  -1.199  55.075  1.00  0.00     0.029 A 
HETATM   13  C14 UNL     1      22.913  -1.397  55.525  1.00  0.00     0.004 A 
HETATM   14  C15 UNL     1      21.876  -0.949  54.708  1.00  0.00     0.019 A 
HETATM   15  C16 UNL     1      22.127  -0.333  53.499  1.00  0.00     0.013 A 
HETATM   16 BR1  UNL     1      20.647   0.260  52.426  1.00  0.00    -0.051 Br
HETATM   17  C17 UNL     1      23.444  -0.162  53.103  1.00  0.00     0.048 A 
ENDBRANCH   9  11
ENDBRANCH   1   9
BRANCH   2  18
HETATM   18  N3  UNL     1      25.531   2.726  52.741  1.00  0.00    -0.392 N 
HETATM   19  H5  UNL     1      24.943   3.493  53.136  1.00  0.00     0.159 HD
BRANCH  18  20
HETATM   20  C5  UNL     1      25.451   2.356  51.342  1.00  0.00     0.157 C 
BRANCH  20  21
HETATM   21  C6  UNL     1      25.732   3.552  50.491  1.00  0.00    -0.041 A 
HETATM   22  C7  UNL     1      26.835   3.532  49.654  1.00  0.00     0.009 A 
HETATM   23  C8  UNL     1      27.040   4.672  48.890  1.00  0.00     0.001 A 
HETATM   24  C9  UNL     1      26.259   5.797  48.892  1.00  0.00     0.000 A 
HETATM   25  C10 UNL     1      25.160   5.772  49.751  1.00  0.00     0.001 A 
HETATM   26  C11 UNL     1      24.892   4.658  50.549  1.00  0.00     0.009 A 
ENDBRANCH  20  21
ENDBRANCH  18  20
ENDBRANCH   2  18
TORSDOF 9
ENDMDL
MODEL 4
REMARK VINA RESULT:      -7.3      1.895      2.459
REMARK  9 active torsions:
REMARK  status: ('A' for Active; 'I' for Inactive)
REMARK    1  A    between atoms: O1_1  and  C1_2 
REMARK    2  A    between atoms: N1_3  and  C2_4 
REMARK    3  A    between atoms: C2_4  and  N2_5 
REMARK    4  A    between atoms: N2_5  and  C3_6 
REMARK    5  A    between atoms: C3_6  and  N4_16 
REMARK    6  A    between atoms: C4_7  and  N3_8 
REMARK    7  A    between atoms: N3_8  and  C5_9 
REMARK    8  A    between atoms: C5_9  and  C6_10 
REMARK    9  A    between atoms: N4_16  and  C12_17 
ROOT
HETATM    1  C3  UNL     1      25.288  -0.121  54.027  1.00  0.00     0.144 C 
HETATM    2  C4  UNL     1      24.103  -0.696  54.186  1.00  0.00     0.134 C 
ENDROOT
BRANCH   1   3
HETATM    3  N2  UNL     1      26.484  -0.131  54.798  1.00  0.00    -0.223 NA
BRANCH   3   4
HETATM    4  C2  UNL     1      27.594   0.103  54.183  1.00  0.00     0.237 C 
BRANCH   4   5
HETATM    5  N1  UNL     1      28.860   0.675  53.794  1.00  0.00    -0.231 NA
HETATM    6  C1  UNL     1      29.018   1.968  53.793  1.00  0.00     0.249 C 
BRANCH   6   7
HETATM    7  O1  UNL     1      27.992   2.850  54.161  1.00  0.00    -0.355 OA
HETATM    8  H1  UNL     1      28.121   3.816  53.934  1.00  0.00     0.218 HD
ENDBRANCH   6   7
ENDBRANCH   4   5
ENDBRANCH   3   4
ENDBRANCH   1   3
BRANCH   1   9
HETATM    9  N4  UNL     1      25.882   0.743  53.037  1.00  0.00    -0.340 N 
HETATM   10  H13 UNL     1      26.859   0.676  52.634  1.00  0.00     0.167 HD
BRANCH   9  11
HETATM   11  C12 UNL     1      25.053   1.808  52.551  1.00  0.00     0.035 A 
HETATM   12  C13 UNL     1      24.587   2.757  53.432  1.00  0.00     0.029 A 
HETATM   13  C14 UNL     1      23.777   3.816  53.021  1.00  0.00     0.004 A 
HETATM   14  C15 UNL     1      23.448   3.887  51.669  1.00  0.00     0.019 A 
HETATM   15  C16 UNL     1      23.903   2.946  50.767  1.00  0.00     0.013 A 
HETATM   16 BR1  UNL     1      23.408   3.108  48.917  1.00  0.00    -0.051 Br
HETATM   17  C17 UNL     1      24.704   1.917  51.232  1.00  0.00     0.048 A 
ENDBRANCH   9  11
ENDBRANCH   1   9
BRANCH   2  18
HETATM   18  N3  UNL     1      22.970  -0.634  53.369  1.00  0.00    -0.392 N 
HETATM   19  H5  UNL     1      23.044  -1.113  52.445  1.00  0.00     0.159 HD
BRANCH  18  20
HETATM   20  C5  UNL     1      21.759   0.054  53.769  1.00  0.00     0.157 C 
BRANCH  20  21
HETATM   21  C6  UNL     1      21.173   0.763  52.592  1.00  0.00    -0.041 A 
HETATM   22  C7  UNL     1      20.481   1.944  52.799  1.00  0.00     0.009 A 
HETATM   23  C8  UNL     1      19.962   2.553  51.666  1.00  0.00     0.001 A 
HETATM   24  C9  UNL     1      20.072   2.093  50.380  1.00  0.00     0.000 A 
HETATM   25  C10 UNL     1      20.776   0.900  50.220  1.00  0.00     0.001 A 
HETATM   26  C11 UNL     1      21.326   0.233  51.315  1.00  0.00     0.009 A 
ENDBRANCH  20  21
ENDBRANCH  18  20
ENDBRANCH   2  18
TORSDOF 9
ENDMDL
MODEL 5
REMARK VINA RESULT:      -7.2      3.207      6.644
REMARK  9 active torsions:
REMARK  status: ('A' for Active; 'I' for Inactive)
REMARK    1  A    between atoms: O1_1  and  C1_2 
REMARK    2  A    between atoms: N1_3  and  C2_4 
REMARK    3  A    between atoms: C2_4  and  N2_5 
REMARK    4  A    between atoms: N2_5  and  C3_6 
REMARK    5  A    between atoms: C3_6  and  N4_16 
REMARK    6  A    between atoms: C4_7  and  N3_8 
REMARK    7  A    between atoms: N3_8  and  C5_9 
REMARK    8  A    between atoms: C5_9  and  C6_10 
REMARK    9  A    between atoms: N4_16  and  C12_17 
ROOT
HETATM    1  C3  UNL     1      24.355   2.318  53.001  1.00  0.00     0.144 C 
HETATM    2  C4  UNL     1      25.433   2.618  53.713  1.00  0.00     0.134 C 
ENDROOT
BRANCH   1   3
HETATM    3  N2  UNL     1      23.200   3.061  52.628  1.00  0.00    -0.223 NA
BRANCH   3   4
HETATM    4  C2  UNL     1      23.380   4.151  51.960  1.00  0.00     0.237 C 
BRANCH   4   5
HETATM    5  N1  UNL     1      23.326   5.162  50.933  1.00  0.00    -0.231 NA
HETATM    6  C1  UNL     1      23.812   6.350  51.160  1.00  0.00     0.249 C 
BRANCH   6   7
HETATM    7  O1  UNL     1      24.398   6.699  52.385  1.00  0.00    -0.355 OA
HETATM    8  H1  UNL     1      25.041   7.465  52.379  1.00  0.00     0.218 HD
ENDBRANCH   6   7
ENDBRANCH   4   5
ENDBRANCH   3   4
ENDBRANCH   1   3
BRANCH   1   9
HETATM    9  N4  UNL     1      23.879   1.148  52.306  1.00  0.00    -0.340 N 
HETATM   10  H13 UNL     1      24.123   0.847  51.321  1.00  0.00     0.167 HD
BRANCH   9  11
HETATM   11  C12 UNL     1      22.977   0.304  53.036  1.00  0.00     0.035 A 
HETATM   12  C13 UNL     1      23.457  -0.457  54.078  1.00  0.00     0.029 A 
HETATM   13  C14 UNL     1      22.631  -1.296  54.825  1.00  0.00     0.004 A 
HETATM   14  C15 UNL     1      21.282  -1.344  54.481  1.00  0.00     0.019 A 
HETATM   15  C16 UNL     1      20.778  -0.590  53.440  1.00  0.00     0.013 A 
HETATM   16 BR1  UNL     1      18.905  -0.706  53.022  1.00  0.00    -0.051 Br
HETATM   17  C17 UNL     1      21.645   0.226  52.733  1.00  0.00     0.048 A 
ENDBRANCH   9  11
ENDBRANCH   1   9
BRANCH   2  18
HETATM   18  N3  UNL     1      26.533   1.818  54.034  1.00  0.00    -0.392 N 
HETATM   19  H5  UNL     1      26.545   1.422  55.000  1.00  0.00     0.159 HD
BRANCH  18  20
HETATM   20  C5  UNL     1      27.601   1.548  53.093  1.00  0.00     0.157 C 
BRANCH  20  21
HETATM   21  C6  UNL     1      27.865   0.078  53.043  1.00  0.00    -0.041 A 
HETATM   22  C7  UNL     1      26.878  -0.763  52.558  1.00  0.00     0.009 A 
HETATM   23  C8  UNL     1      27.185  -2.115  52.538  1.00  0.00     0.001 A 
HETATM   24  C9  UNL     1      28.362  -2.682  52.949  1.00  0.00     0.000 A 
HETATM   25  C10 UNL     1      29.327  -1.797  53.430  1.00  0.00     0.001 A 
HETATM   26  C11 UNL     1      29.087  -0.423  53.479  1.00  0.00     0.009 A 
ENDBRANCH  20  21
ENDBRANCH  18  20
ENDBRANCH   2  18
TORSDOF 9
ENDMDL
MODEL 6
REMARK VINA RESULT:      -7.2      1.671      3.971
REMARK  9 active torsions:
REMARK  status: ('A' for Active; 'I' for Inactive)
REMARK    1  A    between atoms: O1_1  and  C1_2 
REMARK    2  A    between atoms: N1_3  and  C2_4 
REMARK    3  A    between atoms: C2_4  and  N2_5 
REMARK    4  A    between atoms: N2_5  and  C3_6 
REMARK    5  A    between atoms: C3_6  and  N4_16 
REMARK    6  A    between atoms: C4_7  and  N3_8 
REMARK    7  A    between atoms: N3_8  and  C5_9 
REMARK    8  A    between atoms: C5_9  and  C6_10 
REMARK    9  A    between atoms: N4_16  and  C12_17 
ROOT
HETATM    1  C3  UNL     1      26.497   0.766  54.059  1.00  0.00     0.144 C 
HETATM    2  C4  UNL     1      26.394   2.072  53.852  1.00  0.00     0.134 C 
ENDROOT
BRANCH   1   3
HETATM    3  N2  UNL     1      27.305  -0.019  54.929  1.00  0.00    -0.223 NA
BRANCH   3   4
HETATM    4  C2  UNL     1      28.414  -0.483  54.460  1.00  0.00     0.237 C 
BRANCH   4   5
HETATM    5  N1  UNL     1      29.380  -1.266  53.729  1.00  0.00    -0.231 NA
HETATM    6  C1  UNL     1      29.011  -2.363  53.130  1.00  0.00     0.249 C 
BRANCH   6   7
HETATM    7  O1  UNL     1      27.689  -2.828  53.162  1.00  0.00    -0.355 OA
HETATM    8  H1  UNL     1      26.971  -2.146  53.306  1.00  0.00     0.218 HD
ENDBRANCH   6   7
ENDBRANCH   4   5
ENDBRANCH   3   4
ENDBRANCH   1   3
BRANCH   1   9
HETATM    9  N4  UNL     1      25.862  -0.410  53.518  1.00  0.00    -0.340 N 
HETATM   10  H13 UNL     1      26.325  -1.197  52.982  1.00  0.00     0.167 HD
BRANCH   9  11
HETATM   11  C12 UNL     1      24.448  -0.518  53.734  1.00  0.00     0.035 A 
HETATM   12  C13 UNL     1      23.984  -1.065  54.909  1.00  0.00     0.029 A 
HETATM   13  C14 UNL     1      22.621  -1.197  55.178  1.00  0.00     0.004 A 
HETATM   14  C15 UNL     1      21.728  -0.754  54.205  1.00  0.00     0.019 A 
HETATM   15  C16 UNL     1      22.170  -0.204  53.019  1.00  0.00     0.013 A 
HETATM   16 BR1  UNL     1      20.880   0.387  51.723  1.00  0.00    -0.051 Br
HETATM   17  C17 UNL     1      23.535  -0.096  52.807  1.00  0.00     0.048 A 
ENDBRANCH   9  11
ENDBRANCH   1   9
BRANCH   2  18
HETATM   18  N3  UNL     1      25.564   2.766  52.967  1.00  0.00    -0.392 N 
HETATM   19  H5  UNL     1      24.825   3.362  53.404  1.00  0.00     0.159 HD
BRANCH  18  20
HETATM   20  C5  UNL     1      25.708   2.673  51.529  1.00  0.00     0.157 C 
BRANCH  20  21
HETATM   21  C6  UNL     1      24.444   3.119  50.868  1.00  0.00    -0.041 A 
HETATM   22  C7  UNL     1      24.388   3.152  49.485  1.00  0.00     0.009 A 
HETATM   23  C8  UNL     1      23.188   3.575  48.934  1.00  0.00     0.001 A 
HETATM   24  C9  UNL     1      22.070   3.957  49.628  1.00  0.00     0.000 A 
HETATM   25  C10 UNL     1      22.173   3.909  51.018  1.00  0.00     0.001 A 
HETATM   26  C11 UNL     1      23.351   3.493  51.642  1.00  0.00     0.009 A 
ENDBRANCH  20  21
ENDBRANCH  18  20
ENDBRANCH   2  18
TORSDOF 9
ENDMDL
MODEL 7
REMARK VINA RESULT:      -7.0      3.270      6.406
REMARK  9 active torsions:
REMARK  status: ('A' for Active; 'I' for Inactive)
REMARK    1  A    between atoms: O1_1  and  C1_2 
REMARK    2  A    between atoms: N1_3  and  C2_4 
REMARK    3  A    between atoms: C2_4  and  N2_5 
REMARK    4  A    between atoms: N2_5  and  C3_6 
REMARK    5  A    between atoms: C3_6  and  N4_16 
REMARK    6  A    between atoms: C4_7  and  N3_8 
REMARK    7  A    between atoms: N3_8  and  C5_9 
REMARK    8  A    between atoms: C5_9  and  C6_10 
REMARK    9  A    between atoms: N4_16  and  C12_17 
ROOT
HETATM    1  C3  UNL     1      24.327   1.709  52.717  1.00  0.00     0.144 C 
HETATM    2  C4  UNL     1      23.853   2.947  52.765  1.00  0.00     0.134 C 
ENDROOT
BRANCH   1   3
HETATM    3  N2  UNL     1      24.002   0.516  53.421  1.00  0.00    -0.223 NA
BRANCH   3   4
HETATM    4  C2  UNL     1      22.855  -0.027  53.180  1.00  0.00     0.237 C 
BRANCH   4   5
HETATM    5  N1  UNL     1      21.498  -0.497  53.314  1.00  0.00    -0.231 NA
HETATM    6  C1  UNL     1      21.179  -1.299  54.290  1.00  0.00     0.249 C 
BRANCH   6   7
HETATM    7  O1  UNL     1      22.115  -1.736  55.238  1.00  0.00    -0.355 OA
HETATM    8  H1  UNL     1      22.713  -1.042  55.639  1.00  0.00     0.218 HD
ENDBRANCH   6   7
ENDBRANCH   4   5
ENDBRANCH   3   4
ENDBRANCH   1   3
BRANCH   1   9
HETATM    9  N4  UNL     1      25.349   1.032  51.957  1.00  0.00    -0.340 N 
HETATM   10  H13 UNL     1      25.237   0.553  51.020  1.00  0.00     0.167 HD
BRANCH   9  11
HETATM   11  C12 UNL     1      26.659   1.011  52.541  1.00  0.00     0.035 A 
HETATM   12  C13 UNL     1      27.232   2.192  52.957  1.00  0.00     0.029 A 
HETATM   13  C14 UNL     1      28.502   2.237  53.533  1.00  0.00     0.004 A 
HETATM   14  C15 UNL     1      29.186   1.032  53.677  1.00  0.00     0.019 A 
HETATM   15  C16 UNL     1      28.632  -0.164  53.266  1.00  0.00     0.013 A 
HETATM   16 BR1  UNL     1      29.635  -1.787  53.497  1.00  0.00    -0.051 Br
HETATM   17  C17 UNL     1      27.367  -0.149  52.702  1.00  0.00     0.048 A 
ENDBRANCH   9  11
ENDBRANCH   1   9
BRANCH   2  18
HETATM   18  N3  UNL     1      24.235   4.072  52.028  1.00  0.00    -0.392 N 
HETATM   19  H5  UNL     1      24.763   4.804  52.552  1.00  0.00     0.159 HD
BRANCH  18  20
HETATM   20  C5  UNL     1      23.922   4.224  50.622  1.00  0.00     0.157 C 
BRANCH  20  21
HETATM   21  C6  UNL     1      25.135   4.695  49.887  1.00  0.00    -0.041 A 
HETATM   22  C7  UNL     1      25.167   5.996  49.415  1.00  0.00     0.009 A 
HETATM   23  C8  UNL     1      26.321   6.371  48.741  1.00  0.00     0.001 A 
HETATM   24  C9  UNL     1      27.413   5.578  48.507  1.00  0.00     0.000 A 
HETATM   25  C10 UNL     1      27.335   4.276  49.000  1.00  0.00     0.001 A 
HETATM   26  C11 UNL     1      26.205   3.830  49.688  1.00  0.00     0.009 A 
ENDBRANCH  20  21
ENDBRANCH  18  20
ENDBRANCH   2  18
TORSDOF 9
ENDMDL
MODEL 8
REMARK VINA RESULT:      -7.0      3.162      6.288
REMARK  9 active torsions:
REMARK  status: ('A' for Active; 'I' for Inactive)
REMARK    1  A    between atoms: O1_1  and  C1_2 
REMARK    2  A    between atoms: N1_3  and  C2_4 
REMARK    3  A    between atoms: C2_4  and  N2_5 
REMARK    4  A    between atoms: N2_5  and  C3_6 
REMARK    5  A    between atoms: C3_6  and  N4_16 
REMARK    6  A    between atoms: C4_7  and  N3_8 
REMARK    7  A    between atoms: N3_8  and  C5_9 
REMARK    8  A    between atoms: C5_9  and  C6_10 
REMARK    9  A    between atoms: N4_16  and  C12_17 
ROOT
HETATM    1  C3  UNL     1      26.096   1.718  52.049  1.00  0.00     0.144 C 
HETATM    2  C4  UNL     1      26.644   2.545  51.169  1.00  0.00     0.134 C 
ENDROOT
BRANCH   1   3
HETATM    3  N2  UNL     1      26.455   0.425  52.521  1.00  0.00    -0.223 NA
BRANCH   3   4
HETATM    4  C2  UNL     1      27.502   0.331  53.269  1.00  0.00     0.237 C 
BRANCH   4   5
HETATM    5  N1  UNL     1      28.434   0.483  54.360  1.00  0.00    -0.231 NA
HETATM    6  C1  UNL     1      29.252   1.497  54.383  1.00  0.00     0.249 C 
BRANCH   6   7
HETATM    7  O1  UNL     1      29.269   2.470  53.374  1.00  0.00    -0.355 OA
HETATM    8  H1  UNL     1      29.372   3.422  53.663  1.00  0.00     0.218 HD
ENDBRANCH   6   7
ENDBRANCH   4   5
ENDBRANCH   3   4
ENDBRANCH   1   3
BRANCH   1   9
HETATM    9  N4  UNL     1      24.930   1.752  52.898  1.00  0.00    -0.340 N 
HETATM   10  H13 UNL     1      24.879   2.090  53.900  1.00  0.00     0.167 HD
BRANCH   9  11
HETATM   11  C12 UNL     1      23.711   1.272  52.314  1.00  0.00     0.035 A 
HETATM   12  C13 UNL     1      22.918   0.400  53.026  1.00  0.00     0.029 A 
HETATM   13  C14 UNL     1      21.722  -0.102  52.514  1.00  0.00     0.004 A 
HETATM   14  C15 UNL     1      21.346   0.311  51.237  1.00  0.00     0.019 A 
HETATM   15  C16 UNL     1      22.125   1.183  50.504  1.00  0.00     0.013 A 
HETATM   16 BR1  UNL     1      21.543   1.709  48.749  1.00  0.00    -0.051 Br
HETATM   17  C17 UNL     1      23.303   1.650  51.064  1.00  0.00     0.048 A 
ENDBRANCH   9  11
ENDBRANCH   1   9
BRANCH   2  18
HETATM   18  N3  UNL     1      26.221   3.813  50.760  1.00  0.00    -0.392 N 
HETATM   19  H5  UNL     1      26.197   4.549  51.501  1.00  0.00     0.159 HD
BRANCH  18  20
HETATM   20  C5  UNL     1      25.835   4.102  49.394  1.00  0.00     0.157 C 
BRANCH  20  21
HETATM   21  C6  UNL     1      26.702   5.189  48.847  1.00  0.00    -0.041 A 
HETATM   22  C7  UNL     1      28.037   4.918  48.599  1.00  0.00     0.009 A 
HETATM   23  C8  UNL     1      28.788   5.969  48.093  1.00  0.00     0.001 A 
HETATM   24  C9  UNL     1      28.331   7.231  47.820  1.00  0.00     0.000 A 
HETATM   25  C10 UNL     1      26.980   7.457  48.086  1.00  0.00     0.001 A 
HETATM   26  C11 UNL     1      26.164   6.447  48.596  1.00  0.00     0.009 A 
ENDBRANCH  20  21
ENDBRANCH  18  20
ENDBRANCH   2  18
TORSDOF 9
ENDMDL
MODEL 9
REMARK VINA RESULT:      -7.0      3.712      5.334
REMARK  9 active torsions:
REMARK  status: ('A' for Active; 'I' for Inactive)
REMARK    1  A    between atoms: O1_1  and  C1_2 
REMARK    2  A    between atoms: N1_3  and  C2_4 
REMARK    3  A    between atoms: C2_4  and  N2_5 
REMARK    4  A    between atoms: N2_5  and  C3_6 
REMARK    5  A    between atoms: C3_6  and  N4_16 
REMARK    6  A    between atoms: C4_7  and  N3_8 
REMARK    7  A    between atoms: N3_8  and  C5_9 
REMARK    8  A    between atoms: C5_9  and  C6_10 
REMARK    9  A    between atoms: N4_16  and  C12_17 
ROOT
HETATM    1  C3  UNL     1      25.674   3.147  50.600  1.00  0.00     0.144 C 
HETATM    2  C4  UNL     1      24.351   3.095  50.679  1.00  0.00     0.134 C 
ENDROOT
BRANCH   1   3
HETATM    3  N2  UNL     1      26.575   3.361  49.520  1.00  0.00    -0.223 NA
BRANCH   3   4
HETATM    4  C2  UNL     1      26.790   4.579  49.152  1.00  0.00     0.237 C 
BRANCH   4   5
HETATM    5  N1  UNL     1      26.611   5.913  48.633  1.00  0.00    -0.231 NA
HETATM    6  C1  UNL     1      26.072   6.836  49.379  1.00  0.00     0.249 C 
BRANCH   6   7
HETATM    7  O1  UNL     1      25.649   6.588  50.692  1.00  0.00    -0.355 OA
HETATM    8  H1  UNL     1      25.914   7.255  51.389  1.00  0.00     0.218 HD
ENDBRANCH   6   7
ENDBRANCH   4   5
ENDBRANCH   3   4
ENDBRANCH   1   3
BRANCH   1   9
HETATM    9  N4  UNL     1      26.762   3.017  51.538  1.00  0.00    -0.340 N 
HETATM   10  H13 UNL     1      27.606   3.650  51.630  1.00  0.00     0.167 HD
BRANCH   9  11
HETATM   11  C12 UNL     1      26.686   1.905  52.441  1.00  0.00     0.035 A 
HETATM   12  C13 UNL     1      26.404   2.133  53.770  1.00  0.00     0.029 A 
HETATM   13  C14 UNL     1      26.317   1.095  54.698  1.00  0.00     0.004 A 
HETATM   14  C15 UNL     1      26.528  -0.202  54.233  1.00  0.00     0.019 A 
HETATM   15  C16 UNL     1      26.813  -0.454  52.906  1.00  0.00     0.013 A 
HETATM   16 BR1  UNL     1      27.091  -2.269  52.337  1.00  0.00    -0.051 Br
HETATM   17  C17 UNL     1      26.886   0.616  52.030  1.00  0.00     0.048 A 
ENDBRANCH   9  11
ENDBRANCH   1   9
BRANCH   2  18
HETATM   18  N3  UNL     1      23.538   2.879  51.795  1.00  0.00    -0.392 N 
HETATM   19  H5  UNL     1      23.938   3.163  52.717  1.00  0.00     0.159 HD
BRANCH  18  20
HETATM   20  C5  UNL     1      22.215   2.296  51.693  1.00  0.00     0.157 C 
BRANCH  20  21
HETATM   21  C6  UNL     1      22.057   1.228  52.726  1.00  0.00    -0.041 A 
HETATM   22  C7  UNL     1      23.078   0.310  52.901  1.00  0.00     0.009 A 
HETATM   23  C8  UNL     1      22.870  -0.655  53.875  1.00  0.00     0.001 A 
HETATM   24  C9  UNL     1      21.759  -0.777  54.667  1.00  0.00     0.000 A 
HETATM   25  C10 UNL     1      20.756   0.169  54.455  1.00  0.00     0.001 A 
HETATM   26  C11 UNL     1      20.897   1.169  53.492  1.00  0.00     0.009 A 
ENDBRANCH  20  21
ENDBRANCH  18  20
ENDBRANCH   2  18
TORSDOF 9
ENDMDL
