MODEL 1
REMARK VINA RESULT:      -8.6      0.000      0.000
REMARK  0 active torsions:
REMARK  status: ('A' for Active; 'I' for Inactive)
ROOT
HETATM    1  C1  UNL     1      23.571   4.828  53.479  1.00  0.00     0.049 C 
HETATM    2  C2  UNL     1      24.167   3.642  52.812  1.00  0.00    -0.050 A 
HETATM    3  C3  UNL     1      25.010   2.790  53.493  1.00  0.00     0.015 A 
HETATM    4  C4  UNL     1      25.547   1.697  52.847  1.00  0.00    -0.054 A 
HETATM    5  C5  UNL     1      25.253   1.444  51.524  1.00  0.00     0.008 A 
HETATM    6  C6  UNL     1      24.411   2.293  50.839  1.00  0.00     0.014 A 
HETATM    7  C7  UNL     1      23.861   3.402  51.482  1.00  0.00    -0.013 A 
HETATM    8  C8  UNL     1      22.958   4.294  50.748  1.00  0.00     0.129 C 
HETATM    9  N1  UNL     1      21.976   3.571  51.141  1.00  0.00    -0.261 NA
HETATM   10  C9  UNL     1      20.628   3.805  50.819  1.00  0.00     0.083 A 
HETATM   11  C10 UNL     1      19.625   4.496  50.431  1.00  0.00     0.077 A 
HETATM   12  S1  UNL     1      18.391   3.284  50.545  1.00  0.00    -0.098 SA
HETATM   13  C11 UNL     1      19.931   2.571  51.026  1.00  0.00     0.339 A 
HETATM   14  N2  UNL     1      19.998   2.204  52.426  1.00  0.00     0.120 N 
HETATM   15  C12 UNL     1      20.233   0.799  52.624  1.00  0.00     0.194 A 
HETATM   16  C13 UNL     1      19.401  -0.099  51.747  1.00  0.00     0.058 C 
HETATM   17  C14 UNL     1      20.049   0.399  54.042  1.00  0.00     0.021 A 
HETATM   18  C15 UNL     1      21.221   0.101  54.578  1.00  0.00     0.035 A 
HETATM   19  C16 UNL     1      22.291   0.195  53.593  1.00  0.00     0.067 A 
HETATM   20  C17 UNL     1      21.690   0.563  52.447  1.00  0.00     0.054 A 
HETATM   21  O1  UNL     1      23.649   0.065  53.346  1.00  0.00    -0.351 OA
HETATM   22  C18 UNL     1      24.529  -0.762  54.081  1.00  0.00     0.176 C 
HETATM   23  C19 UNL     1      25.934  -0.651  53.524  1.00  0.00     0.036 C 
HETATM   24  C20 UNL     1      26.441   0.778  53.603  1.00  0.00     0.016 C 
HETATM   25  C21 UNL     1      27.801   0.840  52.959  1.00  0.00     0.015 C 
HETATM   26  H10 UNL     1      19.229   2.616  52.962  1.00  0.00     0.319 HD
ENDROOT
TORSDOF 0
ENDMDL
MODEL 2
REMARK VINA RESULT:      -8.4      1.916      4.656
REMARK  0 active torsions:
REMARK  status: ('A' for Active; 'I' for Inactive)
ROOT
HETATM    1  C1  UNL     1      20.129   1.275  49.237  1.00  0.00     0.049 C 
HETATM    2  C2  UNL     1      20.499   1.229  50.675  1.00  0.00    -0.050 A 
HETATM    3  C3  UNL     1      21.315   0.235  51.170  1.00  0.00     0.015 A 
HETATM    4  C4  UNL     1      21.642   0.221  52.509  1.00  0.00    -0.054 A 
HETATM    5  C5  UNL     1      21.160   1.189  53.363  1.00  0.00     0.008 A 
HETATM    6  C6  UNL     1      20.345   2.186  52.873  1.00  0.00     0.014 A 
HETATM    7  C7  UNL     1      20.007   2.211  51.520  1.00  0.00    -0.013 A 
HETATM    8  C8  UNL     1      19.147   3.282  51.005  1.00  0.00     0.129 C 
HETATM    9  N1  UNL     1      20.201   3.968  50.762  1.00  0.00    -0.261 NA
HETATM   10  C9  UNL     1      20.207   5.256  50.198  1.00  0.00     0.083 A 
HETATM   11  C10 UNL     1      19.728   6.246  49.547  1.00  0.00     0.077 A 
HETATM   12  S1  UNL     1      21.069   7.337  49.670  1.00  0.00    -0.098 SA
HETATM   13  C11 UNL     1      21.471   5.846  50.524  1.00  0.00     0.339 A 
HETATM   14  N2  UNL     1      22.537   5.084  49.907  1.00  0.00     0.120 N 
HETATM   15  C12 UNL     1      23.671   4.907  50.774  1.00  0.00     0.194 A 
HETATM   16  C13 UNL     1      24.091   6.153  51.507  1.00  0.00     0.058 C 
HETATM   17  C14 UNL     1      24.842   4.350  50.051  1.00  0.00     0.021 A 
HETATM   18  C15 UNL     1      25.056   3.104  50.440  1.00  0.00     0.035 A 
HETATM   19  C16 UNL     1      24.125   2.712  51.490  1.00  0.00     0.067 A 
HETATM   20  C17 UNL     1      23.350   3.791  51.702  1.00  0.00     0.054 A 
HETATM   21  O1  UNL     1      23.711   1.707  52.350  1.00  0.00    -0.351 OA
HETATM   22  C18 UNL     1      24.527   0.650  52.813  1.00  0.00     0.176 C 
HETATM   23  C19 UNL     1      23.736  -0.252  53.738  1.00  0.00     0.036 C 
HETATM   24  C20 UNL     1      22.537  -0.851  53.022  1.00  0.00     0.016 C 
HETATM   25  C21 UNL     1      21.746  -1.666  54.013  1.00  0.00     0.015 C 
HETATM   26  H10 UNL     1      22.737   5.413  48.958  1.00  0.00     0.319 HD
ENDROOT
TORSDOF 0
ENDMDL
MODEL 3
REMARK VINA RESULT:      -8.2      3.288      5.728
REMARK  0 active torsions:
REMARK  status: ('A' for Active; 'I' for Inactive)
ROOT
HETATM    1  C1  UNL     1      21.898   2.610  47.950  1.00  0.00     0.049 C 
HETATM    2  C2  UNL     1      22.142   2.771  49.407  1.00  0.00    -0.050 A 
HETATM    3  C3  UNL     1      22.798   1.800  50.132  1.00  0.00     0.015 A 
HETATM    4  C4  UNL     1      23.010   1.981  51.482  1.00  0.00    -0.054 A 
HETATM    5  C5  UNL     1      22.572   3.121  52.120  1.00  0.00     0.008 A 
HETATM    6  C6  UNL     1      21.915   4.095  51.399  1.00  0.00     0.014 A 
HETATM    7  C7  UNL     1      21.695   3.925  50.032  1.00  0.00    -0.013 A 
HETATM    8  C8  UNL     1      21.005   4.971  49.271  1.00  0.00     0.129 C 
HETATM    9  N1  UNL     1      22.145   5.502  49.027  1.00  0.00    -0.261 NA
HETATM   10  C9  UNL     1      22.341   6.670  48.270  1.00  0.00     0.083 A 
HETATM   11  C10 UNL     1      22.030   7.577  47.426  1.00  0.00     0.077 A 
HETATM   12  S1  UNL     1      23.470   8.539  47.506  1.00  0.00    -0.098 SA
HETATM   13  C11 UNL     1      23.632   7.181  48.622  1.00  0.00     0.339 A 
HETATM   14  N2  UNL     1      24.653   6.226  48.242  1.00  0.00     0.120 N 
HETATM   15  C12 UNL     1      25.685   6.089  49.235  1.00  0.00     0.194 A 
HETATM   16  C13 UNL     1      26.181   7.394  49.798  1.00  0.00     0.058 C 
HETATM   17  C14 UNL     1      26.842   5.308  48.729  1.00  0.00     0.021 A 
HETATM   18  C15 UNL     1      26.883   4.130  49.330  1.00  0.00     0.035 A 
HETATM   19  C16 UNL     1      25.832   4.012  50.332  1.00  0.00     0.067 A 
HETATM   20  C17 UNL     1      25.167   5.182  50.291  1.00  0.00     0.054 A 
HETATM   21  O1  UNL     1      25.238   3.212  51.295  1.00  0.00    -0.351 OA
HETATM   22  C18 UNL     1      25.890   2.174  51.999  1.00  0.00     0.176 C 
HETATM   23  C19 UNL     1      24.930   1.521  52.972  1.00  0.00     0.036 C 
HETATM   24  C20 UNL     1      23.735   0.929  52.246  1.00  0.00     0.016 C 
HETATM   25  C21 UNL     1      22.780   0.373  53.269  1.00  0.00     0.015 C 
HETATM   26  H10 UNL     1      24.966   6.370  47.278  1.00  0.00     0.319 HD
ENDROOT
TORSDOF 0
ENDMDL
MODEL 4
REMARK VINA RESULT:      -8.0      2.686      4.940
REMARK  0 active torsions:
REMARK  status: ('A' for Active; 'I' for Inactive)
ROOT
HETATM    1  C1  UNL     1      26.283   1.341  51.308  1.00  0.00     0.049 C 
HETATM    2  C2  UNL     1      25.577   2.648  51.273  1.00  0.00    -0.050 A 
HETATM    3  C3  UNL     1      25.692   3.491  50.189  1.00  0.00     0.015 A 
HETATM    4  C4  UNL     1      25.022   4.697  50.186  1.00  0.00    -0.054 A 
HETATM    5  C5  UNL     1      24.239   5.072  51.256  1.00  0.00     0.008 A 
HETATM    6  C6  UNL     1      24.120   4.231  52.342  1.00  0.00     0.014 A 
HETATM    7  C7  UNL     1      24.792   3.009  52.357  1.00  0.00    -0.013 A 
HETATM    8  C8  UNL     1      24.652   2.117  53.511  1.00  0.00     0.129 C 
HETATM    9  N1  UNL     1      23.653   1.567  52.926  1.00  0.00    -0.261 NA
HETATM   10  C9  UNL     1      22.896   0.508  53.456  1.00  0.00     0.083 A 
HETATM   11  C10 UNL     1      22.659  -0.486  54.223  1.00  0.00     0.077 A 
HETATM   12  S1  UNL     1      21.064  -0.886  53.678  1.00  0.00    -0.098 SA
HETATM   13  C11 UNL     1      21.642   0.508  52.763  1.00  0.00     0.339 A 
HETATM   14  N2  UNL     1      21.863   0.239  51.357  1.00  0.00     0.120 N 
HETATM   15  C12 UNL     1      21.052   1.059  50.498  1.00  0.00     0.194 A 
HETATM   16  C13 UNL     1      19.614   1.175  50.928  1.00  0.00     0.058 C 
HETATM   17  C14 UNL     1      21.102   0.603  49.086  1.00  0.00     0.021 A 
HETATM   18  C15 UNL     1      21.773   1.479  48.357  1.00  0.00     0.035 A 
HETATM   19  C16 UNL     1      22.181   2.628  49.155  1.00  0.00     0.067 A 
HETATM   20  C17 UNL     1      21.716   2.385  50.394  1.00  0.00     0.054 A 
HETATM   21  O1  UNL     1      22.839   3.848  49.172  1.00  0.00    -0.351 OA
HETATM   22  C18 UNL     1      23.012   4.689  48.050  1.00  0.00     0.176 C 
HETATM   23  C19 UNL     1      23.774   5.937  48.448  1.00  0.00     0.036 C 
HETATM   24  C20 UNL     1      25.145   5.587  49.000  1.00  0.00     0.016 C 
HETATM   25  C21 UNL     1      25.815   6.857  49.455  1.00  0.00     0.015 C 
HETATM   26  H10 UNL     1      21.863  -0.766  51.160  1.00  0.00     0.319 HD
ENDROOT
TORSDOF 0
ENDMDL
MODEL 5
REMARK VINA RESULT:      -7.2      2.562      5.512
REMARK  0 active torsions:
REMARK  status: ('A' for Active; 'I' for Inactive)
ROOT
HETATM    1  C1  UNL     1      24.904   3.169  49.725  1.00  0.00     0.049 C 
HETATM    2  C2  UNL     1      23.950   4.120  50.352  1.00  0.00    -0.050 A 
HETATM    3  C3  UNL     1      23.264   5.045  49.596  1.00  0.00     0.015 A 
HETATM    4  C4  UNL     1      22.385   5.913  50.207  1.00  0.00    -0.054 A 
HETATM    5  C5  UNL     1      22.184   5.870  51.570  1.00  0.00     0.008 A 
HETATM    6  C6  UNL     1      22.867   4.946  52.331  1.00  0.00     0.014 A 
HETATM    7  C7  UNL     1      23.759   4.062  51.724  1.00  0.00    -0.013 A 
HETATM    8  C8  UNL     1      24.474   3.076  52.539  1.00  0.00     0.129 C 
HETATM    9  N1  UNL     1      23.512   2.255  52.335  1.00  0.00    -0.261 NA
HETATM   10  C9  UNL     1      23.451   0.947  52.844  1.00  0.00     0.083 A 
HETATM   11  C10 UNL     1      23.918  -0.132  53.343  1.00  0.00     0.077 A 
HETATM   12  S1  UNL     1      22.447  -1.039  53.477  1.00  0.00    -0.098 SA
HETATM   13  C11 UNL     1      22.075   0.550  52.805  1.00  0.00     0.339 A 
HETATM   14  N2  UNL     1      21.617   0.516  51.431  1.00  0.00     0.120 N 
HETATM   15  C12 UNL     1      20.294   1.057  51.270  1.00  0.00     0.194 A 
HETATM   16  C13 UNL     1      19.305   0.593  52.306  1.00  0.00     0.058 C 
HETATM   17  C14 UNL     1      19.744   0.787  49.918  1.00  0.00     0.021 A 
HETATM   18  C15 UNL     1      19.684   1.914  49.228  1.00  0.00     0.035 A 
HETATM   19  C16 UNL     1      20.107   3.051  50.035  1.00  0.00     0.067 A 
HETATM   20  C17 UNL     1      20.421   2.537  51.238  1.00  0.00     0.054 A 
HETATM   21  O1  UNL     1      20.319   4.420  50.081  1.00  0.00    -0.351 OA
HETATM   22  C18 UNL     1      19.662   5.368  49.265  1.00  0.00     0.176 C 
HETATM   23  C19 UNL     1      20.144   6.765  49.598  1.00  0.00     0.036 C 
HETATM   24  C20 UNL     1      21.641   6.895  49.373  1.00  0.00     0.016 C 
HETATM   25  C21 UNL     1      22.072   8.273  49.801  1.00  0.00     0.015 C 
HETATM   26  H10 UNL     1      21.792  -0.395  50.997  1.00  0.00     0.319 HD
ENDROOT
TORSDOF 0
ENDMDL
MODEL 6
REMARK VINA RESULT:      -7.2      2.405      3.986
REMARK  0 active torsions:
REMARK  status: ('A' for Active; 'I' for Inactive)
ROOT
HETATM    1  C1  UNL     1      21.637   6.956  51.281  1.00  0.00     0.049 C 
HETATM    2  C2  UNL     1      22.470   6.278  50.255  1.00  0.00    -0.050 A 
HETATM    3  C3  UNL     1      23.844   6.256  50.352  1.00  0.00     0.015 A 
HETATM    4  C4  UNL     1      24.589   5.618  49.384  1.00  0.00    -0.054 A 
HETATM    5  C5  UNL     1      23.977   5.002  48.314  1.00  0.00     0.008 A 
HETATM    6  C6  UNL     1      22.603   5.022  48.211  1.00  0.00     0.014 A 
HETATM    7  C7  UNL     1      21.838   5.663  49.185  1.00  0.00    -0.013 A 
HETATM    8  C8  UNL     1      20.376   5.670  49.074  1.00  0.00     0.129 C 
HETATM    9  N1  UNL     1      20.350   4.588  49.758  1.00  0.00    -0.261 NA
HETATM   10  C9  UNL     1      19.182   3.891  50.115  1.00  0.00     0.083 A 
HETATM   11  C10 UNL     1      17.930   3.746  50.324  1.00  0.00     0.077 A 
HETATM   12  S1  UNL     1      17.919   2.080  50.805  1.00  0.00    -0.098 SA
HETATM   13  C11 UNL     1      19.578   2.552  50.433  1.00  0.00     0.339 A 
HETATM   14  N2  UNL     1      20.458   2.565  51.584  1.00  0.00     0.120 N 
HETATM   15  C12 UNL     1      21.566   1.658  51.449  1.00  0.00     0.194 A 
HETATM   16  C13 UNL     1      21.193   0.298  50.921  1.00  0.00     0.058 C 
HETATM   17  C14 UNL     1      22.310   1.497  52.724  1.00  0.00     0.021 A 
HETATM   18  C15 UNL     1      23.495   2.076  52.626  1.00  0.00     0.035 A 
HETATM   19  C16 UNL     1      23.709   2.617  51.290  1.00  0.00     0.067 A 
HETATM   20  C17 UNL     1      22.589   2.327  50.604  1.00  0.00     0.054 A 
HETATM   21  O1  UNL     1      24.571   3.296  50.443  1.00  0.00    -0.351 OA
HETATM   22  C18 UNL     1      25.978   3.325  50.574  1.00  0.00     0.176 C 
HETATM   23  C19 UNL     1      26.587   4.161  49.467  1.00  0.00     0.036 C 
HETATM   24  C20 UNL     1      26.071   5.589  49.515  1.00  0.00     0.016 C 
HETATM   25  C21 UNL     1      26.644   6.344  48.344  1.00  0.00     0.015 C 
HETATM   26  H10 UNL     1      19.934   2.516  52.461  1.00  0.00     0.319 HD
ENDROOT
TORSDOF 0
ENDMDL
MODEL 7
REMARK VINA RESULT:      -7.1      5.266      7.906
REMARK  0 active torsions:
REMARK  status: ('A' for Active; 'I' for Inactive)
ROOT
HETATM    1  C1  UNL     1      22.703   6.358  46.427  1.00  0.00     0.049 C 
HETATM    2  C2  UNL     1      22.871   5.978  47.853  1.00  0.00    -0.050 A 
HETATM    3  C3  UNL     1      23.212   4.692  48.213  1.00  0.00     0.015 A 
HETATM    4  C4  UNL     1      23.362   4.371  49.545  1.00  0.00    -0.054 A 
HETATM    5  C5  UNL     1      23.174   5.321  50.526  1.00  0.00     0.008 A 
HETATM    6  C6  UNL     1      22.834   6.608  50.171  1.00  0.00     0.014 A 
HETATM    7  C7  UNL     1      22.679   6.946  48.827  1.00  0.00    -0.013 A 
HETATM    8  C8  UNL     1      22.328   8.321  48.458  1.00  0.00     0.129 C 
HETATM    9  N1  UNL     1      23.578   8.589  48.388  1.00  0.00    -0.261 NA
HETATM   10  C9  UNL     1      24.113   9.845  48.051  1.00  0.00     0.083 A 
HETATM   11  C10 UNL     1      24.099  11.021  47.554  1.00  0.00     0.077 A 
HETATM   12  S1  UNL     1      25.722  11.501  47.928  1.00  0.00    -0.098 SA
HETATM   13  C11 UNL     1      25.460   9.865  48.536  1.00  0.00     0.339 A 
HETATM   14  N2  UNL     1      26.239   8.852  47.853  1.00  0.00     0.120 N 
HETATM   15  C12 UNL     1      27.129   8.144  48.734  1.00  0.00     0.194 A 
HETATM   16  C13 UNL     1      27.889   9.027  49.687  1.00  0.00     0.058 C 
HETATM   17  C14 UNL     1      28.090   7.295  47.987  1.00  0.00     0.021 A 
HETATM   18  C15 UNL     1      27.794   6.018  48.169  1.00  0.00     0.035 A 
HETATM   19  C16 UNL     1      26.675   5.863  49.090  1.00  0.00     0.067 A 
HETATM   20  C17 UNL     1      26.326   7.113  49.442  1.00  0.00     0.054 A 
HETATM   21  O1  UNL     1      25.833   4.978  49.745  1.00  0.00    -0.351 OA
HETATM   22  C18 UNL     1      26.154   3.639  50.063  1.00  0.00     0.176 C 
HETATM   23  C19 UNL     1      24.994   2.981  50.780  1.00  0.00     0.036 C 
HETATM   24  C20 UNL     1      23.746   2.981  49.915  1.00  0.00     0.016 C 
HETATM   25  C21 UNL     1      22.610   2.395  50.711  1.00  0.00     0.015 C 
HETATM   26  H10 UNL     1      26.647   9.210  46.985  1.00  0.00     0.319 HD
ENDROOT
TORSDOF 0
ENDMDL
MODEL 8
REMARK VINA RESULT:      -7.0      2.095      4.256
REMARK  0 active torsions:
REMARK  status: ('A' for Active; 'I' for Inactive)
ROOT
HETATM    1  C1  UNL     1      21.627  -0.083  51.796  1.00  0.00     0.049 C 
HETATM    2  C2  UNL     1      22.535   1.068  52.043  1.00  0.00    -0.050 A 
HETATM    3  C3  UNL     1      23.862   1.020  51.678  1.00  0.00     0.015 A 
HETATM    4  C4  UNL     1      24.678   2.104  51.919  1.00  0.00    -0.054 A 
HETATM    5  C5  UNL     1      24.183   3.239  52.525  1.00  0.00     0.008 A 
HETATM    6  C6  UNL     1      22.856   3.292  52.891  1.00  0.00     0.014 A 
HETATM    7  C7  UNL     1      22.020   2.202  52.652  1.00  0.00    -0.013 A 
HETATM    8  C8  UNL     1      20.607   2.271  53.035  1.00  0.00     0.129 C 
HETATM    9  N1  UNL     1      20.345   2.734  51.870  1.00  0.00    -0.261 NA
HETATM   10  C9  UNL     1      19.063   3.089  51.417  1.00  0.00     0.083 A 
HETATM   11  C10 UNL     1      17.785   3.089  51.417  1.00  0.00     0.077 A 
HETATM   12  S1  UNL     1      17.505   4.142  50.069  1.00  0.00    -0.098 SA
HETATM   13  C11 UNL     1      19.246   3.974  50.306  1.00  0.00     0.339 A 
HETATM   14  N2  UNL     1      19.921   3.274  49.232  1.00  0.00     0.120 N 
HETATM   15  C12 UNL     1      20.925   4.077  48.587  1.00  0.00     0.194 A 
HETATM   16  C13 UNL     1      20.491   5.486  48.283  1.00  0.00     0.058 C 
HETATM   17  C14 UNL     1      21.426   3.444  47.341  1.00  0.00     0.021 A 
HETATM   18  C15 UNL     1      22.670   3.030  47.520  1.00  0.00     0.035 A 
HETATM   19  C16 UNL     1      23.160   3.388  48.844  1.00  0.00     0.067 A 
HETATM   20  C17 UNL     1      22.142   4.036  49.438  1.00  0.00     0.054 A 
HETATM   21  O1  UNL     1      24.222   3.342  49.734  1.00  0.00    -0.351 OA
HETATM   22  C18 UNL     1      25.582   3.231  49.367  1.00  0.00     0.176 C 
HETATM   23  C19 UNL     1      26.456   3.214  50.605  1.00  0.00     0.036 C 
HETATM   24  C20 UNL     1      26.106   2.041  51.504  1.00  0.00     0.016 C 
HETATM   25  C21 UNL     1      26.945   2.127  52.751  1.00  0.00     0.015 C 
HETATM   26  H10 UNL     1      19.257   2.795  48.617  1.00  0.00     0.319 HD
ENDROOT
TORSDOF 0
ENDMDL
MODEL 9
REMARK VINA RESULT:      -7.0      6.149      8.530
REMARK  0 active torsions:
REMARK  status: ('A' for Active; 'I' for Inactive)
ROOT
HETATM    1  C1  UNL     1      25.185   4.695  49.320  1.00  0.00     0.049 C 
HETATM    2  C2  UNL     1      26.041   5.907  49.258  1.00  0.00    -0.050 A 
HETATM    3  C3  UNL     1      27.129   5.969  48.414  1.00  0.00     0.015 A 
HETATM    4  C4  UNL     1      27.904   7.109  48.379  1.00  0.00    -0.054 A 
HETATM    5  C5  UNL     1      27.606   8.190  49.179  1.00  0.00     0.008 A 
HETATM    6  C6  UNL     1      26.519   8.133  50.024  1.00  0.00     0.014 A 
HETATM    7  C7  UNL     1      25.727   6.986  50.069  1.00  0.00    -0.013 A 
HETATM    8  C8  UNL     1      24.566   6.939  50.963  1.00  0.00     0.129 C 
HETATM    9  N1  UNL     1      23.850   7.403  50.007  1.00  0.00    -0.261 NA
HETATM   10  C9  UNL     1      22.472   7.666  50.092  1.00  0.00     0.083 A 
HETATM   11  C10 UNL     1      21.294   7.567  50.577  1.00  0.00     0.077 A 
HETATM   12  S1  UNL     1      20.453   8.621  49.487  1.00  0.00    -0.098 SA
HETATM   13  C11 UNL     1      22.160   8.584  49.037  1.00  0.00     0.339 A 
HETATM   14  N2  UNL     1      22.417   7.959  47.756  1.00  0.00     0.120 N 
HETATM   15  C12 UNL     1      23.044   8.849  46.816  1.00  0.00     0.194 A 
HETATM   16  C13 UNL     1      22.438  10.226  46.767  1.00  0.00     0.058 C 
HETATM   17  C14 UNL     1      23.072   8.281  45.446  1.00  0.00     0.021 A 
HETATM   18  C15 UNL     1      24.313   7.961  45.119  1.00  0.00     0.035 A 
HETATM   19  C16 UNL     1      25.248   8.330  46.173  1.00  0.00     0.067 A 
HETATM   20  C17 UNL     1      24.494   8.885  47.140  1.00  0.00     0.054 A 
HETATM   21  O1  UNL     1      26.569   8.349  46.592  1.00  0.00    -0.351 OA
HETATM   22  C18 UNL     1      27.690   8.351  45.731  1.00  0.00     0.176 C 
HETATM   23  C19 UNL     1      28.970   8.378  46.542  1.00  0.00     0.036 C 
HETATM   24  C20 UNL     1      29.065   7.164  47.450  1.00  0.00     0.016 C 
HETATM   25  C21 UNL     1      30.310   7.291  48.289  1.00  0.00     0.015 C 
HETATM   26  H10 UNL     1      21.601   7.441  47.417  1.00  0.00     0.319 HD
ENDROOT
TORSDOF 0
ENDMDL
