MODEL 1
REMARK VINA RESULT:      -8.9      0.000      0.000
REMARK  3 active torsions:
REMARK  status: ('A' for Active; 'I' for Inactive)
REMARK    1  A    between atoms: N2_5  and  C4_6 
REMARK    2  A    between atoms: C6_8  and  N3_9 
REMARK       I    between atoms: N3_9  and  C7_10 
REMARK    3  A    between atoms: C7_10  and  C8_12 
ROOT
HETATM    1  C4  UNL     1      25.573   1.223  52.752  1.00  0.00     0.061 A 
HETATM    2  C5  UNL     1      25.977   2.349  52.034  1.00  0.00     0.061 A 
HETATM    3  C6  UNL     1      25.073   3.073  51.298  1.00  0.00     0.037 A 
HETATM    4  C14 UNL     1      23.765   2.614  51.322  1.00  0.00     0.030 A 
HETATM    5  C15 UNL     1      23.311   1.522  52.006  1.00  0.00     0.011 A 
HETATM    6  C16 UNL     1      24.251   0.810  52.742  1.00  0.00    -0.034 A 
HETATM    7  C17 UNL     1      23.877  -0.394  53.524  1.00  0.00     0.050 C 
ENDROOT
BRANCH   3   8
HETATM    8  N3  UNL     1      25.460   4.224  50.557  1.00  0.00    -0.323 N 
HETATM    9  C7  UNL     1      26.439   4.260  49.527  1.00  0.00     0.256 C 
HETATM   10  O1  UNL     1      27.065   3.225  49.179  1.00  0.00    -0.267 OA
HETATM   11  H7  UNL     1      24.942   5.083  50.843  1.00  0.00     0.169 HD
BRANCH   9  12
HETATM   12  C8  UNL     1      26.770   5.490  48.820  1.00  0.00     0.032 A 
HETATM   13  C9  UNL     1      28.062   5.667  48.375  1.00  0.00     0.017 A 
HETATM   14  C10 UNL     1      28.498   6.803  47.685  1.00  0.00     0.001 A 
HETATM   15  C11 UNL     1      27.594   7.813  47.429  1.00  0.00     0.000 A 
HETATM   16  C12 UNL     1      26.292   7.634  47.879  1.00  0.00     0.001 A 
HETATM   17  C13 UNL     1      25.880   6.504  48.558  1.00  0.00     0.017 A 
ENDBRANCH   9  12
ENDBRANCH   3   8
BRANCH   1  18
HETATM   18  N2  UNL     1      26.607   0.560  53.475  1.00  0.00    -0.271 N 
HETATM   19  C3  UNL     1      26.792   0.391  54.919  1.00  0.00     0.299 A 
HETATM   20  N1  UNL     1      28.027  -0.371  54.973  1.00  0.00    -0.255 NA
HETATM   21  C2  UNL     1      28.490  -0.612  53.811  1.00  0.00     0.111 A 
HETATM   22  C1  UNL     1      29.760  -1.384  53.617  1.00  0.00     0.092 C 
HETATM   23  N4  UNL     1      27.674  -0.071  52.804  1.00  0.00    -0.284 N 
HETATM   24  H18 UNL     1      27.826  -0.125  51.753  1.00  0.00     0.188 HD
ENDBRANCH   1  18
TORSDOF 3
ENDMDL
MODEL 2
REMARK VINA RESULT:      -8.3      2.366      7.421
REMARK  3 active torsions:
REMARK  status: ('A' for Active; 'I' for Inactive)
REMARK    1  A    between atoms: N2_5  and  C4_6 
REMARK    2  A    between atoms: C6_8  and  N3_9 
REMARK       I    between atoms: N3_9  and  C7_10 
REMARK    3  A    between atoms: C7_10  and  C8_12 
ROOT
HETATM    1  C4  UNL     1      24.459   4.723  50.952  1.00  0.00     0.061 A 
HETATM    2  C5  UNL     1      25.346   3.655  51.096  1.00  0.00     0.061 A 
HETATM    3  C6  UNL     1      24.967   2.513  51.756  1.00  0.00     0.037 A 
HETATM    4  C14 UNL     1      23.674   2.502  52.256  1.00  0.00     0.030 A 
HETATM    5  C15 UNL     1      22.763   3.515  52.146  1.00  0.00     0.011 A 
HETATM    6  C16 UNL     1      23.177   4.657  51.471  1.00  0.00    -0.034 A 
HETATM    7  C17 UNL     1      22.276   5.822  51.289  1.00  0.00     0.050 C 
ENDROOT
BRANCH   3   8
HETATM    8  N3  UNL     1      25.852   1.411  51.916  1.00  0.00    -0.323 N 
HETATM    9  C7  UNL     1      26.671   1.160  53.050  1.00  0.00     0.256 C 
HETATM   10  O1  UNL     1      26.674   1.932  54.044  1.00  0.00    -0.267 OA
HETATM   11  H7  UNL     1      25.851   0.768  51.095  1.00  0.00     0.169 HD
BRANCH   9  12
HETATM   12  C8  UNL     1      27.549  -0.001  53.126  1.00  0.00     0.032 A 
HETATM   13  C9  UNL     1      27.045  -1.232  52.766  1.00  0.00     0.017 A 
HETATM   14  C10 UNL     1      27.791  -2.415  52.797  1.00  0.00     0.001 A 
HETATM   15  C11 UNL     1      29.106  -2.362  53.209  1.00  0.00     0.000 A 
HETATM   16  C12 UNL     1      29.613  -1.120  53.572  1.00  0.00     0.001 A 
HETATM   17  C13 UNL     1      28.860   0.038  53.534  1.00  0.00     0.017 A 
ENDBRANCH   9  12
ENDBRANCH   3   8
BRANCH   1  18
HETATM   18  N2  UNL     1      24.974   5.848  50.246  1.00  0.00    -0.271 N 
HETATM   19  C3  UNL     1      24.979   6.142  48.810  1.00  0.00     0.299 A 
HETATM   20  N1  UNL     1      25.647   7.431  48.773  1.00  0.00    -0.255 NA
HETATM   21  C2  UNL     1      25.975   7.832  49.936  1.00  0.00     0.111 A 
HETATM   22  C1  UNL     1      26.680   9.139  50.145  1.00  0.00     0.092 C 
HETATM   23  N4  UNL     1      25.598   6.912  50.928  1.00  0.00    -0.284 N 
HETATM   24  H18 UNL     1      25.750   6.997  51.977  1.00  0.00     0.188 HD
ENDBRANCH   1  18
TORSDOF 3
ENDMDL
MODEL 3
REMARK VINA RESULT:      -8.0      3.770      7.346
REMARK  3 active torsions:
REMARK  status: ('A' for Active; 'I' for Inactive)
REMARK    1  A    between atoms: N2_5  and  C4_6 
REMARK    2  A    between atoms: C6_8  and  N3_9 
REMARK       I    between atoms: N3_9  and  C7_10 
REMARK    3  A    between atoms: C7_10  and  C8_12 
ROOT
HETATM    1  C4  UNL     1      25.060   1.748  51.725  1.00  0.00     0.061 A 
HETATM    2  C5  UNL     1      23.894   1.016  51.952  1.00  0.00     0.061 A 
HETATM    3  C6  UNL     1      22.780   1.213  51.176  1.00  0.00     0.037 A 
HETATM    4  C14 UNL     1      22.897   2.168  50.177  1.00  0.00     0.030 A 
HETATM    5  C15 UNL     1      24.010   2.913  49.907  1.00  0.00     0.011 A 
HETATM    6  C16 UNL     1      25.122   2.689  50.711  1.00  0.00    -0.034 A 
HETATM    7  C17 UNL     1      26.387   3.438  50.514  1.00  0.00     0.050 C 
ENDROOT
BRANCH   3   8
HETATM    8  N3  UNL     1      21.579   0.480  51.388  1.00  0.00    -0.323 N 
HETATM    9  C7  UNL     1      20.526   0.845  52.270  1.00  0.00     0.256 C 
HETATM   10  O1  UNL     1      20.583   1.895  52.962  1.00  0.00    -0.267 OA
HETATM   11  H7  UNL     1      21.529  -0.390  50.814  1.00  0.00     0.169 HD
BRANCH   9  12
HETATM   12  C8  UNL     1      19.328   0.029  52.421  1.00  0.00     0.032 A 
HETATM   13  C9  UNL     1      18.293   0.207  51.529  1.00  0.00     0.017 A 
HETATM   14  C10 UNL     1      17.096  -0.516  51.574  1.00  0.00     0.001 A 
HETATM   15  C11 UNL     1      16.929  -1.464  52.561  1.00  0.00     0.000 A 
HETATM   16  C12 UNL     1      17.973  -1.643  53.460  1.00  0.00     0.001 A 
HETATM   17  C13 UNL     1      19.148  -0.919  53.400  1.00  0.00     0.017 A 
ENDBRANCH   9  12
ENDBRANCH   3   8
BRANCH   1  18
HETATM   18  N2  UNL     1      26.145   1.449  52.599  1.00  0.00    -0.271 N 
HETATM   19  C3  UNL     1      26.570   2.105  53.838  1.00  0.00     0.299 A 
HETATM   20  N1  UNL     1      27.725   1.310  54.215  1.00  0.00    -0.255 NA
HETATM   21  C2  UNL     1      27.951   0.373  53.383  1.00  0.00     0.111 A 
HETATM   22  C1  UNL     1      29.095  -0.579  53.565  1.00  0.00     0.092 C 
HETATM   23  N4  UNL     1      27.017   0.373  52.334  1.00  0.00    -0.284 N 
HETATM   24  H18 UNL     1      26.974  -0.297  51.509  1.00  0.00     0.188 HD
ENDBRANCH   1  18
TORSDOF 3
ENDMDL
MODEL 4
REMARK VINA RESULT:      -7.9      2.577      7.819
REMARK  3 active torsions:
REMARK  status: ('A' for Active; 'I' for Inactive)
REMARK    1  A    between atoms: N2_5  and  C4_6 
REMARK    2  A    between atoms: C6_8  and  N3_9 
REMARK       I    between atoms: N3_9  and  C7_10 
REMARK    3  A    between atoms: C7_10  and  C8_12 
ROOT
HETATM    1  C4  UNL     1      26.667   6.423  48.543  1.00  0.00     0.061 A 
HETATM    2  C5  UNL     1      26.805   5.202  49.203  1.00  0.00     0.061 A 
HETATM    3  C6  UNL     1      25.710   4.414  49.455  1.00  0.00     0.037 A 
HETATM    4  C14 UNL     1      24.492   4.909  49.016  1.00  0.00     0.030 A 
HETATM    5  C15 UNL     1      24.296   6.094  48.364  1.00  0.00     0.011 A 
HETATM    6  C16 UNL     1      25.424   6.869  48.124  1.00  0.00    -0.034 A 
HETATM    7  C17 UNL     1      25.336   8.176  47.426  1.00  0.00     0.050 C 
ENDROOT
BRANCH   3   8
HETATM    8  N3  UNL     1      25.824   3.165  50.127  1.00  0.00    -0.323 N 
HETATM    9  C7  UNL     1      25.207   2.826  51.361  1.00  0.00     0.256 C 
HETATM   10  O1  UNL     1      24.479   3.645  51.980  1.00  0.00    -0.267 OA
HETATM   11  H7  UNL     1      26.426   2.484  49.616  1.00  0.00     0.169 HD
BRANCH   9  12
HETATM   12  C8  UNL     1      25.381   1.516  51.976  1.00  0.00     0.032 A 
HETATM   13  C9  UNL     1      26.575   0.853  51.787  1.00  0.00     0.017 A 
HETATM   14  C10 UNL     1      26.858  -0.406  52.327  1.00  0.00     0.001 A 
HETATM   15  C11 UNL     1      25.897  -1.032  53.093  1.00  0.00     0.000 A 
HETATM   16  C12 UNL     1      24.694  -0.364  53.282  1.00  0.00     0.001 A 
HETATM   17  C13 UNL     1      24.433   0.881  52.741  1.00  0.00     0.017 A 
ENDBRANCH   9  12
ENDBRANCH   3   8
BRANCH   1  18
HETATM   18  N2  UNL     1      27.879   7.146  48.342  1.00  0.00    -0.271 N 
HETATM   19  C3  UNL     1      28.788   7.167  47.193  1.00  0.00     0.299 A 
HETATM   20  N1  UNL     1      29.809   8.097  47.639  1.00  0.00    -0.255 NA
HETATM   21  C2  UNL     1      29.570   8.544  48.807  1.00  0.00     0.111 A 
HETATM   22  C1  UNL     1      30.490   9.520  49.477  1.00  0.00     0.092 C 
HETATM   23  N4  UNL     1      28.384   8.010  49.335  1.00  0.00    -0.284 N 
HETATM   24  H18 UNL     1      27.953   8.212  50.286  1.00  0.00     0.188 HD
ENDBRANCH   1  18
TORSDOF 3
ENDMDL
MODEL 5
REMARK VINA RESULT:      -7.9      4.805      7.426
REMARK  3 active torsions:
REMARK  status: ('A' for Active; 'I' for Inactive)
REMARK    1  A    between atoms: N2_5  and  C4_6 
REMARK    2  A    between atoms: C6_8  and  N3_9 
REMARK       I    between atoms: N3_9  and  C7_10 
REMARK    3  A    between atoms: C7_10  and  C8_12 
ROOT
HETATM    1  C4  UNL     1      21.312   0.333  52.386  1.00  0.00     0.061 A 
HETATM    2  C5  UNL     1      22.705   0.260  52.433  1.00  0.00     0.061 A 
HETATM    3  C6  UNL     1      23.334  -0.573  53.323  1.00  0.00     0.037 A 
HETATM    4  C14 UNL     1      22.504  -1.316  54.149  1.00  0.00     0.030 A 
HETATM    5  C15 UNL     1      21.137  -1.287  54.148  1.00  0.00     0.011 A 
HETATM    6  C16 UNL     1      20.531  -0.434  53.235  1.00  0.00    -0.034 A 
HETATM    7  C17 UNL     1      19.055  -0.317  53.141  1.00  0.00     0.050 C 
ENDROOT
BRANCH   3   8
HETATM    8  N3  UNL     1      24.752  -0.665  53.392  1.00  0.00    -0.323 N 
HETATM    9  C7  UNL     1      25.652   0.429  53.498  1.00  0.00     0.256 C 
HETATM   10  O1  UNL     1      25.241   1.618  53.541  1.00  0.00    -0.267 OA
HETATM   11  H7  UNL     1      25.096  -1.649  53.357  1.00  0.00     0.169 HD
BRANCH   9  12
HETATM   12  C8  UNL     1      27.096   0.237  53.563  1.00  0.00     0.032 A 
HETATM   13  C9  UNL     1      27.611  -0.996  53.227  1.00  0.00     0.017 A 
HETATM   14  C10 UNL     1      28.977  -1.299  53.250  1.00  0.00     0.001 A 
HETATM   15  C11 UNL     1      29.869  -0.318  53.629  1.00  0.00     0.000 A 
HETATM   16  C12 UNL     1      29.348   0.925  53.969  1.00  0.00     0.001 A 
HETATM   17  C13 UNL     1      27.995   1.205  53.938  1.00  0.00     0.017 A 
ENDBRANCH   9  12
ENDBRANCH   3   8
BRANCH   1  18
HETATM   18  N2  UNL     1      20.783   1.235  51.418  1.00  0.00    -0.271 N 
HETATM   19  C3  UNL     1      20.442   1.017  50.009  1.00  0.00     0.299 A 
HETATM   20  N1  UNL     1      19.962   2.328  49.613  1.00  0.00    -0.255 NA
HETATM   21  C2  UNL     1      20.003   3.162  50.575  1.00  0.00     0.111 A 
HETATM   22  C1  UNL     1      19.556   4.583  50.402  1.00  0.00     0.092 C 
HETATM   23  N4  UNL     1      20.502   2.576  51.749  1.00  0.00    -0.284 N 
HETATM   24  H18 UNL     1      20.641   3.043  52.694  1.00  0.00     0.188 HD
ENDBRANCH   1  18
TORSDOF 3
ENDMDL
MODEL 6
REMARK VINA RESULT:      -7.8      3.214      7.300
REMARK  3 active torsions:
REMARK  status: ('A' for Active; 'I' for Inactive)
REMARK    1  A    between atoms: N2_5  and  C4_6 
REMARK    2  A    between atoms: C6_8  and  N3_9 
REMARK       I    between atoms: N3_9  and  C7_10 
REMARK    3  A    between atoms: C7_10  and  C8_12 
ROOT
HETATM    1  C4  UNL     1      22.664   2.725  51.828  1.00  0.00     0.061 A 
HETATM    2  C5  UNL     1      23.845   1.988  51.921  1.00  0.00     0.061 A 
HETATM    3  C6  UNL     1      23.870   0.784  52.578  1.00  0.00     0.037 A 
HETATM    4  C14 UNL     1      22.666   0.367  53.127  1.00  0.00     0.030 A 
HETATM    5  C15 UNL     1      21.481   1.044  53.066  1.00  0.00     0.011 A 
HETATM    6  C16 UNL     1      21.489   2.260  52.394  1.00  0.00    -0.034 A 
HETATM    7  C17 UNL     1      20.262   3.085  52.263  1.00  0.00     0.050 C 
ENDROOT
BRANCH   3   8
HETATM    8  N3  UNL     1      25.061   0.014  52.688  1.00  0.00    -0.323 N 
HETATM    9  C7  UNL     1      26.303   0.472  53.204  1.00  0.00     0.256 C 
HETATM   10  O1  UNL     1      26.447   1.650  53.622  1.00  0.00    -0.267 OA
HETATM   11  H7  UNL     1      24.944  -0.964  52.343  1.00  0.00     0.169 HD
BRANCH   9  12
HETATM   12  C8  UNL     1      27.474  -0.393  53.279  1.00  0.00     0.032 A 
HETATM   13  C9  UNL     1      27.342  -1.713  52.905  1.00  0.00     0.017 A 
HETATM   14  C10 UNL     1      28.392  -2.637  52.933  1.00  0.00     0.001 A 
HETATM   15  C11 UNL     1      29.635  -2.217  53.357  1.00  0.00     0.000 A 
HETATM   16  C12 UNL     1      29.767  -0.887  53.735  1.00  0.00     0.001 A 
HETATM   17  C13 UNL     1      28.717   0.011  53.699  1.00  0.00     0.017 A 
ENDBRANCH   9  12
ENDBRANCH   3   8
BRANCH   1  18
HETATM   18  N2  UNL     1      22.771   3.957  51.120  1.00  0.00    -0.271 N 
HETATM   19  C3  UNL     1      22.495   4.268  49.715  1.00  0.00     0.299 A 
HETATM   20  N1  UNL     1      22.805   5.685  49.656  1.00  0.00    -0.255 NA
HETATM   21  C2  UNL     1      23.187   6.136  50.784  1.00  0.00     0.111 A 
HETATM   22  C1  UNL     1      23.563   7.576  50.966  1.00  0.00     0.092 C 
HETATM   23  N4  UNL     1      23.201   5.134  51.767  1.00  0.00    -0.284 N 
HETATM   24  H18 UNL     1      23.477   5.236  52.789  1.00  0.00     0.188 HD
ENDBRANCH   1  18
TORSDOF 3
ENDMDL
MODEL 7
REMARK VINA RESULT:      -7.8      2.365      2.965
REMARK  3 active torsions:
REMARK  status: ('A' for Active; 'I' for Inactive)
REMARK    1  A    between atoms: N2_5  and  C4_6 
REMARK    2  A    between atoms: C6_8  and  N3_9 
REMARK       I    between atoms: N3_9  and  C7_10 
REMARK    3  A    between atoms: C7_10  and  C8_12 
ROOT
HETATM    1  C4  UNL     1      24.898   0.214  53.268  1.00  0.00     0.061 A 
HETATM    2  C5  UNL     1      24.791   1.073  52.174  1.00  0.00     0.061 A 
HETATM    3  C6  UNL     1      23.562   1.400  51.657  1.00  0.00     0.037 A 
HETATM    4  C14 UNL     1      22.467   0.827  52.286  1.00  0.00     0.030 A 
HETATM    5  C15 UNL     1      22.511  -0.018  53.359  1.00  0.00     0.011 A 
HETATM    6  C16 UNL     1      23.769  -0.329  53.860  1.00  0.00    -0.034 A 
HETATM    7  C17 UNL     1      23.943  -1.236  55.021  1.00  0.00     0.050 C 
ENDROOT
BRANCH   3   8
HETATM    8  N3  UNL     1      23.426   2.272  50.542  1.00  0.00    -0.323 N 
HETATM    9  C7  UNL     1      23.494   3.691  50.582  1.00  0.00     0.256 C 
HETATM   10  O1  UNL     1      23.691   4.310  51.660  1.00  0.00    -0.267 OA
HETATM   11  H7  UNL     1      23.264   1.762  49.646  1.00  0.00     0.169 HD
BRANCH   9  12
HETATM   12  C8  UNL     1      23.342   4.506  49.383  1.00  0.00     0.032 A 
HETATM   13  C9  UNL     1      22.471   4.080  48.404  1.00  0.00     0.017 A 
HETATM   14  C10 UNL     1      22.241   4.776  47.212  1.00  0.00     0.001 A 
HETATM   15  C11 UNL     1      22.920   5.956  46.991  1.00  0.00     0.000 A 
HETATM   16  C12 UNL     1      23.799   6.384  47.977  1.00  0.00     0.001 A 
HETATM   17  C13 UNL     1      24.011   5.682  49.149  1.00  0.00     0.017 A 
ENDBRANCH   9  12
ENDBRANCH   3   8
BRANCH   1  18
HETATM   18  N2  UNL     1      26.228  -0.044  53.709  1.00  0.00    -0.271 N 
HETATM   19  C3  UNL     1      26.941   0.437  54.896  1.00  0.00     0.299 A 
HETATM   20  N1  UNL     1      28.238  -0.197  54.741  1.00  0.00    -0.255 NA
HETATM   21  C2  UNL     1      28.298  -0.909  53.687  1.00  0.00     0.111 A 
HETATM   22  C1  UNL     1      29.542  -1.661  53.317  1.00  0.00     0.092 C 
HETATM   23  N4  UNL     1      27.091  -0.880  52.971  1.00  0.00    -0.284 N 
HETATM   24  H18 UNL     1      26.868  -1.383  52.061  1.00  0.00     0.188 HD
ENDBRANCH   1  18
TORSDOF 3
ENDMDL
MODEL 8
REMARK VINA RESULT:      -7.7      3.980      8.303
REMARK  3 active torsions:
REMARK  status: ('A' for Active; 'I' for Inactive)
REMARK    1  A    between atoms: N2_5  and  C4_6 
REMARK    2  A    between atoms: C6_8  and  N3_9 
REMARK       I    between atoms: N3_9  and  C7_10 
REMARK    3  A    between atoms: C7_10  and  C8_12 
ROOT
HETATM    1  C4  UNL     1      24.726   1.728  52.211  1.00  0.00     0.061 A 
HETATM    2  C5  UNL     1      23.437   1.235  52.006  1.00  0.00     0.061 A 
HETATM    3  C6  UNL     1      22.972   0.167  52.732  1.00  0.00     0.037 A 
HETATM    4  C14 UNL     1      23.855  -0.369  53.657  1.00  0.00     0.030 A 
HETATM    5  C15 UNL     1      25.125   0.071  53.902  1.00  0.00     0.011 A 
HETATM    6  C16 UNL     1      25.567   1.154  53.151  1.00  0.00    -0.034 A 
HETATM    7  C17 UNL     1      26.927   1.720  53.326  1.00  0.00     0.050 C 
ENDROOT
BRANCH   3   8
HETATM    8  N3  UNL     1      21.662  -0.355  52.542  1.00  0.00    -0.323 N 
HETATM    9  C7  UNL     1      20.562  -0.184  53.426  1.00  0.00     0.256 C 
HETATM   10  O1  UNL     1      20.672   0.475  54.493  1.00  0.00    -0.267 OA
HETATM   11  H7  UNL     1      21.568  -0.901  51.659  1.00  0.00     0.169 HD
BRANCH   9  12
HETATM   12  C8  UNL     1      19.252  -0.758  53.147  1.00  0.00     0.032 A 
HETATM   13  C9  UNL     1      18.454  -0.149  52.203  1.00  0.00     0.017 A 
HETATM   14  C10 UNL     1      17.180  -0.607  51.850  1.00  0.00     0.001 A 
HETATM   15  C11 UNL     1      16.682  -1.731  52.475  1.00  0.00     0.000 A 
HETATM   16  C12 UNL     1      17.486  -2.343  53.428  1.00  0.00     0.001 A 
HETATM   17  C13 UNL     1      18.743  -1.876  53.762  1.00  0.00     0.017 A 
ENDBRANCH   9  12
ENDBRANCH   3   8
BRANCH   1  18
HETATM   18  N2  UNL     1      25.088   2.839  51.395  1.00  0.00    -0.271 N 
HETATM   19  C3  UNL     1      24.463   4.158  51.262  1.00  0.00     0.299 A 
HETATM   20  N1  UNL     1      25.320   4.796  50.279  1.00  0.00    -0.255 NA
HETATM   21  C2  UNL     1      26.263   4.028  49.899  1.00  0.00     0.111 A 
HETATM   22  C1  UNL     1      27.275   4.471  48.885  1.00  0.00     0.092 C 
HETATM   23  N4  UNL     1      26.206   2.780  50.538  1.00  0.00    -0.284 N 
HETATM   24  H18 UNL     1      26.867   1.957  50.407  1.00  0.00     0.188 HD
ENDBRANCH   1  18
TORSDOF 3
ENDMDL
MODEL 9
REMARK VINA RESULT:      -7.7      2.539      3.955
REMARK  3 active torsions:
REMARK  status: ('A' for Active; 'I' for Inactive)
REMARK    1  A    between atoms: N2_5  and  C4_6 
REMARK    2  A    between atoms: C6_8  and  N3_9 
REMARK       I    between atoms: N3_9  and  C7_10 
REMARK    3  A    between atoms: C7_10  and  C8_12 
ROOT
HETATM    1  C4  UNL     1      24.980   0.337  52.917  1.00  0.00     0.061 A 
HETATM    2  C5  UNL     1      24.674   1.655  52.578  1.00  0.00     0.061 A 
HETATM    3  C6  UNL     1      25.540   2.405  51.823  1.00  0.00     0.037 A 
HETATM    4  C14 UNL     1      26.710   1.771  51.433  1.00  0.00     0.030 A 
HETATM    5  C15 UNL     1      27.063   0.485  51.733  1.00  0.00     0.011 A 
HETATM    6  C16 UNL     1      26.164  -0.248  52.499  1.00  0.00    -0.034 A 
HETATM    7  C17 UNL     1      26.439  -1.653  52.888  1.00  0.00     0.050 C 
ENDROOT
BRANCH   3   8
HETATM    8  N3  UNL     1      25.251   3.751  51.464  1.00  0.00    -0.323 N 
HETATM    9  C7  UNL     1      24.653   4.178  50.248  1.00  0.00     0.256 C 
HETATM   10  O1  UNL     1      24.320   3.356  49.355  1.00  0.00    -0.267 OA
HETATM   11  H7  UNL     1      25.525   4.434  52.203  1.00  0.00     0.169 HD
BRANCH   9  12
HETATM   12  C8  UNL     1      24.394   5.585  49.968  1.00  0.00     0.032 A 
HETATM   13  C9  UNL     1      23.975   6.395  51.000  1.00  0.00     0.017 A 
HETATM   14  C10 UNL     1      23.696   7.758  50.854  1.00  0.00     0.001 A 
HETATM   15  C11 UNL     1      23.844   8.337  49.611  1.00  0.00     0.000 A 
HETATM   16  C12 UNL     1      24.266   7.519  48.570  1.00  0.00     0.001 A 
HETATM   17  C13 UNL     1      24.538   6.174  48.735  1.00  0.00     0.017 A 
ENDBRANCH   9  12
ENDBRANCH   3   8
BRANCH   1  18
HETATM   18  N2  UNL     1      23.999  -0.332  53.703  1.00  0.00    -0.271 N 
HETATM   19  C3  UNL     1      24.097  -0.913  55.046  1.00  0.00     0.299 A 
HETATM   20  N1  UNL     1      22.755  -1.429  55.245  1.00  0.00    -0.255 NA
HETATM   21  C2  UNL     1      22.004  -1.208  54.240  1.00  0.00     0.111 A 
HETATM   22  C1  UNL     1      20.572  -1.653  54.218  1.00  0.00     0.092 C 
HETATM   23  N4  UNL     1      22.688  -0.527  53.221  1.00  0.00    -0.284 N 
HETATM   24  H18 UNL     1      22.302  -0.220  52.279  1.00  0.00     0.188 HD
ENDBRANCH   1  18
TORSDOF 3
ENDMDL
