MODEL 1
REMARK VINA RESULT:      -8.3      0.000      0.000
REMARK  5 active torsions:
REMARK  status: ('A' for Active; 'I' for Inactive)
REMARK    1  A    between atoms: O1_2  and  C2_3 
REMARK    2  A    between atoms: C5_6  and  N1_7 
REMARK    3  A    between atoms: N1_7  and  C6_8 
REMARK    4  A    between atoms: C6_8  and  C7_9 
REMARK    5  A    between atoms: C17_21  and  O2_22 
ROOT
HETATM    1  O2  UNL     1      18.837  -0.057  52.375  1.00  0.00    -0.266 OA
HETATM    2  C18 UNL     1      17.633   0.043  52.132  1.00  0.00     0.022 C 
HETATM    3  P1  UNL     1      16.182   0.163  51.809  1.00  0.00     0.079 P 
ENDROOT
BRANCH   1   4
HETATM    4  C17 UNL     1      20.048  -0.165  52.677  1.00  0.00     0.121 A 
HETATM    5  C2  UNL     1      21.107   0.444  51.952  1.00  0.00     0.102 A 
HETATM    6  C3  UNL     1      22.441   0.138  52.463  1.00  0.00     0.053 A 
HETATM    7  C4  UNL     1      22.788  -0.775  53.718  1.00  0.00     0.143 A 
HETATM    8  C5  UNL     1      23.973  -0.483  53.385  1.00  0.00     0.096 A 
HETATM    9  C15 UNL     1      21.558  -1.079  54.062  1.00  0.00     0.073 A 
HETATM   10  N2  UNL     1      24.154  -0.963  54.661  1.00  0.00    -0.205 NA
HETATM   11  N3  UNL     1      22.157  -1.476  55.299  1.00  0.00    -0.251 NA
HETATM   12  C16 UNL     1      20.255  -0.949  53.779  1.00  0.00     0.071 A 
HETATM   13  C14 UNL     1      23.415  -1.425  55.597  1.00  0.00     0.186 A 
BRANCH   5  14
HETATM   14  O1  UNL     1      20.572   1.172  50.953  1.00  0.00    -0.353 OA
HETATM   15  C1  UNL     1      20.783   1.201  49.609  1.00  0.00     0.210 C 
ENDBRANCH   5  14
BRANCH   8  16
HETATM   16  N1  UNL     1      25.278  -0.189  52.821  1.00  0.00    -0.377 N 
HETATM   17  H5  UNL     1      24.818   0.730  52.805  1.00  0.00     0.160 HD
BRANCH  16  18
HETATM   18  C6  UNL     1      26.133  -1.392  52.746  1.00  0.00     0.159 C 
BRANCH  18  19
HETATM   19  C7  UNL     1      27.481  -0.887  53.073  1.00  0.00    -0.040 A 
HETATM   20  C8  UNL     1      28.633  -1.684  53.198  1.00  0.00     0.009 A 
HETATM   21  C9  UNL     1      29.805  -1.006  53.508  1.00  0.00     0.001 A 
HETATM   22  C10 UNL     1      29.948   0.336  53.700  1.00  0.00     0.007 A 
HETATM   23  C11 UNL     1      28.811   1.060  53.569  1.00  0.00    -0.061 A 
HETATM   24  C12 UNL     1      29.044   2.518  53.745  1.00  0.00     0.048 C 
HETATM   25  C13 UNL     1      27.566   0.526  53.264  1.00  0.00     0.015 A 
ENDBRANCH  18  19
ENDBRANCH  16  18
ENDBRANCH   8  16
ENDBRANCH   1   4
TORSDOF 5
ENDMDL
MODEL 2
REMARK VINA RESULT:      -8.0      2.383      3.933
REMARK  5 active torsions:
REMARK  status: ('A' for Active; 'I' for Inactive)
REMARK    1  A    between atoms: O1_2  and  C2_3 
REMARK    2  A    between atoms: C5_6  and  N1_7 
REMARK    3  A    between atoms: N1_7  and  C6_8 
REMARK    4  A    between atoms: C6_8  and  C7_9 
REMARK    5  A    between atoms: C17_21  and  O2_22 
ROOT
HETATM    1  O2  UNL     1      19.880  -0.193  52.681  1.00  0.00    -0.266 OA
HETATM    2  C18 UNL     1      18.915  -0.893  52.997  1.00  0.00     0.022 C 
HETATM    3  P1  UNL     1      17.738  -1.716  53.396  1.00  0.00     0.079 P 
ENDROOT
BRANCH   1   4
HETATM    4  C17 UNL     1      20.876   0.476  52.323  1.00  0.00     0.121 A 
HETATM    5  C2  UNL     1      22.052   0.636  53.105  1.00  0.00     0.102 A 
HETATM    6  C3  UNL     1      23.063   1.500  52.503  1.00  0.00     0.053 A 
HETATM    7  C4  UNL     1      22.964   2.238  51.098  1.00  0.00     0.143 A 
HETATM    8  C5  UNL     1      24.107   2.663  51.435  1.00  0.00     0.096 A 
HETATM    9  C15 UNL     1      21.777   1.798  50.749  1.00  0.00     0.073 A 
HETATM   10  N2  UNL     1      24.090   2.950  50.090  1.00  0.00    -0.205 NA
HETATM   11  N3  UNL     1      22.159   2.237  49.443  1.00  0.00    -0.251 NA
HETATM   12  C16 UNL     1      20.714   1.059  51.096  1.00  0.00     0.071 A 
HETATM   13  C14 UNL     1      23.277   2.798  49.114  1.00  0.00     0.186 A 
BRANCH   5  14
HETATM   14  O1  UNL     1      21.910  -0.088  54.232  1.00  0.00    -0.353 OA
HETATM   15  C1  UNL     1      22.648  -1.083  54.795  1.00  0.00     0.210 C 
ENDBRANCH   5  14
BRANCH   8  16
HETATM   16  N1  UNL     1      25.339   3.188  51.996  1.00  0.00    -0.377 N 
HETATM   17  H5  UNL     1      24.622   3.605  52.605  1.00  0.00     0.160 HD
BRANCH  16  18
HETATM   18  C6  UNL     1      26.530   2.709  51.264  1.00  0.00     0.159 C 
BRANCH  18  19
HETATM   19  C7  UNL     1      27.118   1.702  52.169  1.00  0.00    -0.040 A 
HETATM   20  C8  UNL     1      27.963   1.989  53.255  1.00  0.00     0.009 A 
HETATM   21  C9  UNL     1      28.404   0.890  53.983  1.00  0.00     0.001 A 
HETATM   22  C10 UNL     1      28.102  -0.419  53.754  1.00  0.00     0.007 A 
HETATM   23  C11 UNL     1      27.285  -0.644  52.697  1.00  0.00    -0.061 A 
HETATM   24  C12 UNL     1      26.960  -2.085  52.529  1.00  0.00     0.048 C 
HETATM   25  C13 UNL     1      26.766   0.348  51.875  1.00  0.00     0.015 A 
ENDBRANCH  18  19
ENDBRANCH  16  18
ENDBRANCH   8  16
ENDBRANCH   1   4
TORSDOF 5
ENDMDL
MODEL 3
REMARK VINA RESULT:      -7.9      3.432      4.446
REMARK  5 active torsions:
REMARK  status: ('A' for Active; 'I' for Inactive)
REMARK    1  A    between atoms: O1_2  and  C2_3 
REMARK    2  A    between atoms: C5_6  and  N1_7 
REMARK    3  A    between atoms: N1_7  and  C6_8 
REMARK    4  A    between atoms: C6_8  and  C7_9 
REMARK    5  A    between atoms: C17_21  and  O2_22 
ROOT
HETATM    1  O2  UNL     1      20.330  -0.259  53.158  1.00  0.00    -0.266 OA
HETATM    2  C18 UNL     1      19.181  -0.707  53.151  1.00  0.00     0.022 C 
HETATM    3  P1  UNL     1      17.781  -1.220  53.145  1.00  0.00     0.079 P 
ENDROOT
BRANCH   1   4
HETATM    4  C17 UNL     1      21.516   0.144  53.151  1.00  0.00     0.121 A 
HETATM    5  C2  UNL     1      21.932   1.387  52.602  1.00  0.00     0.102 A 
HETATM    6  C3  UNL     1      23.372   1.622  52.665  1.00  0.00     0.053 A 
HETATM    7  C4  UNL     1      24.465   0.644  53.281  1.00  0.00     0.143 A 
HETATM    8  C5  UNL     1      25.248   1.564  52.908  1.00  0.00     0.096 A 
HETATM    9  C15 UNL     1      23.651  -0.311  53.667  1.00  0.00     0.073 A 
HETATM   10  N2  UNL     1      26.049   0.851  53.768  1.00  0.00    -0.205 NA
HETATM   11  N3  UNL     1      24.765  -0.741  54.455  1.00  0.00    -0.251 NA
HETATM   12  C16 UNL     1      22.385  -0.748  53.717  1.00  0.00     0.071 A 
HETATM   13  C14 UNL     1      25.931  -0.185  54.509  1.00  0.00     0.186 A 
BRANCH   5  14
HETATM   14  O1  UNL     1      20.839   2.040  52.161  1.00  0.00    -0.353 OA
HETATM   15  C1  UNL     1      20.452   3.344  52.217  1.00  0.00     0.210 C 
ENDBRANCH   5  14
BRANCH   8  16
HETATM   16  N1  UNL     1      26.048   2.619  52.311  1.00  0.00    -0.377 N 
HETATM   17  H5  UNL     1      25.872   2.983  53.256  1.00  0.00     0.160 HD
BRANCH  16  18
HETATM   18  C6  UNL     1      26.430   2.305  50.918  1.00  0.00     0.159 C 
BRANCH  18  19
HETATM   19  C7  UNL     1      25.937   3.464  50.148  1.00  0.00    -0.040 A 
HETATM   20  C8  UNL     1      24.582   3.773  49.933  1.00  0.00     0.009 A 
HETATM   21  C9  UNL     1      24.337   4.915  49.181  1.00  0.00     0.001 A 
HETATM   22  C10 UNL     1      25.263   5.754  48.639  1.00  0.00     0.007 A 
HETATM   23  C11 UNL     1      26.554   5.414  48.873  1.00  0.00    -0.061 A 
HETATM   24  C12 UNL     1      27.512   6.393  48.295  1.00  0.00     0.048 C 
HETATM   25  C13 UNL     1      26.957   4.303  49.604  1.00  0.00     0.015 A 
ENDBRANCH  18  19
ENDBRANCH  16  18
ENDBRANCH   8  16
ENDBRANCH   1   4
TORSDOF 5
ENDMDL
MODEL 4
REMARK VINA RESULT:      -7.8      2.356      3.229
REMARK  5 active torsions:
REMARK  status: ('A' for Active; 'I' for Inactive)
REMARK    1  A    between atoms: O1_2  and  C2_3 
REMARK    2  A    between atoms: C5_6  and  N1_7 
REMARK    3  A    between atoms: N1_7  and  C6_8 
REMARK    4  A    between atoms: C6_8  and  C7_9 
REMARK    5  A    between atoms: C17_21  and  O2_22 
ROOT
HETATM    1  O2  UNL     1      18.655  -0.544  52.722  1.00  0.00    -0.266 OA
HETATM    2  C18 UNL     1      17.445  -0.630  52.498  1.00  0.00     0.022 C 
HETATM    3  P1  UNL     1      15.982  -0.704  52.223  1.00  0.00     0.079 P 
ENDROOT
BRANCH   1   4
HETATM    4  C17 UNL     1      19.886  -0.513  52.948  1.00  0.00     0.121 A 
HETATM    5  C2  UNL     1      20.817   0.246  52.189  1.00  0.00     0.102 A 
HETATM    6  C3  UNL     1      22.207   0.089  52.607  1.00  0.00     0.053 A 
HETATM    7  C4  UNL     1      22.740  -0.819  53.800  1.00  0.00     0.143 A 
HETATM    8  C5  UNL     1      23.858  -0.372  53.412  1.00  0.00     0.096 A 
HETATM    9  C15 UNL     1      21.580  -1.283  54.202  1.00  0.00     0.073 A 
HETATM   10  N2  UNL     1      24.176  -0.871  54.653  1.00  0.00    -0.205 NA
HETATM   11  N3  UNL     1      22.299  -1.647  55.384  1.00  0.00    -0.251 NA
HETATM   12  C16 UNL     1      20.255  -1.304  54.001  1.00  0.00     0.071 A 
HETATM   13  C14 UNL     1      23.558  -1.453  55.610  1.00  0.00     0.186 A 
BRANCH   5  14
HETATM   14  O1  UNL     1      20.135   0.938  51.255  1.00  0.00    -0.353 OA
HETATM   15  C1  UNL     1      20.318   1.123  49.920  1.00  0.00     0.210 C 
ENDBRANCH   5  14
BRANCH   8  16
HETATM   16  N1  UNL     1      25.080   0.099  52.785  1.00  0.00    -0.377 N 
HETATM   17  H5  UNL     1      24.851  -0.734  52.227  1.00  0.00     0.160 HD
BRANCH  16  18
HETATM   18  C6  UNL     1      25.602   1.319  53.436  1.00  0.00     0.159 C 
BRANCH  18  19
HETATM   19  C7  UNL     1      25.257   2.399  52.490  1.00  0.00    -0.040 A 
HETATM   20  C8  UNL     1      24.143   3.249  52.608  1.00  0.00     0.009 A 
HETATM   21  C9  UNL     1      24.005   4.203  51.608  1.00  0.00     0.001 A 
HETATM   22  C10 UNL     1      24.830   4.397  50.541  1.00  0.00     0.007 A 
HETATM   23  C11 UNL     1      25.888   3.554  50.471  1.00  0.00    -0.061 A 
HETATM   24  C12 UNL     1      26.771   3.846  49.311  1.00  0.00     0.048 C 
HETATM   25  C13 UNL     1      26.158   2.549  51.392  1.00  0.00     0.015 A 
ENDBRANCH  18  19
ENDBRANCH  16  18
ENDBRANCH   8  16
ENDBRANCH   1   4
TORSDOF 5
ENDMDL
MODEL 5
REMARK VINA RESULT:      -7.7      2.103      2.727
REMARK  5 active torsions:
REMARK  status: ('A' for Active; 'I' for Inactive)
REMARK    1  A    between atoms: O1_2  and  C2_3 
REMARK    2  A    between atoms: C5_6  and  N1_7 
REMARK    3  A    between atoms: N1_7  and  C6_8 
REMARK    4  A    between atoms: C6_8  and  C7_9 
REMARK    5  A    between atoms: C17_21  and  O2_22 
ROOT
HETATM    1  O2  UNL     1      21.205   2.212  49.529  1.00  0.00    -0.266 OA
HETATM    2  C18 UNL     1      20.699   2.784  48.561  1.00  0.00     0.022 C 
HETATM    3  P1  UNL     1      20.065   3.483  47.407  1.00  0.00     0.079 P 
ENDROOT
BRANCH   1   4
HETATM    4  C17 UNL     1      21.766   1.625  50.482  1.00  0.00     0.121 A 
HETATM    5  C2  UNL     1      23.133   1.800  50.831  1.00  0.00     0.102 A 
HETATM    6  C3  UNL     1      23.580   0.976  51.951  1.00  0.00     0.053 A 
HETATM    7  C4  UNL     1      22.695  -0.052  52.782  1.00  0.00     0.143 A 
HETATM    8  C5  UNL     1      23.789  -0.234  53.392  1.00  0.00     0.096 A 
HETATM    9  C15 UNL     1      21.561   0.135  52.147  1.00  0.00     0.073 A 
HETATM   10  N2  UNL     1      22.889  -0.800  54.263  1.00  0.00    -0.205 NA
HETATM   11  N3  UNL     1      20.986  -0.517  53.283  1.00  0.00    -0.251 NA
HETATM   12  C16 UNL     1      20.930   0.777  51.155  1.00  0.00     0.071 A 
HETATM   13  C14 UNL     1      21.622  -0.975  54.313  1.00  0.00     0.186 A 
BRANCH   5  14
HETATM   14  O1  UNL     1      23.665   2.722  50.005  1.00  0.00    -0.353 OA
HETATM   15  C1  UNL     1      24.149   3.978  50.205  1.00  0.00     0.210 C 
ENDBRANCH   5  14
BRANCH   8  16
HETATM   16  N1  UNL     1      25.126  -0.451  53.915  1.00  0.00    -0.377 N 
HETATM   17  H5  UNL     1      24.708   0.166  54.624  1.00  0.00     0.160 HD
BRANCH  16  18
HETATM   18  C6  UNL     1      25.927  -1.332  53.040  1.00  0.00     0.159 C 
BRANCH  18  19
HETATM   19  C7  UNL     1      27.311  -0.855  53.232  1.00  0.00    -0.040 A 
HETATM   20  C8  UNL     1      28.452  -1.676  53.250  1.00  0.00     0.009 A 
HETATM   21  C9  UNL     1      29.663  -1.022  53.441  1.00  0.00     0.001 A 
HETATM   22  C10 UNL     1      29.853   0.317  53.609  1.00  0.00     0.007 A 
HETATM   23  C11 UNL     1      28.724   1.066  53.585  1.00  0.00    -0.061 A 
HETATM   24  C12 UNL     1      29.003   2.519  53.729  1.00  0.00     0.048 C 
HETATM   25  C13 UNL     1      27.443   0.557  53.405  1.00  0.00     0.015 A 
ENDBRANCH  18  19
ENDBRANCH  16  18
ENDBRANCH   8  16
ENDBRANCH   1   4
TORSDOF 5
ENDMDL
MODEL 6
REMARK VINA RESULT:      -7.6      3.898      6.781
REMARK  5 active torsions:
REMARK  status: ('A' for Active; 'I' for Inactive)
REMARK    1  A    between atoms: O1_2  and  C2_3 
REMARK    2  A    between atoms: C5_6  and  N1_7 
REMARK    3  A    between atoms: N1_7  and  C6_8 
REMARK    4  A    between atoms: C6_8  and  C7_9 
REMARK    5  A    between atoms: C17_21  and  O2_22 
ROOT
HETATM    1  O2  UNL     1      27.006  -0.368  53.487  1.00  0.00    -0.266 OA
HETATM    2  C18 UNL     1      28.212  -0.623  53.518  1.00  0.00     0.022 C 
HETATM    3  P1  UNL     1      29.673  -0.913  53.580  1.00  0.00     0.079 P 
ENDROOT
BRANCH   1   4
HETATM    4  C17 UNL     1      25.775  -0.149  53.415  1.00  0.00     0.121 A 
HETATM    5  C2  UNL     1      25.178   0.742  52.482  1.00  0.00     0.102 A 
HETATM    6  C3  UNL     1      23.729   0.872  52.616  1.00  0.00     0.053 A 
HETATM    7  C4  UNL     1      22.804   0.121  53.670  1.00  0.00     0.143 A 
HETATM    8  C5  UNL     1      21.899   0.792  53.094  1.00  0.00     0.096 A 
HETATM    9  C15 UNL     1      23.744  -0.574  54.268  1.00  0.00     0.073 A 
HETATM   10  N2  UNL     1      21.159  -0.150  53.768  1.00  0.00    -0.205 NA
HETATM   11  N3  UNL     1      22.649  -1.344  54.773  1.00  0.00    -0.251 NA
HETATM   12  C16 UNL     1      25.053  -0.849  54.342  1.00  0.00     0.071 A 
HETATM   13  C14 UNL     1      21.393  -1.145  54.537  1.00  0.00     0.186 A 
BRANCH   5  14
HETATM   14  O1  UNL     1      26.149   1.240  51.692  1.00  0.00    -0.353 OA
HETATM   15  C1  UNL     1      26.458   2.501  51.285  1.00  0.00     0.210 C 
ENDBRANCH   5  14
BRANCH   8  16
HETATM   16  N1  UNL     1      20.982   1.714  52.448  1.00  0.00    -0.377 N 
HETATM   17  H5  UNL     1      21.329   2.267  53.243  1.00  0.00     0.160 HD
BRANCH  16  18
HETATM   18  C6  UNL     1      20.351   1.121  51.250  1.00  0.00     0.159 C 
BRANCH  18  19
HETATM   19  C7  UNL     1      21.138   1.671  50.129  1.00  0.00    -0.040 A 
HETATM   20  C8  UNL     1      21.409   0.996  48.926  1.00  0.00     0.009 A 
HETATM   21  C9  UNL     1      22.166   1.699  47.997  1.00  0.00     0.001 A 
HETATM   22  C10 UNL     1      22.666   2.959  48.133  1.00  0.00     0.007 A 
HETATM   23  C11 UNL     1      22.378   3.568  49.309  1.00  0.00    -0.061 A 
HETATM   24  C12 UNL     1      22.912   4.954  49.376  1.00  0.00     0.048 C 
HETATM   25  C13 UNL     1      21.635   2.994  50.333  1.00  0.00     0.015 A 
ENDBRANCH  18  19
ENDBRANCH  16  18
ENDBRANCH   8  16
ENDBRANCH   1   4
TORSDOF 5
ENDMDL
MODEL 7
REMARK VINA RESULT:      -7.2      4.403      6.725
REMARK  5 active torsions:
REMARK  status: ('A' for Active; 'I' for Inactive)
REMARK    1  A    between atoms: O1_2  and  C2_3 
REMARK    2  A    between atoms: C5_6  and  N1_7 
REMARK    3  A    between atoms: N1_7  and  C6_8 
REMARK    4  A    between atoms: C6_8  and  C7_9 
REMARK    5  A    between atoms: C17_21  and  O2_22 
ROOT
HETATM    1  O2  UNL     1      26.838  -0.144  53.381  1.00  0.00    -0.266 OA
HETATM    2  C18 UNL     1      28.049  -0.284  53.569  1.00  0.00     0.022 C 
HETATM    3  P1  UNL     1      29.509  -0.485  53.797  1.00  0.00     0.079 P 
ENDROOT
BRANCH   1   4
HETATM    4  C17 UNL     1      25.619   0.055  53.180  1.00  0.00     0.121 A 
HETATM    5  C2  UNL     1      25.108   0.920  52.174  1.00  0.00     0.102 A 
HETATM    6  C3  UNL     1      23.652   1.031  52.157  1.00  0.00     0.053 A 
HETATM    7  C4  UNL     1      22.634   0.285  53.126  1.00  0.00     0.143 A 
HETATM    8  C5  UNL     1      21.784   0.932  52.447  1.00  0.00     0.096 A 
HETATM    9  C15 UNL     1      23.517  -0.385  53.829  1.00  0.00     0.073 A 
HETATM   10  N2  UNL     1      20.991  -0.009  53.061  1.00  0.00    -0.205 NA
HETATM   11  N3  UNL     1      22.387  -1.162  54.235  1.00  0.00    -0.251 NA
HETATM   12  C16 UNL     1      24.815  -0.639  54.042  1.00  0.00     0.071 A 
HETATM   13  C14 UNL     1      21.159  -0.986  53.869  1.00  0.00     0.186 A 
BRANCH   5  14
HETATM   14  O1  UNL     1      26.148   1.418  51.478  1.00  0.00    -0.353 OA
HETATM   15  C1  UNL     1      26.371   2.617  50.874  1.00  0.00     0.210 C 
ENDBRANCH   5  14
BRANCH   8  16
HETATM   16  N1  UNL     1      20.926   1.828  51.694  1.00  0.00    -0.377 N 
HETATM   17  H5  UNL     1      20.934   0.984  51.107  1.00  0.00     0.160 HD
BRANCH  16  18
HETATM   18  C6  UNL     1      20.764   3.135  52.365  1.00  0.00     0.159 C 
BRANCH  18  19
HETATM   19  C7  UNL     1      21.825   3.971  51.771  1.00  0.00    -0.040 A 
HETATM   20  C8  UNL     1      22.770   4.714  52.501  1.00  0.00     0.009 A 
HETATM   21  C9  UNL     1      23.688   5.431  51.743  1.00  0.00     0.001 A 
HETATM   22  C10 UNL     1      23.765   5.485  50.384  1.00  0.00     0.007 A 
HETATM   23  C11 UNL     1      22.833   4.753  49.726  1.00  0.00    -0.061 A 
HETATM   24  C12 UNL     1      22.999   4.818  48.250  1.00  0.00     0.048 C 
HETATM   25  C13 UNL     1      21.852   3.987  50.343  1.00  0.00     0.015 A 
ENDBRANCH  18  19
ENDBRANCH  16  18
ENDBRANCH   8  16
ENDBRANCH   1   4
TORSDOF 5
ENDMDL
MODEL 8
REMARK VINA RESULT:      -7.2      2.876      4.062
REMARK  5 active torsions:
REMARK  status: ('A' for Active; 'I' for Inactive)
REMARK    1  A    between atoms: O1_2  and  C2_3 
REMARK    2  A    between atoms: C5_6  and  N1_7 
REMARK    3  A    between atoms: N1_7  and  C6_8 
REMARK    4  A    between atoms: C6_8  and  C7_9 
REMARK    5  A    between atoms: C17_21  and  O2_22 
ROOT
HETATM    1  O2  UNL     1      18.785   2.208  51.762  1.00  0.00    -0.266 OA
HETATM    2  C18 UNL     1      17.595   1.936  51.593  1.00  0.00     0.022 C 
HETATM    3  P1  UNL     1      16.157   1.586  51.411  1.00  0.00     0.079 P 
ENDROOT
BRANCH   1   4
HETATM    4  C17 UNL     1      19.988   2.528  51.897  1.00  0.00     0.121 A 
HETATM    5  C2  UNL     1      21.019   1.619  52.257  1.00  0.00     0.102 A 
HETATM    6  C3  UNL     1      22.338   2.229  52.402  1.00  0.00     0.053 A 
HETATM    7  C4  UNL     1      22.700   3.763  52.189  1.00  0.00     0.143 A 
HETATM    8  C5  UNL     1      23.855   3.356  52.507  1.00  0.00     0.096 A 
HETATM    9  C15 UNL     1      21.501   4.185  51.860  1.00  0.00     0.073 A 
HETATM   10  N2  UNL     1      24.136   4.584  51.955  1.00  0.00    -0.205 NA
HETATM   11  N3  UNL     1      22.198   5.337  51.377  1.00  0.00    -0.251 NA
HETATM   12  C16 UNL     1      20.215   3.859  51.676  1.00  0.00     0.071 A 
HETATM   13  C14 UNL     1      23.475   5.539  51.420  1.00  0.00     0.186 A 
BRANCH   5  14
HETATM   14  O1  UNL     1      20.479   0.390  52.366  1.00  0.00    -0.353 OA
HETATM   15  C1  UNL     1      20.236  -0.427  53.427  1.00  0.00     0.210 C 
ENDBRANCH   5  14
BRANCH   8  16
HETATM   16  N1  UNL     1      25.092   2.794  53.017  1.00  0.00    -0.377 N 
HETATM   17  H5  UNL     1      24.544   2.939  53.875  1.00  0.00     0.160 HD
BRANCH  16  18
HETATM   18  C6  UNL     1      26.054   2.495  51.935  1.00  0.00     0.159 C 
BRANCH  18  19
HETATM   19  C7  UNL     1      26.967   1.505  52.538  1.00  0.00    -0.040 A 
HETATM   20  C8  UNL     1      28.104   1.817  53.304  1.00  0.00     0.009 A 
HETATM   21  C9  UNL     1      28.825   0.731  53.783  1.00  0.00     0.001 A 
HETATM   22  C10 UNL     1      28.545  -0.588  53.589  1.00  0.00     0.007 A 
HETATM   23  C11 UNL     1      27.441  -0.838  52.844  1.00  0.00    -0.061 A 
HETATM   24  C12 UNL     1      27.167  -2.293  52.708  1.00  0.00     0.048 C 
HETATM   25  C13 UNL     1      26.621   0.140  52.297  1.00  0.00     0.015 A 
ENDBRANCH  18  19
ENDBRANCH  16  18
ENDBRANCH   8  16
ENDBRANCH   1   4
TORSDOF 5
ENDMDL
MODEL 9
REMARK VINA RESULT:      -7.1      3.499      4.312
REMARK  5 active torsions:
REMARK  status: ('A' for Active; 'I' for Inactive)
REMARK    1  A    between atoms: O1_2  and  C2_3 
REMARK    2  A    between atoms: C5_6  and  N1_7 
REMARK    3  A    between atoms: N1_7  and  C6_8 
REMARK    4  A    between atoms: C6_8  and  C7_9 
REMARK    5  A    between atoms: C17_21  and  O2_22 
ROOT
HETATM    1  O2  UNL     1      20.996   5.579  50.664  1.00  0.00    -0.266 OA
HETATM    2  C18 UNL     1      20.543   6.539  50.036  1.00  0.00     0.022 C 
HETATM    3  P1  UNL     1      20.002   7.718  49.301  1.00  0.00     0.079 P 
ENDROOT
BRANCH   1   4
HETATM    4  C17 UNL     1      21.453   4.573  51.252  1.00  0.00     0.121 A 
HETATM    5  C2  UNL     1      22.821   4.408  51.601  1.00  0.00     0.102 A 
HETATM    6  C3  UNL     1      23.130   3.132  52.240  1.00  0.00     0.053 A 
HETATM    7  C4  UNL     1      22.101   1.965  52.572  1.00  0.00     0.143 A 
HETATM    8  C5  UNL     1      23.147   1.403  53.011  1.00  0.00     0.096 A 
HETATM    9  C15 UNL     1      21.018   2.549  52.116  1.00  0.00     0.073 A 
HETATM   10  N2  UNL     1      22.159   0.633  53.579  1.00  0.00    -0.205 NA
HETATM   11  N3  UNL     1      20.335   1.547  52.876  1.00  0.00    -0.251 NA
HETATM   12  C16 UNL     1      20.499   3.629  51.518  1.00  0.00     0.071 A 
HETATM   13  C14 UNL     1      20.880   0.614  53.587  1.00  0.00     0.186 A 
BRANCH   5  14
HETATM   14  O1  UNL     1      23.487   5.522  51.238  1.00  0.00    -0.353 OA
HETATM   15  C1  UNL     1      24.627   5.730  50.526  1.00  0.00     0.210 C 
ENDBRANCH   5  14
BRANCH   8  16
HETATM   16  N1  UNL     1      24.431   0.815  53.348  1.00  0.00    -0.377 N 
HETATM   17  H5  UNL     1      23.947   0.824  54.255  1.00  0.00     0.160 HD
BRANCH  16  18
HETATM   18  C6  UNL     1      25.314   0.699  52.168  1.00  0.00     0.159 C 
BRANCH  18  19
HETATM   19  C7  UNL     1      26.668   0.896  52.721  1.00  0.00    -0.040 A 
HETATM   20  C8  UNL     1      27.209   2.136  53.108  1.00  0.00     0.009 A 
HETATM   21  C9  UNL     1      28.504   2.098  53.609  1.00  0.00     0.001 A 
HETATM   22  C10 UNL     1      29.292   0.996  53.762  1.00  0.00     0.007 A 
HETATM   23  C11 UNL     1      28.727  -0.173  53.376  1.00  0.00    -0.061 A 
HETATM   24  C12 UNL     1      29.619  -1.339  53.610  1.00  0.00     0.048 C 
HETATM   25  C13 UNL     1      27.445  -0.295  52.855  1.00  0.00     0.015 A 
ENDBRANCH  18  19
ENDBRANCH  16  18
ENDBRANCH   8  16
ENDBRANCH   1   4
TORSDOF 5
ENDMDL
