MODEL 1
REMARK VINA RESULT:      -6.4      0.000      0.000
REMARK  8 active torsions:
REMARK  status: ('A' for Active; 'I' for Inactive)
REMARK    1  A    between atoms: C2_2  and  S1_3 
REMARK    2  A    between atoms: S1_3  and  C4_5 
REMARK    3  A    between atoms: C4_5  and  C5_6 
REMARK    4  A    between atoms: C5_6  and  C6_8 
REMARK    5  A    between atoms: C6_8  and  P1_9 
REMARK    6  A    between atoms: C9_12  and  O2_13 
REMARK    7  A    between atoms: O2_13  and  C10_14 
REMARK    8  A    between atoms: C10_14  and  C11_15 
ROOT
HETATM    1  P1  UNL     1      22.415   3.756  51.183  1.00  0.00    -0.044 P 
HETATM    2  C7  UNL     1      22.858   2.199  50.768  1.00  0.00     0.017 A 
HETATM    3  C8  UNL     1      23.867   1.505  51.564  1.00  0.00     0.038 A 
HETATM    4  C9  UNL     1      24.440   2.090  52.610  1.00  0.00     0.069 A 
HETATM    5  C17 UNL     1      24.218   3.426  53.152  1.00  0.00     0.038 A 
HETATM    6  C18 UNL     1      23.344   4.283  52.618  1.00  0.00     0.017 A 
ENDROOT
BRANCH   1   7
HETATM    7  C6  UNL     1      22.079   4.624  49.828  1.00  0.00     0.065 C 
BRANCH   7   8
HETATM    8  C5  UNL     1      22.961   5.067  48.789  1.00  0.00     0.159 C 
HETATM    9  O1  UNL     1      22.774   4.583  47.658  1.00  0.00    -0.292 OA
BRANCH   8  10
HETATM   10  C4  UNL     1      24.100   5.924  48.438  1.00  0.00     0.150 C 
BRANCH  10  11
HETATM   11  S1  UNL     1      25.333   5.813  49.754  1.00  0.00    -0.197 SA
HETATM   12  C3  UNL     1      26.126   7.427  49.909  1.00  0.00     0.083 C 
BRANCH  11  13
HETATM   13  C2  UNL     1      26.466   4.758  49.230  1.00  0.00     0.003 C 
HETATM   14  C1  UNL     1      26.442   3.310  49.593  1.00  0.00     0.042 C 
ENDBRANCH  11  13
ENDBRANCH  10  11
ENDBRANCH   8  10
ENDBRANCH   7   8
ENDBRANCH   1   7
BRANCH   4  15
HETATM   15  O2  UNL     1      25.370   1.272  53.236  1.00  0.00    -0.347 OA
BRANCH  15  16
HETATM   16  C10 UNL     1      25.870   0.165  52.518  1.00  0.00     0.214 C 
BRANCH  16  17
HETATM   17  C11 UNL     1      27.285  -0.128  52.912  1.00  0.00    -0.034 A 
HETATM   18  C12 UNL     1      28.177   0.863  53.301  1.00  0.00     0.009 A 
HETATM   19  C13 UNL     1      29.472   0.531  53.656  1.00  0.00     0.001 A 
HETATM   20  C14 UNL     1      29.928  -0.781  53.638  1.00  0.00     0.000 A 
HETATM   21  C15 UNL     1      29.033  -1.758  53.249  1.00  0.00     0.001 A 
HETATM   22  C16 UNL     1      27.726  -1.442  52.890  1.00  0.00     0.009 A 
ENDBRANCH  16  17
ENDBRANCH  15  16
ENDBRANCH   4  15
TORSDOF 8
ENDMDL
MODEL 2
REMARK VINA RESULT:      -6.4      2.842      4.647
REMARK  8 active torsions:
REMARK  status: ('A' for Active; 'I' for Inactive)
REMARK    1  A    between atoms: C2_2  and  S1_3 
REMARK    2  A    between atoms: S1_3  and  C4_5 
REMARK    3  A    between atoms: C4_5  and  C5_6 
REMARK    4  A    between atoms: C5_6  and  C6_8 
REMARK    5  A    between atoms: C6_8  and  P1_9 
REMARK    6  A    between atoms: C9_12  and  O2_13 
REMARK    7  A    between atoms: O2_13  and  C10_14 
REMARK    8  A    between atoms: C10_14  and  C11_15 
ROOT
HETATM    1  P1  UNL     1      23.107   3.708  50.961  1.00  0.00    -0.044 P 
HETATM    2  C7  UNL     1      23.791   3.388  52.452  1.00  0.00     0.017 A 
HETATM    3  C8  UNL     1      25.183   2.956  52.524  1.00  0.00     0.038 A 
HETATM    4  C9  UNL     1      25.917   2.810  51.425  1.00  0.00     0.069 A 
HETATM    5  C17 UNL     1      25.539   3.026  50.033  1.00  0.00     0.038 A 
HETATM    6  C18 UNL     1      24.317   3.427  49.672  1.00  0.00     0.017 A 
ENDROOT
BRANCH   1   7
HETATM    7  C6  UNL     1      21.523   3.273  50.964  1.00  0.00     0.065 C 
BRANCH   7   8
HETATM    8  C5  UNL     1      20.775   2.566  51.961  1.00  0.00     0.159 C 
HETATM    9  O1  UNL     1      20.089   3.257  52.736  1.00  0.00    -0.292 OA
BRANCH   8  10
HETATM   10  C4  UNL     1      20.429   1.256  52.528  1.00  0.00     0.150 C 
BRANCH  10  11
HETATM   11  S1  UNL     1      21.774   0.722  53.610  1.00  0.00    -0.197 SA
HETATM   12  C3  UNL     1      22.972  -0.177  52.603  1.00  0.00     0.083 C 
BRANCH  11  13
HETATM   13  C2  UNL     1      21.118  -0.344  54.661  1.00  0.00     0.003 C 
HETATM   14  C1  UNL     1      21.086  -1.814  54.397  1.00  0.00     0.042 C 
ENDBRANCH  11  13
ENDBRANCH  10  11
ENDBRANCH   8  10
ENDBRANCH   7   8
ENDBRANCH   1   7
BRANCH   4  15
HETATM   15  O2  UNL     1      27.212   2.394  51.699  1.00  0.00    -0.347 OA
BRANCH  15  16
HETATM   16  C10 UNL     1      27.535   2.065  53.033  1.00  0.00     0.214 C 
BRANCH  16  17
HETATM   17  C11 UNL     1      28.068   0.668  53.120  1.00  0.00    -0.034 A 
HETATM   18  C12 UNL     1      27.317  -0.446  52.767  1.00  0.00     0.009 A 
HETATM   19  C13 UNL     1      27.863  -1.712  52.869  1.00  0.00     0.001 A 
HETATM   20  C14 UNL     1      29.160  -1.922  53.319  1.00  0.00     0.000 A 
HETATM   21  C15 UNL     1      29.897  -0.807  53.668  1.00  0.00     0.001 A 
HETATM   22  C16 UNL     1      29.364   0.474  53.572  1.00  0.00     0.009 A 
ENDBRANCH  16  17
ENDBRANCH  15  16
ENDBRANCH   4  15
TORSDOF 8
ENDMDL
MODEL 3
REMARK VINA RESULT:      -6.4      2.534      3.289
REMARK  8 active torsions:
REMARK  status: ('A' for Active; 'I' for Inactive)
REMARK    1  A    between atoms: C2_2  and  S1_3 
REMARK    2  A    between atoms: S1_3  and  C4_5 
REMARK    3  A    between atoms: C4_5  and  C5_6 
REMARK    4  A    between atoms: C5_6  and  C6_8 
REMARK    5  A    between atoms: C6_8  and  P1_9 
REMARK    6  A    between atoms: C9_12  and  O2_13 
REMARK    7  A    between atoms: O2_13  and  C10_14 
REMARK    8  A    between atoms: C10_14  and  C11_15 
ROOT
HETATM    1  P1  UNL     1      21.366   0.942  52.762  1.00  0.00    -0.044 P 
HETATM    2  C7  UNL     1      22.859   1.353  52.137  1.00  0.00     0.017 A 
HETATM    3  C8  UNL     1      24.050   0.650  52.605  1.00  0.00     0.038 A 
HETATM    4  C9  UNL     1      23.968  -0.308  53.522  1.00  0.00     0.069 A 
HETATM    5  C17 UNL     1      22.789  -0.828  54.205  1.00  0.00     0.038 A 
HETATM    6  C18 UNL     1      21.558  -0.365  53.969  1.00  0.00     0.017 A 
ENDROOT
BRANCH   1   7
HETATM    7  C6  UNL     1      20.416   2.279  52.872  1.00  0.00     0.065 C 
BRANCH   7   8
HETATM    8  C5  UNL     1      20.027   3.206  51.851  1.00  0.00     0.159 C 
HETATM    9  O1  UNL     1      18.862   3.640  51.908  1.00  0.00    -0.292 OA
BRANCH   8  10
HETATM   10  C4  UNL     1      20.439   3.941  50.648  1.00  0.00     0.150 C 
BRANCH  10  11
HETATM   11  S1  UNL     1      21.937   4.877  51.028  1.00  0.00    -0.197 SA
HETATM   12  C3  UNL     1      21.565   6.630  50.814  1.00  0.00     0.083 C 
BRANCH  11  13
HETATM   13  C2  UNL     1      23.034   4.465  49.889  1.00  0.00     0.003 C 
HETATM   14  C1  UNL     1      22.856   3.283  48.994  1.00  0.00     0.042 C 
ENDBRANCH  11  13
ENDBRANCH  10  11
ENDBRANCH   8  10
ENDBRANCH   7   8
ENDBRANCH   1   7
BRANCH   4  15
HETATM   15  O2  UNL     1      25.204  -0.855  53.836  1.00  0.00    -0.347 OA
BRANCH  15  16
HETATM   16  C10 UNL     1      26.088  -1.149  52.775  1.00  0.00     0.214 C 
BRANCH  16  17
HETATM   17  C11 UNL     1      27.477  -0.689  53.100  1.00  0.00    -0.034 A 
HETATM   18  C12 UNL     1      27.797   0.647  53.306  1.00  0.00     0.009 A 
HETATM   19  C13 UNL     1      29.098   1.011  53.603  1.00  0.00     0.001 A 
HETATM   20  C14 UNL     1      30.120   0.076  53.708  1.00  0.00     0.000 A 
HETATM   21  C15 UNL     1      29.789  -1.249  53.501  1.00  0.00     0.001 A 
HETATM   22  C16 UNL     1      28.486  -1.634  53.201  1.00  0.00     0.009 A 
ENDBRANCH  16  17
ENDBRANCH  15  16
ENDBRANCH   4  15
TORSDOF 8
ENDMDL
MODEL 4
REMARK VINA RESULT:      -6.3      2.257      6.853
REMARK  8 active torsions:
REMARK  status: ('A' for Active; 'I' for Inactive)
REMARK    1  A    between atoms: C2_2  and  S1_3 
REMARK    2  A    between atoms: S1_3  and  C4_5 
REMARK    3  A    between atoms: C4_5  and  C5_6 
REMARK    4  A    between atoms: C5_6  and  C6_8 
REMARK    5  A    between atoms: C6_8  and  P1_9 
REMARK    6  A    between atoms: C9_12  and  O2_13 
REMARK    7  A    between atoms: O2_13  and  C10_14 
REMARK    8  A    between atoms: C10_14  and  C11_15 
ROOT
HETATM    1  P1  UNL     1      23.257   1.205  52.752  1.00  0.00    -0.044 P 
HETATM    2  C7  UNL     1      24.146   2.577  53.093  1.00  0.00     0.017 A 
HETATM    3  C8  UNL     1      24.376   3.562  52.039  1.00  0.00     0.038 A 
HETATM    4  C9  UNL     1      23.893   3.386  50.814  1.00  0.00     0.069 A 
HETATM    5  C17 UNL     1      23.101   2.279  50.290  1.00  0.00     0.038 A 
HETATM    6  C18 UNL     1      22.741   1.233  51.038  1.00  0.00     0.017 A 
ENDROOT
BRANCH   1   7
HETATM    7  C6  UNL     1      23.846  -0.072  53.603  1.00  0.00     0.065 C 
BRANCH   7   8
HETATM    8  C5  UNL     1      25.200  -0.514  53.760  1.00  0.00     0.159 C 
HETATM    9  O1  UNL     1      25.457  -1.163  54.791  1.00  0.00    -0.292 OA
BRANCH   8  10
HETATM   10  C4  UNL     1      26.550  -0.541  53.185  1.00  0.00     0.150 C 
BRANCH  10  11
HETATM   11  S1  UNL     1      27.616   0.541  54.163  1.00  0.00    -0.197 SA
HETATM   12  C3  UNL     1      27.926   2.035  53.197  1.00  0.00     0.083 C 
BRANCH  11  13
HETATM   13  C2  UNL     1      29.041  -0.244  54.323  1.00  0.00     0.003 C 
HETATM   14  C1  UNL     1      29.425  -1.393  53.451  1.00  0.00     0.042 C 
ENDBRANCH  11  13
ENDBRANCH  10  11
ENDBRANCH   8  10
ENDBRANCH   7   8
ENDBRANCH   1   7
BRANCH   4  15
HETATM   15  O2  UNL     1      24.216   4.428  49.957  1.00  0.00    -0.347 OA
BRANCH  15  16
HETATM   16  C10 UNL     1      25.442   4.359  49.261  1.00  0.00     0.214 C 
BRANCH  16  17
HETATM   17  C11 UNL     1      26.118   5.696  49.245  1.00  0.00    -0.034 A 
HETATM   18  C12 UNL     1      27.232   5.966  48.460  1.00  0.00     0.009 A 
HETATM   19  C13 UNL     1      27.812   7.221  48.487  1.00  0.00     0.001 A 
HETATM   20  C14 UNL     1      27.317   8.246  49.282  1.00  0.00     0.000 A 
HETATM   21  C15 UNL     1      26.209   7.967  50.058  1.00  0.00     0.001 A 
HETATM   22  C16 UNL     1      25.611   6.710  50.044  1.00  0.00     0.009 A 
ENDBRANCH  16  17
ENDBRANCH  15  16
ENDBRANCH   4  15
TORSDOF 8
ENDMDL
MODEL 5
REMARK VINA RESULT:      -6.1      3.637      5.250
REMARK  8 active torsions:
REMARK  status: ('A' for Active; 'I' for Inactive)
REMARK    1  A    between atoms: C2_2  and  S1_3 
REMARK    2  A    between atoms: S1_3  and  C4_5 
REMARK    3  A    between atoms: C4_5  and  C5_6 
REMARK    4  A    between atoms: C5_6  and  C6_8 
REMARK    5  A    between atoms: C6_8  and  P1_9 
REMARK    6  A    between atoms: C9_12  and  O2_13 
REMARK    7  A    between atoms: O2_13  and  C10_14 
REMARK    8  A    between atoms: C10_14  and  C11_15 
ROOT
HETATM    1  P1  UNL     1      26.191   6.964  48.460  1.00  0.00    -0.044 P 
HETATM    2  C7  UNL     1      27.544   5.991  48.341  1.00  0.00     0.017 A 
HETATM    3  C8  UNL     1      27.505   4.641  48.896  1.00  0.00     0.038 A 
HETATM    4  C9  UNL     1      26.415   4.173  49.496  1.00  0.00     0.069 A 
HETATM    5  C17 UNL     1      25.134   4.834  49.717  1.00  0.00     0.038 A 
HETATM    6  C18 UNL     1      24.887   6.082  49.310  1.00  0.00     0.017 A 
ENDROOT
BRANCH   1   7
HETATM    7  C6  UNL     1      26.643   8.531  48.665  1.00  0.00     0.065 C 
BRANCH   7   8
HETATM    8  C5  UNL     1      27.740   9.072  49.412  1.00  0.00     0.159 C 
HETATM    9  O1  UNL     1      27.459   9.624  50.492  1.00  0.00    -0.292 OA
BRANCH   8  10
HETATM   10  C4  UNL     1      29.192   9.282  49.470  1.00  0.00     0.150 C 
BRANCH  10  11
HETATM   11  S1  UNL     1      29.792   9.623  47.800  1.00  0.00    -0.197 SA
HETATM   12  C3  UNL     1      31.160   8.495  47.461  1.00  0.00     0.083 C 
BRANCH  11  13
HETATM   13  C2  UNL     1      30.404  11.139  47.835  1.00  0.00     0.003 C 
HETATM   14  C1  UNL     1      30.603  11.894  49.108  1.00  0.00     0.042 C 
ENDBRANCH  11  13
ENDBRANCH  10  11
ENDBRANCH   8  10
ENDBRANCH   7   8
ENDBRANCH   1   7
BRANCH   4  15
HETATM   15  O2  UNL     1      26.574   2.874  49.955  1.00  0.00    -0.347 OA
BRANCH  15  16
HETATM   16  C10 UNL     1      25.916   2.507  51.149  1.00  0.00     0.214 C 
BRANCH  16  17
HETATM   17  C11 UNL     1      26.770   1.582  51.962  1.00  0.00    -0.034 A 
HETATM   18  C12 UNL     1      26.592   0.205  51.967  1.00  0.00     0.009 A 
HETATM   19  C13 UNL     1      27.413  -0.598  52.738  1.00  0.00     0.001 A 
HETATM   20  C14 UNL     1      28.430  -0.074  53.525  1.00  0.00     0.000 A 
HETATM   21  C15 UNL     1      28.597   1.297  53.512  1.00  0.00     0.001 A 
HETATM   22  C16 UNL     1      27.781   2.121  52.743  1.00  0.00     0.009 A 
ENDBRANCH  16  17
ENDBRANCH  15  16
ENDBRANCH   4  15
TORSDOF 8
ENDMDL
MODEL 6
REMARK VINA RESULT:      -6.1      2.781      7.003
REMARK  8 active torsions:
REMARK  status: ('A' for Active; 'I' for Inactive)
REMARK    1  A    between atoms: C2_2  and  S1_3 
REMARK    2  A    between atoms: S1_3  and  C4_5 
REMARK    3  A    between atoms: C4_5  and  C5_6 
REMARK    4  A    between atoms: C5_6  and  C6_8 
REMARK    5  A    between atoms: C6_8  and  P1_9 
REMARK    6  A    between atoms: C9_12  and  O2_13 
REMARK    7  A    between atoms: O2_13  and  C10_14 
REMARK    8  A    between atoms: C10_14  and  C11_15 
ROOT
HETATM    1  P1  UNL     1      24.571   2.726  52.369  1.00  0.00    -0.044 P 
HETATM    2  C7  UNL     1      25.800   2.371  51.294  1.00  0.00     0.017 A 
HETATM    3  C8  UNL     1      26.031   3.253  50.154  1.00  0.00     0.038 A 
HETATM    4  C9  UNL     1      25.281   4.331  49.954  1.00  0.00     0.069 A 
HETATM    5  C17 UNL     1      24.164   4.834  50.747  1.00  0.00     0.038 A 
HETATM    6  C18 UNL     1      23.733   4.220  51.853  1.00  0.00     0.017 A 
ENDROOT
BRANCH   1   7
HETATM    7  C6  UNL     1      23.895   1.337  52.928  1.00  0.00     0.065 C 
BRANCH   7   8
HETATM    8  C5  UNL     1      24.526   0.178  53.488  1.00  0.00     0.159 C 
HETATM    9  O1  UNL     1      23.880  -0.886  53.438  1.00  0.00    -0.292 OA
BRANCH   8  10
HETATM   10  C4  UNL     1      25.714  -0.360  54.161  1.00  0.00     0.150 C 
BRANCH  10  11
HETATM   11  S1  UNL     1      27.025  -0.572  52.935  1.00  0.00    -0.197 SA
HETATM   12  C3  UNL     1      27.068  -2.314  52.465  1.00  0.00     0.083 C 
BRANCH  11  13
HETATM   13  C2  UNL     1      28.428  -0.236  53.704  1.00  0.00     0.003 C 
HETATM   14  C1  UNL     1      29.635  -1.107  53.587  1.00  0.00     0.042 C 
ENDBRANCH  11  13
ENDBRANCH  10  11
ENDBRANCH   8  10
ENDBRANCH   7   8
ENDBRANCH   1   7
BRANCH   4  15
HETATM   15  O2  UNL     1      25.654   5.040  48.821  1.00  0.00    -0.347 OA
BRANCH  15  16
HETATM   16  C10 UNL     1      26.160   6.347  48.992  1.00  0.00     0.214 C 
BRANCH  16  17
HETATM   17  C11 UNL     1      27.503   6.485  48.342  1.00  0.00    -0.034 A 
HETATM   18  C12 UNL     1      27.850   7.581  47.563  1.00  0.00     0.009 A 
HETATM   19  C13 UNL     1      29.107   7.653  46.989  1.00  0.00     0.001 A 
HETATM   20  C14 UNL     1      30.056   6.654  47.163  1.00  0.00     0.000 A 
HETATM   21  C15 UNL     1      29.699   5.570  47.941  1.00  0.00     0.001 A 
HETATM   22  C16 UNL     1      28.440   5.481  48.526  1.00  0.00     0.009 A 
ENDBRANCH  16  17
ENDBRANCH  15  16
ENDBRANCH   4  15
TORSDOF 8
ENDMDL
MODEL 7
REMARK VINA RESULT:      -6.0      3.122      4.782
REMARK  8 active torsions:
REMARK  status: ('A' for Active; 'I' for Inactive)
REMARK    1  A    between atoms: C2_2  and  S1_3 
REMARK    2  A    between atoms: S1_3  and  C4_5 
REMARK    3  A    between atoms: C4_5  and  C5_6 
REMARK    4  A    between atoms: C5_6  and  C6_8 
REMARK    5  A    between atoms: C6_8  and  P1_9 
REMARK    6  A    between atoms: C9_12  and  O2_13 
REMARK    7  A    between atoms: O2_13  and  C10_14 
REMARK    8  A    between atoms: C10_14  and  C11_15 
ROOT
HETATM    1  P1  UNL     1      22.259   2.920  51.594  1.00  0.00    -0.044 P 
HETATM    2  C7  UNL     1      23.628   3.504  52.353  1.00  0.00     0.017 A 
HETATM    3  C8  UNL     1      24.518   2.572  53.041  1.00  0.00     0.038 A 
HETATM    4  C9  UNL     1      24.257   1.270  53.076  1.00  0.00     0.069 A 
HETATM    5  C17 UNL     1      23.135   0.541  52.495  1.00  0.00     0.038 A 
HETATM    6  C18 UNL     1      22.164   1.146  51.805  1.00  0.00     0.017 A 
ENDROOT
BRANCH   1   7
HETATM    7  C6  UNL     1      21.038   4.014  51.718  1.00  0.00     0.065 C 
BRANCH   7   8
HETATM    8  C5  UNL     1      19.658   3.882  51.356  1.00  0.00     0.159 C 
HETATM    9  O1  UNL     1      19.221   4.699  50.524  1.00  0.00    -0.292 OA
BRANCH   8  10
HETATM   10  C4  UNL     1      18.409   3.136  51.554  1.00  0.00     0.150 C 
BRANCH  10  11
HETATM   11  S1  UNL     1      18.408   1.710  50.444  1.00  0.00    -0.197 SA
HETATM   12  C3  UNL     1      17.175   2.008  49.159  1.00  0.00     0.083 C 
BRANCH  11  13
HETATM   13  C2  UNL     1      17.891   0.439  51.333  1.00  0.00     0.003 C 
HETATM   14  C1  UNL     1      18.769  -0.258  52.320  1.00  0.00     0.042 C 
ENDBRANCH  11  13
ENDBRANCH  10  11
ENDBRANCH   8  10
ENDBRANCH   7   8
ENDBRANCH   1   7
BRANCH   4  15
HETATM   15  O2  UNL     1      25.217   0.552  53.774  1.00  0.00    -0.347 OA
BRANCH  15  16
HETATM   16  C10 UNL     1      25.714  -0.634  53.191  1.00  0.00     0.214 C 
BRANCH  16  17
HETATM   17  C11 UNL     1      27.205  -0.701  53.316  1.00  0.00    -0.034 A 
HETATM   18  C12 UNL     1      27.929  -1.858  53.059  1.00  0.00     0.009 A 
HETATM   19  C13 UNL     1      29.306  -1.859  53.191  1.00  0.00     0.001 A 
HETATM   20  C14 UNL     1      30.011  -0.727  53.579  1.00  0.00     0.000 A 
HETATM   21  C15 UNL     1      29.280   0.417  53.832  1.00  0.00     0.001 A 
HETATM   22  C16 UNL     1      27.895   0.437  53.704  1.00  0.00     0.009 A 
ENDBRANCH  16  17
ENDBRANCH  15  16
ENDBRANCH   4  15
TORSDOF 8
ENDMDL
MODEL 8
REMARK VINA RESULT:      -5.9      2.613      3.774
REMARK  8 active torsions:
REMARK  status: ('A' for Active; 'I' for Inactive)
REMARK    1  A    between atoms: C2_2  and  S1_3 
REMARK    2  A    between atoms: S1_3  and  C4_5 
REMARK    3  A    between atoms: C4_5  and  C5_6 
REMARK    4  A    between atoms: C5_6  and  C6_8 
REMARK    5  A    between atoms: C6_8  and  P1_9 
REMARK    6  A    between atoms: C9_12  and  O2_13 
REMARK    7  A    between atoms: O2_13  and  C10_14 
REMARK    8  A    between atoms: C10_14  and  C11_15 
ROOT
HETATM    1  P1  UNL     1      25.737   5.393  49.350  1.00  0.00    -0.044 P 
HETATM    2  C7  UNL     1      26.777   4.087  49.268  1.00  0.00     0.017 A 
HETATM    3  C8  UNL     1      26.547   2.933  50.132  1.00  0.00     0.038 A 
HETATM    4  C9  UNL     1      25.528   2.903  50.985  1.00  0.00     0.069 A 
HETATM    5  C17 UNL     1      24.505   3.914  51.230  1.00  0.00     0.038 A 
HETATM    6  C18 UNL     1      24.472   5.078  50.575  1.00  0.00     0.017 A 
ENDROOT
BRANCH   1   7
HETATM    7  C6  UNL     1      26.568   6.788  49.099  1.00  0.00     0.065 C 
BRANCH   7   8
HETATM    8  C5  UNL     1      26.456   8.048  49.774  1.00  0.00     0.159 C 
HETATM    9  O1  UNL     1      25.303   8.456  50.003  1.00  0.00    -0.292 OA
BRANCH   8  10
HETATM   10  C4  UNL     1      27.175   9.180  50.372  1.00  0.00     0.150 C 
BRANCH  10  11
HETATM   11  S1  UNL     1      28.226   9.929  49.107  1.00  0.00    -0.197 SA
HETATM   12  C3  UNL     1      27.320   9.904  47.546  1.00  0.00     0.083 C 
BRANCH  11  13
HETATM   13  C2  UNL     1      29.516   8.938  48.941  1.00  0.00     0.003 C 
HETATM   14  C1  UNL     1      30.883   9.316  49.406  1.00  0.00     0.042 C 
ENDBRANCH  11  13
ENDBRANCH  10  11
ENDBRANCH   8  10
ENDBRANCH   7   8
ENDBRANCH   1   7
BRANCH   4  15
HETATM   15  O2  UNL     1      25.477   1.725  51.716  1.00  0.00    -0.347 OA
BRANCH  15  16
HETATM   16  C10 UNL     1      25.988   1.738  53.032  1.00  0.00     0.214 C 
BRANCH  16  17
HETATM   17  C11 UNL     1      27.136   0.785  53.164  1.00  0.00    -0.034 A 
HETATM   18  C12 UNL     1      27.013  -0.577  52.925  1.00  0.00     0.009 A 
HETATM   19  C13 UNL     1      28.110  -1.408  53.063  1.00  0.00     0.001 A 
HETATM   20  C14 UNL     1      29.357  -0.927  53.439  1.00  0.00     0.000 A 
HETATM   21  C15 UNL     1      29.468   0.430  53.674  1.00  0.00     0.001 A 
HETATM   22  C16 UNL     1      28.375   1.281  53.540  1.00  0.00     0.009 A 
ENDBRANCH  16  17
ENDBRANCH  15  16
ENDBRANCH   4  15
TORSDOF 8
ENDMDL
MODEL 9
REMARK VINA RESULT:      -5.9      4.096      5.677
REMARK  8 active torsions:
REMARK  status: ('A' for Active; 'I' for Inactive)
REMARK    1  A    between atoms: C2_2  and  S1_3 
REMARK    2  A    between atoms: S1_3  and  C4_5 
REMARK    3  A    between atoms: C4_5  and  C5_6 
REMARK    4  A    between atoms: C5_6  and  C6_8 
REMARK    5  A    between atoms: C6_8  and  P1_9 
REMARK    6  A    between atoms: C9_12  and  O2_13 
REMARK    7  A    between atoms: O2_13  and  C10_14 
REMARK    8  A    between atoms: C10_14  and  C11_15 
ROOT
HETATM    1  P1  UNL     1      26.941   7.038  48.707  1.00  0.00    -0.044 P 
HETATM    2  C7  UNL     1      27.754   5.607  48.423  1.00  0.00     0.017 A 
HETATM    3  C8  UNL     1      27.233   4.363  48.984  1.00  0.00     0.038 A 
HETATM    4  C9  UNL     1      26.125   4.350  49.718  1.00  0.00     0.069 A 
HETATM    5  C17 UNL     1      25.260   5.462  50.096  1.00  0.00     0.038 A 
HETATM    6  C18 UNL     1      25.499   6.721  49.718  1.00  0.00     0.017 A 
ENDROOT
BRANCH   1   7
HETATM    7  C6  UNL     1      28.014   8.275  48.847  1.00  0.00     0.065 C 
BRANCH   7   8
HETATM    8  C5  UNL     1      29.414   8.305  48.540  1.00  0.00     0.159 C 
HETATM    9  O1  UNL     1      29.729   8.765  47.427  1.00  0.00    -0.292 OA
BRANCH   8  10
HETATM   10  C4  UNL     1      30.772   8.002  49.007  1.00  0.00     0.150 C 
BRANCH  10  11
HETATM   11  S1  UNL     1      31.658   7.147  47.684  1.00  0.00    -0.197 SA
HETATM   12  C3  UNL     1      31.459   5.371  47.941  1.00  0.00     0.083 C 
BRANCH  11  13
HETATM   13  C2  UNL     1      33.241   7.498  47.893  1.00  0.00     0.003 C 
HETATM   14  C1  UNL     1      34.191   6.555  48.553  1.00  0.00     0.042 C 
ENDBRANCH  11  13
ENDBRANCH  10  11
ENDBRANCH   8  10
ENDBRANCH   7   8
ENDBRANCH   1   7
BRANCH   4  15
HETATM   15  O2  UNL     1      25.792   3.078  50.159  1.00  0.00    -0.347 OA
BRANCH  15  16
HETATM   16  C10 UNL     1      26.659   2.445  51.076  1.00  0.00     0.214 C 
BRANCH  16  17
HETATM   17  C11 UNL     1      25.927   1.402  51.865  1.00  0.00    -0.034 A 
HETATM   18  C12 UNL     1      26.512   0.203  52.248  1.00  0.00     0.009 A 
HETATM   19  C13 UNL     1      25.785  -0.721  52.978  1.00  0.00     0.001 A 
HETATM   20  C14 UNL     1      24.467  -0.495  53.350  1.00  0.00     0.000 A 
HETATM   21  C15 UNL     1      23.896   0.702  52.963  1.00  0.00     0.001 A 
HETATM   22  C16 UNL     1      24.612   1.643  52.230  1.00  0.00     0.009 A 
ENDBRANCH  16  17
ENDBRANCH  15  16
ENDBRANCH   4  15
TORSDOF 8
ENDMDL
