MODEL 1
REMARK VINA RESULT:      -7.0      0.000      0.000
REMARK  8 active torsions:
REMARK  status: ('A' for Active; 'I' for Inactive)
REMARK    1  A    between atoms: N1_1  and  C1_2 
REMARK       I    between atoms: N2_7  and  C6_8 
REMARK    2  A    between atoms: C6_8  and  C7_10 
REMARK    3  A    between atoms: C7_10  and  C8_11 
REMARK    4  A    between atoms: C8_11  and  C9_12 
REMARK    5  A    between atoms: C9_12  and  C10_13 
REMARK    6  A    between atoms: C10_13  and  C11_14 
REMARK    7  A    between atoms: C11_14  and  C12_15 
REMARK    8  A    between atoms: C17_21  and  O2_22 
ROOT
HETATM    1  C8  UNL     1      21.203  -0.044  53.924  1.00  0.00     0.009 C 
ENDROOT
BRANCH   1   2
HETATM    2  C7  UNL     1      20.713   0.353  52.541  1.00  0.00     0.103 C 
BRANCH   2   3
HETATM    3  C6  UNL     1      20.652   1.816  52.476  1.00  0.00     0.221 C 
HETATM    4  N2  UNL     1      21.579   2.476  51.598  1.00  0.00    -0.318 N 
HETATM    5  C1  UNL     1      22.582   1.864  50.755  1.00  0.00     0.325 C 
HETATM    6  C5  UNL     1      21.600   3.942  51.462  1.00  0.00     0.155 C 
HETATM    7  C2  UNL     1      23.914   2.568  50.776  1.00  0.00     0.084 C 
HETATM    8  C3  UNL     1      23.873   3.617  51.827  1.00  0.00    -0.025 C 
HETATM    9  C4  UNL     1      22.838   4.335  52.237  1.00  0.00    -0.011 C 
HETATM   10  O1  UNL     1      20.111   2.877  52.873  1.00  0.00    -0.273 OA
BRANCH   5  11
HETATM   11  N1  UNL     1      22.132   1.754  49.379  1.00  0.00     0.101 N 
HETATM   12  H1  UNL     1      21.523   0.915  49.223  1.00  0.00     0.315 HD
HETATM   13  H2  UNL     1      21.750   2.617  48.982  1.00  0.00     0.315 HD
ENDBRANCH   5  11
ENDBRANCH   2   3
ENDBRANCH   1   2
BRANCH   1  14
HETATM   14  C9  UNL     1      22.480  -0.821  53.785  1.00  0.00     0.001 C 
BRANCH  14  15
HETATM   15  C10 UNL     1      23.694   0.044  53.726  1.00  0.00     0.005 C 
BRANCH  15  16
HETATM   16  C11 UNL     1      24.818  -0.718  53.073  1.00  0.00     0.041 C 
BRANCH  16  17
HETATM   17  C12 UNL     1      26.127  -0.014  53.249  1.00  0.00    -0.023 A 
HETATM   18  C13 UNL     1      26.158   1.377  53.396  1.00  0.00     0.010 A 
HETATM   19  C14 UNL     1      27.323   2.093  53.561  1.00  0.00     0.002 A 
HETATM   20  C15 UNL     1      28.524   1.430  53.585  1.00  0.00     0.026 A 
HETATM   21  C16 UNL     1      28.526   0.062  53.443  1.00  0.00     0.067 A 
HETATM   22 CL1  UNL     1      30.014  -0.830  53.466  1.00  0.00    -0.081 Cl
HETATM   23  C17 UNL     1      27.350  -0.671  53.275  1.00  0.00     0.093 A 
BRANCH  23  24
HETATM   24  O2  UNL     1      27.360  -2.052  53.133  1.00  0.00    -0.358 OA
HETATM   25  H23 UNL     1      26.432  -2.490  53.051  1.00  0.00     0.217 HD
ENDBRANCH  23  24
ENDBRANCH  16  17
ENDBRANCH  15  16
ENDBRANCH  14  15
ENDBRANCH   1  14
TORSDOF 8
ENDMDL
MODEL 2
REMARK VINA RESULT:      -6.9      6.264      7.689
REMARK  8 active torsions:
REMARK  status: ('A' for Active; 'I' for Inactive)
REMARK    1  A    between atoms: N1_1  and  C1_2 
REMARK       I    between atoms: N2_7  and  C6_8 
REMARK    2  A    between atoms: C6_8  and  C7_10 
REMARK    3  A    between atoms: C7_10  and  C8_11 
REMARK    4  A    between atoms: C8_11  and  C9_12 
REMARK    5  A    between atoms: C9_12  and  C10_13 
REMARK    6  A    between atoms: C10_13  and  C11_14 
REMARK    7  A    between atoms: C11_14  and  C12_15 
REMARK    8  A    between atoms: C17_21  and  O2_22 
ROOT
HETATM    1  C8  UNL     1      27.805   4.998  48.604  1.00  0.00     0.009 C 
ENDROOT
BRANCH   1   2
HETATM    2  C7  UNL     1      27.679   6.472  48.254  1.00  0.00     0.103 C 
BRANCH   2   3
HETATM    3  C6  UNL     1      28.991   7.101  48.434  1.00  0.00     0.221 C 
HETATM    4  N2  UNL     1      29.014   8.436  48.966  1.00  0.00    -0.318 N 
HETATM    5  C1  UNL     1      27.883   9.251  49.353  1.00  0.00     0.325 C 
HETATM    6  C5  UNL     1      30.279   9.157  49.185  1.00  0.00     0.155 C 
HETATM    7  C2  UNL     1      27.978  10.686  48.905  1.00  0.00     0.084 C 
HETATM    8  C3  UNL     1      29.158  10.821  48.011  1.00  0.00    -0.025 C 
HETATM    9  C4  UNL     1      30.301  10.153  48.047  1.00  0.00    -0.011 C 
HETATM   10  O1  UNL     1      30.238   7.009  48.330  1.00  0.00    -0.273 OA
BRANCH   5  11
HETATM   11  N1  UNL     1      27.665   9.221  50.787  1.00  0.00     0.101 N 
HETATM   12  H1  UNL     1      28.177   8.435  51.255  1.00  0.00     0.315 HD
HETATM   13  H2  UNL     1      27.781  10.123  51.258  1.00  0.00     0.315 HD
ENDBRANCH   5  11
ENDBRANCH   2   3
ENDBRANCH   1   2
BRANCH   1  14
HETATM   14  C9  UNL     1      26.534   4.544  49.263  1.00  0.00     0.001 C 
BRANCH  14  15
HETATM   15  C10 UNL     1      26.598   3.139  49.762  1.00  0.00     0.005 C 
BRANCH  15  16
HETATM   16  C11 UNL     1      25.956   3.064  51.123  1.00  0.00     0.041 C 
BRANCH  16  17
HETATM   17  C12 UNL     1      26.434   1.868  51.885  1.00  0.00    -0.023 A 
HETATM   18  C13 UNL     1      25.665   0.700  51.906  1.00  0.00     0.010 A 
HETATM   19  C14 UNL     1      26.039  -0.439  52.586  1.00  0.00     0.002 A 
HETATM   20  C15 UNL     1      27.221  -0.450  53.283  1.00  0.00     0.026 A 
HETATM   21  C16 UNL     1      27.999   0.685  53.282  1.00  0.00     0.067 A 
HETATM   22 CL1  UNL     1      29.503   0.730  54.146  1.00  0.00    -0.081 Cl
HETATM   23  C17 UNL     1      27.627   1.843  52.596  1.00  0.00     0.093 A 
BRANCH  23  24
HETATM   24  O2  UNL     1      28.418   2.984  52.599  1.00  0.00    -0.358 OA
HETATM   25  H23 UNL     1      27.916   3.864  52.423  1.00  0.00     0.217 HD
ENDBRANCH  23  24
ENDBRANCH  16  17
ENDBRANCH  15  16
ENDBRANCH  14  15
ENDBRANCH   1  14
TORSDOF 8
ENDMDL
MODEL 3
REMARK VINA RESULT:      -6.9      2.837      5.768
REMARK  8 active torsions:
REMARK  status: ('A' for Active; 'I' for Inactive)
REMARK    1  A    between atoms: N1_1  and  C1_2 
REMARK       I    between atoms: N2_7  and  C6_8 
REMARK    2  A    between atoms: C6_8  and  C7_10 
REMARK    3  A    between atoms: C7_10  and  C8_11 
REMARK    4  A    between atoms: C8_11  and  C9_12 
REMARK    5  A    between atoms: C9_12  and  C10_13 
REMARK    6  A    between atoms: C10_13  and  C11_14 
REMARK    7  A    between atoms: C11_14  and  C12_15 
REMARK    8  A    between atoms: C17_21  and  O2_22 
ROOT
HETATM    1  C8  UNL     1      21.798  -0.580  54.905  1.00  0.00     0.009 C 
ENDROOT
BRANCH   1   2
HETATM    2  C7  UNL     1      22.801  -0.959  53.827  1.00  0.00     0.103 C 
BRANCH   2   3
HETATM    3  C6  UNL     1      24.149  -0.844  54.393  1.00  0.00     0.221 C 
HETATM    4  N2  UNL     1      25.013   0.161  53.838  1.00  0.00    -0.318 N 
HETATM    5  C1  UNL     1      24.712   1.092  52.772  1.00  0.00     0.325 C 
HETATM    6  C5  UNL     1      26.385   0.357  54.335  1.00  0.00     0.155 C 
HETATM    7  C2  UNL     1      25.823   1.254  51.767  1.00  0.00     0.084 C 
HETATM    8  C3  UNL     1      26.875   0.247  52.065  1.00  0.00    -0.025 C 
HETATM    9  C4  UNL     1      27.231  -0.253  53.239  1.00  0.00    -0.011 C 
HETATM   10  O1  UNL     1      24.992  -1.259  55.225  1.00  0.00    -0.273 OA
BRANCH   5  11
HETATM   11  N1  UNL     1      24.351   2.400  53.287  1.00  0.00     0.101 N 
HETATM   12  H1  UNL     1      23.346   2.638  53.108  1.00  0.00     0.315 HD
HETATM   13  H2  UNL     1      24.648   2.579  54.251  1.00  0.00     0.315 HD
ENDBRANCH   5  11
ENDBRANCH   2   3
ENDBRANCH   1   2
BRANCH   1  14
HETATM   14  C9  UNL     1      20.761   0.328  54.308  1.00  0.00     0.001 C 
BRANCH  14  15
HETATM   15  C10 UNL     1      20.820   0.392  52.819  1.00  0.00     0.005 C 
BRANCH  15  16
HETATM   16  C11 UNL     1      20.913   1.833  52.386  1.00  0.00     0.041 C 
BRANCH  16  17
HETATM   17  C12 UNL     1      21.422   1.947  50.983  1.00  0.00    -0.023 A 
HETATM   18  C13 UNL     1      21.092   0.970  50.039  1.00  0.00     0.010 A 
HETATM   19  C14 UNL     1      21.523   1.007  48.731  1.00  0.00     0.002 A 
HETATM   20  C15 UNL     1      22.316   2.045  48.312  1.00  0.00     0.026 A 
HETATM   21  C16 UNL     1      22.658   3.023  49.218  1.00  0.00     0.067 A 
HETATM   22 CL1  UNL     1      23.658   4.359  48.746  1.00  0.00    -0.081 Cl
HETATM   23  C17 UNL     1      22.225   2.992  50.545  1.00  0.00     0.093 A 
BRANCH  23  24
HETATM   24  O2  UNL     1      22.574   3.982  51.454  1.00  0.00    -0.358 OA
HETATM   25  H23 UNL     1      22.286   4.935  51.194  1.00  0.00     0.217 HD
ENDBRANCH  23  24
ENDBRANCH  16  17
ENDBRANCH  15  16
ENDBRANCH  14  15
ENDBRANCH   1  14
TORSDOF 8
ENDMDL
MODEL 4
REMARK VINA RESULT:      -6.8      3.012      3.866
REMARK  8 active torsions:
REMARK  status: ('A' for Active; 'I' for Inactive)
REMARK    1  A    between atoms: N1_1  and  C1_2 
REMARK       I    between atoms: N2_7  and  C6_8 
REMARK    2  A    between atoms: C6_8  and  C7_10 
REMARK    3  A    between atoms: C7_10  and  C8_11 
REMARK    4  A    between atoms: C8_11  and  C9_12 
REMARK    5  A    between atoms: C9_12  and  C10_13 
REMARK    6  A    between atoms: C10_13  and  C11_14 
REMARK    7  A    between atoms: C11_14  and  C12_15 
REMARK    8  A    between atoms: C17_21  and  O2_22 
ROOT
HETATM    1  C8  UNL     1      23.701   2.845  52.706  1.00  0.00     0.009 C 
ENDROOT
BRANCH   1   2
HETATM    2  C7  UNL     1      23.042   3.435  51.470  1.00  0.00     0.103 C 
BRANCH   2   3
HETATM    3  C6  UNL     1      24.097   3.866  50.547  1.00  0.00     0.221 C 
HETATM    4  N2  UNL     1      24.347   5.278  50.446  1.00  0.00    -0.318 N 
HETATM    5  C1  UNL     1      23.676   6.345  51.154  1.00  0.00     0.325 C 
HETATM    6  C5  UNL     1      25.384   5.814  49.549  1.00  0.00     0.155 C 
HETATM    7  C2  UNL     1      23.335   7.534  50.294  1.00  0.00     0.084 C 
HETATM    8  C3  UNL     1      23.634   7.190  48.879  1.00  0.00    -0.025 C 
HETATM    9  C4  UNL     1      24.577   6.389  48.406  1.00  0.00    -0.011 C 
HETATM   10  O1  UNL     1      24.979   3.544  49.714  1.00  0.00    -0.273 OA
BRANCH   5  11
HETATM   11  N1  UNL     1      24.446   6.798  52.298  1.00  0.00     0.101 N 
HETATM   12  H1  UNL     1      24.950   7.698  52.111  1.00  0.00     0.315 HD
HETATM   13  H2  UNL     1      23.938   6.791  53.188  1.00  0.00     0.315 HD
ENDBRANCH   5  11
ENDBRANCH   2   3
ENDBRANCH   1   2
BRANCH   1  14
HETATM   14  C9  UNL     1      23.294   1.406  52.836  1.00  0.00     0.001 C 
BRANCH  14  15
HETATM   15  C10 UNL     1      24.435   0.495  53.143  1.00  0.00     0.005 C 
BRANCH  15  16
HETATM   16  C11 UNL     1      25.569   0.781  52.193  1.00  0.00     0.041 C 
BRANCH  16  17
HETATM   17  C12 UNL     1      26.891   0.439  52.805  1.00  0.00    -0.023 A 
HETATM   18  C13 UNL     1      27.417  -0.849  52.658  1.00  0.00     0.010 A 
HETATM   19  C14 UNL     1      28.626  -1.237  53.193  1.00  0.00     0.002 A 
HETATM   20  C15 UNL     1      29.367  -0.332  53.911  1.00  0.00     0.026 A 
HETATM   21  C16 UNL     1      28.876   0.943  54.074  1.00  0.00     0.067 A 
HETATM   22 CL1  UNL     1      29.768   2.129  54.971  1.00  0.00    -0.081 Cl
HETATM   23  C17 UNL     1      27.652   1.344  53.534  1.00  0.00     0.093 A 
BRANCH  23  24
HETATM   24  O2  UNL     1      27.162   2.632  53.702  1.00  0.00    -0.358 OA
HETATM   25  H23 UNL     1      27.547   3.144  54.507  1.00  0.00     0.217 HD
ENDBRANCH  23  24
ENDBRANCH  16  17
ENDBRANCH  15  16
ENDBRANCH  14  15
ENDBRANCH   1  14
TORSDOF 8
ENDMDL
MODEL 5
REMARK VINA RESULT:      -6.8      1.698      2.064
REMARK  8 active torsions:
REMARK  status: ('A' for Active; 'I' for Inactive)
REMARK    1  A    between atoms: N1_1  and  C1_2 
REMARK       I    between atoms: N2_7  and  C6_8 
REMARK    2  A    between atoms: C6_8  and  C7_10 
REMARK    3  A    between atoms: C7_10  and  C8_11 
REMARK    4  A    between atoms: C8_11  and  C9_12 
REMARK    5  A    between atoms: C9_12  and  C10_13 
REMARK    6  A    between atoms: C10_13  and  C11_14 
REMARK    7  A    between atoms: C11_14  and  C12_15 
REMARK    8  A    between atoms: C17_21  and  O2_22 
ROOT
HETATM    1  C8  UNL     1      21.567   0.329  53.722  1.00  0.00     0.009 C 
ENDROOT
BRANCH   1   2
HETATM    2  C7  UNL     1      20.376   0.615  52.821  1.00  0.00     0.103 C 
BRANCH   2   3
HETATM    3  C6  UNL     1      20.403   2.036  52.461  1.00  0.00     0.221 C 
HETATM    4  N2  UNL     1      20.720   2.365  51.099  1.00  0.00    -0.318 N 
HETATM    5  C1  UNL     1      21.021   1.452  50.019  1.00  0.00     0.325 C 
HETATM    6  C5  UNL     1      20.773   3.762  50.636  1.00  0.00     0.155 C 
HETATM    7  C2  UNL     1      22.182   1.879  49.159  1.00  0.00     0.084 C 
HETATM    8  C3  UNL     1      22.823   3.062  49.791  1.00  0.00    -0.025 C 
HETATM    9  C4  UNL     1      22.259   4.019  50.512  1.00  0.00    -0.011 C 
HETATM   10  O1  UNL     1      20.263   3.229  52.827  1.00  0.00    -0.273 OA
BRANCH   5  11
HETATM   11  N1  UNL     1      19.866   1.226  49.169  1.00  0.00     0.101 N 
HETATM   12  H1  UNL     1      19.936   1.734  48.255  1.00  0.00     0.315 HD
HETATM   13  H2  UNL     1      19.590   0.244  49.072  1.00  0.00     0.315 HD
ENDBRANCH   5  11
ENDBRANCH   2   3
ENDBRANCH   1   2
BRANCH   1  14
HETATM   14  C9  UNL     1      22.788   0.135  52.870  1.00  0.00     0.001 C 
BRANCH  14  15
HETATM   15  C10 UNL     1      23.853   1.148  53.128  1.00  0.00     0.005 C 
BRANCH  15  16
HETATM   16  C11 UNL     1      24.897   1.059  52.045  1.00  0.00     0.041 C 
BRANCH  16  17
HETATM   17  C12 UNL     1      26.196   0.545  52.582  1.00  0.00    -0.023 A 
HETATM   18  C13 UNL     1      26.513  -0.812  52.461  1.00  0.00     0.010 A 
HETATM   19  C14 UNL     1      27.688  -1.357  52.932  1.00  0.00     0.002 A 
HETATM   20  C15 UNL     1      28.606  -0.548  53.552  1.00  0.00     0.026 A 
HETATM   21  C16 UNL     1      28.322   0.791  53.686  1.00  0.00     0.067 A 
HETATM   22 CL1  UNL     1      29.445   1.863  54.462  1.00  0.00    -0.081 Cl
HETATM   23  C17 UNL     1      27.134   1.352  53.212  1.00  0.00     0.093 A 
BRANCH  23  24
HETATM   24  O2  UNL     1      26.855   2.705  53.350  1.00  0.00    -0.358 OA
HETATM   25  H23 UNL     1      27.058   3.280  52.521  1.00  0.00     0.217 HD
ENDBRANCH  23  24
ENDBRANCH  16  17
ENDBRANCH  15  16
ENDBRANCH  14  15
ENDBRANCH   1  14
TORSDOF 8
ENDMDL
MODEL 6
REMARK VINA RESULT:      -6.7      3.657      5.922
REMARK  8 active torsions:
REMARK  status: ('A' for Active; 'I' for Inactive)
REMARK    1  A    between atoms: N1_1  and  C1_2 
REMARK       I    between atoms: N2_7  and  C6_8 
REMARK    2  A    between atoms: C6_8  and  C7_10 
REMARK    3  A    between atoms: C7_10  and  C8_11 
REMARK    4  A    between atoms: C8_11  and  C9_12 
REMARK    5  A    between atoms: C9_12  and  C10_13 
REMARK    6  A    between atoms: C10_13  and  C11_14 
REMARK    7  A    between atoms: C11_14  and  C12_15 
REMARK    8  A    between atoms: C17_21  and  O2_22 
ROOT
HETATM    1  C8  UNL     1      22.143   1.058  51.013  1.00  0.00     0.009 C 
ENDROOT
BRANCH   1   2
HETATM    2  C7  UNL     1      22.969   1.630  52.153  1.00  0.00     0.103 C 
BRANCH   2   3
HETATM    3  C6  UNL     1      23.519   0.513  52.928  1.00  0.00     0.221 C 
HETATM    4  N2  UNL     1      24.915   0.569  53.266  1.00  0.00    -0.318 N 
HETATM    5  C1  UNL     1      25.861   1.610  52.931  1.00  0.00     0.325 C 
HETATM    6  C5  UNL     1      25.565  -0.502  54.040  1.00  0.00     0.155 C 
HETATM    7  C2  UNL     1      27.199   1.097  52.464  1.00  0.00     0.084 C 
HETATM    8  C3  UNL     1      27.105  -0.377  52.303  1.00  0.00    -0.025 C 
HETATM    9  C4  UNL     1      26.368  -1.237  52.990  1.00  0.00    -0.011 C 
HETATM   10  O1  UNL     1      23.320  -0.589  53.495  1.00  0.00    -0.273 OA
BRANCH   5  11
HETATM   11  N1  UNL     1      26.070   2.523  54.040  1.00  0.00     0.101 N 
HETATM   12  H1  UNL     1      25.981   3.528  53.755  1.00  0.00     0.315 HD
HETATM   13  H2  UNL     1      25.550   2.291  54.891  1.00  0.00     0.315 HD
ENDBRANCH   5  11
ENDBRANCH   2   3
ENDBRANCH   1   2
BRANCH   1  14
HETATM   14  C9  UNL     1      21.553   2.191  50.223  1.00  0.00     0.001 C 
BRANCH  14  15
HETATM   15  C10 UNL     1      22.428   2.647  49.104  1.00  0.00     0.005 C 
BRANCH  15  16
HETATM   16  C11 UNL     1      22.822   4.083  49.334  1.00  0.00     0.041 C 
BRANCH  16  17
HETATM   17  C12 UNL     1      24.306   4.260  49.250  1.00  0.00    -0.023 A 
HETATM   18  C13 UNL     1      25.156   3.203  49.593  1.00  0.00     0.010 A 
HETATM   19  C14 UNL     1      26.530   3.292  49.542  1.00  0.00     0.002 A 
HETATM   20  C15 UNL     1      27.115   4.465  49.138  1.00  0.00     0.026 A 
HETATM   21  C16 UNL     1      26.305   5.523  48.795  1.00  0.00     0.067 A 
HETATM   22 CL1  UNL     1      26.989   7.031  48.277  1.00  0.00    -0.081 Cl
HETATM   23  C17 UNL     1      24.912   5.441  48.844  1.00  0.00     0.093 A 
BRANCH  23  24
HETATM   24  O2  UNL     1      24.101   6.513  48.495  1.00  0.00    -0.358 OA
HETATM   25  H23 UNL     1      23.292   6.667  49.111  1.00  0.00     0.217 HD
ENDBRANCH  23  24
ENDBRANCH  16  17
ENDBRANCH  15  16
ENDBRANCH  14  15
ENDBRANCH   1  14
TORSDOF 8
ENDMDL
MODEL 7
REMARK VINA RESULT:      -6.7      4.572      5.777
REMARK  8 active torsions:
REMARK  status: ('A' for Active; 'I' for Inactive)
REMARK    1  A    between atoms: N1_1  and  C1_2 
REMARK       I    between atoms: N2_7  and  C6_8 
REMARK    2  A    between atoms: C6_8  and  C7_10 
REMARK    3  A    between atoms: C7_10  and  C8_11 
REMARK    4  A    between atoms: C8_11  and  C9_12 
REMARK    5  A    between atoms: C9_12  and  C10_13 
REMARK    6  A    between atoms: C10_13  and  C11_14 
REMARK    7  A    between atoms: C11_14  and  C12_15 
REMARK    8  A    between atoms: C17_21  and  O2_22 
ROOT
HETATM    1  C8  UNL     1      25.022   3.574  50.154  1.00  0.00     0.009 C 
ENDROOT
BRANCH   1   2
HETATM    2  C7  UNL     1      25.181   4.874  49.380  1.00  0.00     0.103 C 
BRANCH   2   3
HETATM    3  C6  UNL     1      26.590   5.013  48.999  1.00  0.00     0.221 C 
HETATM    4  N2  UNL     1      27.119   6.346  48.904  1.00  0.00    -0.318 N 
HETATM    5  C1  UNL     1      26.420   7.590  49.143  1.00  0.00     0.325 C 
HETATM    6  C5  UNL     1      28.520   6.593  48.529  1.00  0.00     0.155 C 
HETATM    7  C2  UNL     1      26.712   8.662  48.125  1.00  0.00     0.084 C 
HETATM    8  C3  UNL     1      27.519   8.063  47.031  1.00  0.00    -0.025 C 
HETATM    9  C4  UNL     1      28.406   7.081  47.102  1.00  0.00    -0.011 C 
HETATM   10  O1  UNL     1      27.667   4.451  48.683  1.00  0.00    -0.273 OA
BRANCH   5  11
HETATM   11  N1  UNL     1      26.694   8.114  50.468  1.00  0.00     0.101 N 
HETATM   12  H1  UNL     1      26.261   7.534  51.226  1.00  0.00     0.315 HD
HETATM   13  H2  UNL     1      27.676   8.348  50.643  1.00  0.00     0.315 HD
ENDBRANCH   5  11
ENDBRANCH   2   3
ENDBRANCH   1   2
BRANCH   1  14
HETATM   14  C9  UNL     1      23.990   3.770  51.227  1.00  0.00     0.001 C 
BRANCH  14  15
HETATM   15  C10 UNL     1      23.864   2.599  52.144  1.00  0.00     0.005 C 
BRANCH  15  16
HETATM   16  C11 UNL     1      24.907   2.700  53.227  1.00  0.00     0.041 C 
BRANCH  16  17
HETATM   17  C12 UNL     1      25.892   1.576  53.140  1.00  0.00    -0.023 A 
HETATM   18  C13 UNL     1      25.514   0.361  52.558  1.00  0.00     0.010 A 
HETATM   19  C14 UNL     1      26.364  -0.718  52.444  1.00  0.00     0.002 A 
HETATM   20  C15 UNL     1      27.648  -0.617  52.917  1.00  0.00     0.026 A 
HETATM   21  C16 UNL     1      28.049   0.565  53.495  1.00  0.00     0.067 A 
HETATM   22 CL1  UNL     1      29.660   0.751  54.110  1.00  0.00    -0.081 Cl
HETATM   23  C17 UNL     1      27.194   1.663  53.614  1.00  0.00     0.093 A 
BRANCH  23  24
HETATM   24  O2  UNL     1      27.605   2.854  54.197  1.00  0.00    -0.358 OA
HETATM   25  H23 UNL     1      27.131   3.698  53.849  1.00  0.00     0.217 HD
ENDBRANCH  23  24
ENDBRANCH  16  17
ENDBRANCH  15  16
ENDBRANCH  14  15
ENDBRANCH   1  14
TORSDOF 8
ENDMDL
MODEL 8
REMARK VINA RESULT:      -6.7      3.563      6.113
REMARK  8 active torsions:
REMARK  status: ('A' for Active; 'I' for Inactive)
REMARK    1  A    between atoms: N1_1  and  C1_2 
REMARK       I    between atoms: N2_7  and  C6_8 
REMARK    2  A    between atoms: C6_8  and  C7_10 
REMARK    3  A    between atoms: C7_10  and  C8_11 
REMARK    4  A    between atoms: C8_11  and  C9_12 
REMARK    5  A    between atoms: C9_12  and  C10_13 
REMARK    6  A    between atoms: C10_13  and  C11_14 
REMARK    7  A    between atoms: C11_14  and  C12_15 
REMARK    8  A    between atoms: C17_21  and  O2_22 
ROOT
HETATM    1  C8  UNL     1      23.120   0.720  53.414  1.00  0.00     0.009 C 
ENDROOT
BRANCH   1   2
HETATM    2  C7  UNL     1      24.221  -0.157  52.837  1.00  0.00     0.103 C 
BRANCH   2   3
HETATM    3  C6  UNL     1      25.180  -0.453  53.906  1.00  0.00     0.221 C 
HETATM    4  N2  UNL     1      26.283   0.454  54.070  1.00  0.00    -0.318 N 
HETATM    5  C1  UNL     1      26.568   1.644  53.299  1.00  0.00     0.325 C 
HETATM    6  C5  UNL     1      27.302   0.247  55.113  1.00  0.00     0.155 C 
HETATM    7  C2  UNL     1      28.019   1.801  52.925  1.00  0.00     0.084 C 
HETATM    8  C3  UNL     1      28.739   0.560  53.312  1.00  0.00    -0.025 C 
HETATM    9  C4  UNL     1      28.492  -0.256  54.326  1.00  0.00    -0.011 C 
HETATM   10  O1  UNL     1      25.527  -1.210  54.845  1.00  0.00    -0.273 OA
BRANCH   5  11
HETATM   11  N1  UNL     1      26.127   2.846  53.984  1.00  0.00     0.101 N 
HETATM   12  H1  UNL     1      25.822   3.597  53.320  1.00  0.00     0.315 HD
HETATM   13  H2  UNL     1      25.469   2.686  54.752  1.00  0.00     0.315 HD
ENDBRANCH   5  11
ENDBRANCH   2   3
ENDBRANCH   1   2
BRANCH   1  14
HETATM   14  C9  UNL     1      22.437   1.446  52.291  1.00  0.00     0.001 C 
BRANCH  14  15
HETATM   15  C10 UNL     1      23.210   2.621  51.792  1.00  0.00     0.005 C 
BRANCH  15  16
HETATM   16  C11 UNL     1      23.467   2.457  50.317  1.00  0.00     0.041 C 
BRANCH  16  17
HETATM   17  C12 UNL     1      24.488   3.438  49.831  1.00  0.00    -0.023 A 
HETATM   18  C13 UNL     1      25.849   3.116  49.889  1.00  0.00     0.010 A 
HETATM   19  C14 UNL     1      26.845   3.966  49.462  1.00  0.00     0.002 A 
HETATM   20  C15 UNL     1      26.510   5.195  48.951  1.00  0.00     0.026 A 
HETATM   21  C16 UNL     1      25.180   5.540  48.881  1.00  0.00     0.067 A 
HETATM   22 CL1  UNL     1      24.696   7.080  48.245  1.00  0.00    -0.081 Cl
HETATM   23  C17 UNL     1      24.164   4.684  49.312  1.00  0.00     0.093 A 
BRANCH  23  24
HETATM   24  O2  UNL     1      22.824   5.039  49.238  1.00  0.00    -0.358 OA
HETATM   25  H23 UNL     1      22.324   4.689  48.409  1.00  0.00     0.217 HD
ENDBRANCH  23  24
ENDBRANCH  16  17
ENDBRANCH  15  16
ENDBRANCH  14  15
ENDBRANCH   1  14
TORSDOF 8
ENDMDL
MODEL 9
REMARK VINA RESULT:      -6.6      3.868      5.146
REMARK  8 active torsions:
REMARK  status: ('A' for Active; 'I' for Inactive)
REMARK    1  A    between atoms: N1_1  and  C1_2 
REMARK       I    between atoms: N2_7  and  C6_8 
REMARK    2  A    between atoms: C6_8  and  C7_10 
REMARK    3  A    between atoms: C7_10  and  C8_11 
REMARK    4  A    between atoms: C8_11  and  C9_12 
REMARK    5  A    between atoms: C9_12  and  C10_13 
REMARK    6  A    between atoms: C10_13  and  C11_14 
REMARK    7  A    between atoms: C11_14  and  C12_15 
REMARK    8  A    between atoms: C17_21  and  O2_22 
ROOT
HETATM    1  C8  UNL     1      25.978   3.583  50.320  1.00  0.00     0.009 C 
ENDROOT
BRANCH   1   2
HETATM    2  C7  UNL     1      25.416   4.458  49.210  1.00  0.00     0.103 C 
BRANCH   2   3
HETATM    3  C6  UNL     1      26.140   5.733  49.220  1.00  0.00     0.221 C 
HETATM    4  N2  UNL     1      25.532   6.830  49.921  1.00  0.00    -0.318 N 
HETATM    5  C1  UNL     1      24.273   6.832  50.633  1.00  0.00     0.325 C 
HETATM    6  C5  UNL     1      26.176   8.152  49.990  1.00  0.00     0.155 C 
HETATM    7  C2  UNL     1      23.429   8.055  50.385  1.00  0.00     0.084 C 
HETATM    8  C3  UNL     1      24.067   8.854  49.307  1.00  0.00    -0.025 C 
HETATM    9  C4  UNL     1      25.355   8.977  49.023  1.00  0.00    -0.011 C 
HETATM   10  O1  UNL     1      27.150   6.386  48.862  1.00  0.00    -0.273 OA
BRANCH   5  11
HETATM   11  N1  UNL     1      24.464   6.677  52.064  1.00  0.00     0.101 N 
HETATM   12  H1  UNL     1      24.825   7.550  52.517  1.00  0.00     0.315 HD
HETATM   13  H2  UNL     1      23.674   6.254  52.559  1.00  0.00     0.315 HD
ENDBRANCH   5  11
ENDBRANCH   2   3
ENDBRANCH   1   2
BRANCH   1  14
HETATM   14  C9  UNL     1      24.857   3.171  51.230  1.00  0.00     0.001 C 
BRANCH  14  15
HETATM   15  C10 UNL     1      25.310   2.347  52.388  1.00  0.00     0.005 C 
BRANCH  15  16
HETATM   16  C11 UNL     1      26.809   2.203  52.341  1.00  0.00     0.041 C 
BRANCH  16  17
HETATM   17  C12 UNL     1      27.228   0.790  52.600  1.00  0.00    -0.023 A 
HETATM   18  C13 UNL     1      26.335  -0.259  52.356  1.00  0.00     0.010 A 
HETATM   19  C14 UNL     1      26.649  -1.584  52.570  1.00  0.00     0.002 A 
HETATM   20  C15 UNL     1      27.893  -1.913  53.047  1.00  0.00     0.026 A 
HETATM   21  C16 UNL     1      28.793  -0.903  53.297  1.00  0.00     0.067 A 
HETATM   22 CL1  UNL     1      30.380  -1.259  53.900  1.00  0.00    -0.081 Cl
HETATM   23  C17 UNL     1      28.483   0.441  53.081  1.00  0.00     0.093 A 
BRANCH  23  24
HETATM   24  O2  UNL     1      29.397   1.455  53.335  1.00  0.00    -0.358 OA
HETATM   25  H23 UNL     1      30.345   1.138  53.580  1.00  0.00     0.217 HD
ENDBRANCH  23  24
ENDBRANCH  16  17
ENDBRANCH  15  16
ENDBRANCH  14  15
ENDBRANCH   1  14
TORSDOF 8
ENDMDL
