MODEL 1
REMARK VINA RESULT:      -9.2      0.000      0.000
REMARK  4 active torsions:
REMARK  status: ('A' for Active; 'I' for Inactive)
REMARK    1  A    between atoms: C2_2  and  N1_3 
REMARK    2  A    between atoms: C2_2  and  C15_19 
REMARK    3  A    between atoms: N1_3  and  C3_4 
REMARK    4  A    between atoms: C13_17  and  C14_18 
ROOT
HETATM    1  C3  UNL     1      26.513   1.866  51.706  1.00  0.00     0.107 C 
HETATM    2  N2  UNL     1      27.608   2.631  51.911  1.00  0.00    -0.229 NA
HETATM    3  C4  UNL     1      28.179   2.124  53.187  1.00  0.00     0.230 C 
HETATM    4  N3  UNL     1      28.691   2.028  54.327  1.00  0.00    -0.264 NA
HETATM    5  C5  UNL     1      28.801   0.551  54.739  1.00  0.00     0.267 C 
HETATM    6  N4  UNL     1      27.310   0.468  55.149  1.00  0.00    -0.398 N 
HETATM    7  C6  UNL     1      26.334   0.733  54.286  1.00  0.00     0.019 A 
HETATM    8  C7  UNL     1      25.744  -0.135  53.278  1.00  0.00     0.092 A 
HETATM    9  C8  UNL     1      25.626   0.789  52.050  1.00  0.00     0.071 A 
HETATM   10  C9  UNL     1      24.055   1.373  52.298  1.00  0.00     0.006 A 
HETATM   11  C10 UNL     1      23.686   2.676  52.402  1.00  0.00    -0.015 A 
HETATM   12  C11 UNL     1      24.266   3.517  53.328  1.00  0.00    -0.006 A 
HETATM   13  C12 UNL     1      25.123   2.608  53.854  1.00  0.00    -0.015 A 
HETATM   14  C13 UNL     1      25.135   1.163  53.302  1.00  0.00     0.007 A 
HETATM   15  C14 UNL     1      24.433   0.255  52.270  1.00  0.00     0.027 A 
HETATM   16  H9  UNL     1      26.294   0.429  55.376  1.00  0.00     0.178 HD
ENDROOT
BRANCH   1  17
HETATM   17  N1  UNL     1      26.087   2.482  50.472  1.00  0.00    -0.369 N 
HETATM   18  H5  UNL     1      25.804   1.873  49.623  1.00  0.00     0.161 HD
BRANCH  17  19
HETATM   19  C2  UNL     1      25.928   3.861  50.086  1.00  0.00     0.112 C 
HETATM   20  C1  UNL     1      27.080   4.180  49.119  1.00  0.00     0.037 C 
BRANCH  19  21
HETATM   21  C15 UNL     1      24.685   4.123  49.311  1.00  0.00    -0.036 A 
HETATM   22  C16 UNL     1      23.662   3.234  48.977  1.00  0.00     0.012 A 
HETATM   23  C17 UNL     1      22.612   3.776  48.243  1.00  0.00     0.043 A 
HETATM   24  C18 UNL     1      22.558   5.114  47.851  1.00  0.00     0.116 A 
HETATM   25  F1  UNL     1      21.423   5.455  47.102  1.00  0.00    -0.206 F 
HETATM   26  C19 UNL     1      23.585   5.964  48.199  1.00  0.00     0.043 A 
HETATM   27  C20 UNL     1      24.663   5.463  48.938  1.00  0.00     0.012 A 
ENDBRANCH  19  21
ENDBRANCH  17  19
ENDBRANCH   1  17
TORSDOF 4
ENDMDL
MODEL 2
REMARK VINA RESULT:      -8.7      3.187      6.443
REMARK  4 active torsions:
REMARK  status: ('A' for Active; 'I' for Inactive)
REMARK    1  A    between atoms: C2_2  and  N1_3 
REMARK    2  A    between atoms: C2_2  and  C15_19 
REMARK    3  A    between atoms: N1_3  and  C3_4 
REMARK    4  A    between atoms: C13_17  and  C14_18 
ROOT
HETATM    1  C3  UNL     1      25.178   2.935  51.192  1.00  0.00     0.107 C 
HETATM    2  N2  UNL     1      26.212   2.903  50.322  1.00  0.00    -0.229 NA
HETATM    3  C4  UNL     1      26.219   4.256  49.706  1.00  0.00     0.230 C 
HETATM    4  N3  UNL     1      26.271   5.218  48.904  1.00  0.00    -0.264 NA
HETATM    5  C5  UNL     1      26.042   6.545  49.646  1.00  0.00     0.267 C 
HETATM    6  N4  UNL     1      24.506   6.357  49.681  1.00  0.00    -0.398 N 
HETATM    7  C6  UNL     1      23.946   5.296  50.255  1.00  0.00     0.019 A 
HETATM    8  C7  UNL     1      23.656   5.063  51.661  1.00  0.00     0.092 A 
HETATM    9  C8  UNL     1      24.102   3.603  51.870  1.00  0.00     0.071 A 
HETATM   10  C9  UNL     1      22.632   2.821  51.559  1.00  0.00     0.006 A 
HETATM   11  C10 UNL     1      22.414   1.854  50.631  1.00  0.00    -0.015 A 
HETATM   12  C11 UNL     1      22.720   2.050  49.301  1.00  0.00    -0.006 A 
HETATM   13  C12 UNL     1      23.212   3.306  49.435  1.00  0.00    -0.015 A 
HETATM   14  C13 UNL     1      23.243   3.968  50.833  1.00  0.00     0.007 A 
HETATM   15  C14 UNL     1      22.854   3.710  52.303  1.00  0.00     0.027 A 
HETATM   16  H9  UNL     1      23.480   6.183  49.729  1.00  0.00     0.178 HD
ENDROOT
BRANCH   1  17
HETATM   17  N1  UNL     1      25.305   1.581  51.677  1.00  0.00    -0.369 N 
HETATM   18  H5  UNL     1      25.271   0.746  50.990  1.00  0.00     0.161 HD
BRANCH  17  19
HETATM   19  C2  UNL     1      25.498   1.045  53.000  1.00  0.00     0.112 C 
HETATM   20  C1  UNL     1      24.418  -0.032  53.197  1.00  0.00     0.037 C 
BRANCH  19  21
HETATM   21  C15 UNL     1      26.794   0.333  53.171  1.00  0.00    -0.036 A 
HETATM   22  C16 UNL     1      27.100  -1.000  52.890  1.00  0.00     0.012 A 
HETATM   23  C17 UNL     1      28.412  -1.382  53.149  1.00  0.00     0.043 A 
HETATM   24  C18 UNL     1      29.379  -0.514  53.659  1.00  0.00     0.116 A 
HETATM   25  F1  UNL     1      30.635  -1.100  53.865  1.00  0.00    -0.206 F 
HETATM   26  C19 UNL     1      29.042   0.795  53.924  1.00  0.00     0.043 A 
HETATM   27  C20 UNL     1      27.733   1.225  53.678  1.00  0.00     0.012 A 
ENDBRANCH  19  21
ENDBRANCH  17  19
ENDBRANCH   1  17
TORSDOF 4
ENDMDL
MODEL 3
REMARK VINA RESULT:      -8.6      3.185      6.738
REMARK  4 active torsions:
REMARK  status: ('A' for Active; 'I' for Inactive)
REMARK    1  A    between atoms: C2_2  and  N1_3 
REMARK    2  A    between atoms: C2_2  and  C15_19 
REMARK    3  A    between atoms: N1_3  and  C3_4 
REMARK    4  A    between atoms: C13_17  and  C14_18 
ROOT
HETATM    1  C3  UNL     1      23.841   4.726  51.108  1.00  0.00     0.107 C 
HETATM    2  N2  UNL     1      23.799   5.899  51.778  1.00  0.00    -0.229 NA
HETATM    3  C4  UNL     1      23.009   6.799  50.897  1.00  0.00     0.230 C 
HETATM    4  N3  UNL     1      22.588   7.777  50.235  1.00  0.00    -0.264 NA
HETATM    5  C5  UNL     1      21.322   7.388  49.456  1.00  0.00     0.267 C 
HETATM    6  N4  UNL     1      22.126   6.681  48.337  1.00  0.00    -0.398 N 
HETATM    7  C6  UNL     1      22.948   5.670  48.602  1.00  0.00     0.019 A 
HETATM    8  C7  UNL     1      22.634   4.262  48.786  1.00  0.00     0.092 A 
HETATM    9  C8  UNL     1      23.489   3.872  50.008  1.00  0.00     0.071 A 
HETATM   10  C9  UNL     1      24.882   3.337  49.206  1.00  0.00     0.006 A 
HETATM   11  C10 UNL     1      26.146   3.801  49.387  1.00  0.00    -0.015 A 
HETATM   12  C11 UNL     1      26.446   5.140  49.253  1.00  0.00    -0.006 A 
HETATM   13  C12 UNL     1      25.189   5.558  48.967  1.00  0.00    -0.015 A 
HETATM   14  C13 UNL     1      24.039   4.525  48.904  1.00  0.00     0.007 A 
HETATM   15  C14 UNL     1      23.760   3.013  49.035  1.00  0.00     0.027 A 
HETATM   16  H9  UNL     1      22.690   6.175  47.622  1.00  0.00     0.178 HD
ENDROOT
BRANCH   1  17
HETATM   17  N1  UNL     1      24.630   3.993  52.070  1.00  0.00    -0.369 N 
HETATM   18  H5  UNL     1      25.680   4.221  52.206  1.00  0.00     0.161 HD
BRANCH  17  19
HETATM   19  C2  UNL     1      24.296   2.934  52.986  1.00  0.00     0.112 C 
HETATM   20  C1  UNL     1      22.844   2.531  52.678  1.00  0.00     0.037 C 
BRANCH  19  21
HETATM   21  C15 UNL     1      25.095   1.694  52.782  1.00  0.00    -0.036 A 
HETATM   22  C16 UNL     1      26.322   1.545  52.135  1.00  0.00     0.012 A 
HETATM   23  C17 UNL     1      26.834   0.252  52.108  1.00  0.00     0.043 A 
HETATM   24  C18 UNL     1      26.184  -0.843  52.680  1.00  0.00     0.116 A 
HETATM   25  F1  UNL     1      26.859  -2.063  52.529  1.00  0.00    -0.206 F 
HETATM   26  C19 UNL     1      24.975  -0.659  53.313  1.00  0.00     0.043 A 
HETATM   27  C20 UNL     1      24.421   0.626  53.364  1.00  0.00     0.012 A 
ENDBRANCH  19  21
ENDBRANCH  17  19
ENDBRANCH   1  17
TORSDOF 4
ENDMDL
MODEL 4
REMARK VINA RESULT:      -8.3      3.618      6.784
REMARK  4 active torsions:
REMARK  status: ('A' for Active; 'I' for Inactive)
REMARK    1  A    between atoms: C2_2  and  N1_3 
REMARK    2  A    between atoms: C2_2  and  C15_19 
REMARK    3  A    between atoms: N1_3  and  C3_4 
REMARK    4  A    between atoms: C13_17  and  C14_18 
ROOT
HETATM    1  C3  UNL     1      22.989   2.432  51.919  1.00  0.00     0.107 C 
HETATM    2  N2  UNL     1      24.021   3.029  51.283  1.00  0.00    -0.229 NA
HETATM    3  C4  UNL     1      23.469   4.332  50.828  1.00  0.00     0.230 C 
HETATM    4  N3  UNL     1      23.168   5.349  50.159  1.00  0.00    -0.264 NA
HETATM    5  C5  UNL     1      22.241   6.267  50.973  1.00  0.00     0.267 C 
HETATM    6  N4  UNL     1      20.987   5.411  50.669  1.00  0.00    -0.398 N 
HETATM    7  C6  UNL     1      20.925   4.124  50.999  1.00  0.00     0.019 A 
HETATM    8  C7  UNL     1      20.593   3.525  52.282  1.00  0.00     0.092 A 
HETATM    9  C8  UNL     1      21.645   2.407  52.426  1.00  0.00     0.071 A 
HETATM   10  C9  UNL     1      20.776   1.126  51.736  1.00  0.00     0.006 A 
HETATM   11  C10 UNL     1      21.168   0.359  50.687  1.00  0.00    -0.015 A 
HETATM   12  C11 UNL     1      21.522   0.919  49.478  1.00  0.00    -0.006 A 
HETATM   13  C12 UNL     1      21.337   2.212  49.841  1.00  0.00    -0.015 A 
HETATM   14  C13 UNL     1      20.864   2.540  51.277  1.00  0.00     0.007 A 
HETATM   15  C14 UNL     1      20.449   1.862  52.599  1.00  0.00     0.027 A 
HETATM   16  H9  UNL     1      20.170   4.792  50.484  1.00  0.00     0.178 HD
ENDROOT
BRANCH   1  17
HETATM   17  N1  UNL     1      23.674   1.212  52.275  1.00  0.00    -0.369 N 
HETATM   18  H5  UNL     1      24.020   0.532  51.507  1.00  0.00     0.161 HD
BRANCH  17  19
HETATM   19  C2  UNL     1      24.047   0.652  53.549  1.00  0.00     0.112 C 
HETATM   20  C1  UNL     1      23.296  -0.684  53.675  1.00  0.00     0.037 C 
BRANCH  19  21
HETATM   21  C15 UNL     1      25.489   0.298  53.645  1.00  0.00    -0.036 A 
HETATM   22  C16 UNL     1      26.399   0.613  54.656  1.00  0.00     0.012 A 
HETATM   23  C17 UNL     1      27.692   0.135  54.472  1.00  0.00     0.043 A 
HETATM   24  C18 UNL     1      28.083  -0.613  53.360  1.00  0.00     0.116 A 
HETATM   25  F1  UNL     1      29.435  -0.985  53.357  1.00  0.00    -0.206 F 
HETATM   26  C19 UNL     1      27.159  -0.907  52.382  1.00  0.00     0.043 A 
HETATM   27  C20 UNL     1      25.845  -0.446  52.525  1.00  0.00     0.012 A 
ENDBRANCH  19  21
ENDBRANCH  17  19
ENDBRANCH   1  17
TORSDOF 4
ENDMDL
MODEL 5
REMARK VINA RESULT:      -8.3      7.832     10.081
REMARK  4 active torsions:
REMARK  status: ('A' for Active; 'I' for Inactive)
REMARK    1  A    between atoms: C2_2  and  N1_3 
REMARK    2  A    between atoms: C2_2  and  C15_19 
REMARK    3  A    between atoms: N1_3  and  C3_4 
REMARK    4  A    between atoms: C13_17  and  C14_18 
ROOT
HETATM    1  C3  UNL     1      31.366   8.034  46.949  1.00  0.00     0.107 C 
HETATM    2  N2  UNL     1      30.948   8.974  46.073  1.00  0.00    -0.229 NA
HETATM    3  C4  UNL     1      30.640  10.157  46.920  1.00  0.00     0.230 C 
HETATM    4  N3  UNL     1      30.106  11.167  47.436  1.00  0.00    -0.264 NA
HETATM    5  C5  UNL     1      30.943  11.664  48.626  1.00  0.00     0.267 C 
HETATM    6  N4  UNL     1      30.374  10.587  49.583  1.00  0.00    -0.398 N 
HETATM    7  C6  UNL     1      30.495   9.289  49.322  1.00  0.00     0.019 A 
HETATM    8  C7  UNL     1      31.626   8.408  49.567  1.00  0.00     0.092 A 
HETATM    9  C8  UNL     1      31.711   7.583  48.268  1.00  0.00     0.071 A 
HETATM   10  C9  UNL     1      30.741   6.268  48.716  1.00  0.00     0.006 A 
HETATM   11  C10 UNL     1      29.637   5.822  48.065  1.00  0.00    -0.015 A 
HETATM   12  C11 UNL     1      28.574   6.658  47.794  1.00  0.00    -0.006 A 
HETATM   13  C12 UNL     1      29.109   7.778  48.339  1.00  0.00    -0.015 A 
HETATM   14  C13 UNL     1      30.517   7.717  48.978  1.00  0.00     0.007 A 
HETATM   15  C14 UNL     1      31.666   6.733  49.285  1.00  0.00     0.027 A 
HETATM   16  H9  UNL     1      30.008   9.826  50.192  1.00  0.00     0.178 HD
ENDROOT
BRANCH   1  17
HETATM   17  N1  UNL     1      31.604   6.982  45.988  1.00  0.00    -0.369 N 
HETATM   18  H5  UNL     1      30.780   6.532  45.451  1.00  0.00     0.161 HD
BRANCH  17  19
HETATM   19  C2  UNL     1      32.815   6.348  45.533  1.00  0.00     0.112 C 
HETATM   20  C1  UNL     1      33.938   7.387  45.688  1.00  0.00     0.037 C 
BRANCH  19  21
HETATM   21  C15 UNL     1      33.234   5.192  46.373  1.00  0.00    -0.036 A 
HETATM   22  C16 UNL     1      34.343   5.083  47.214  1.00  0.00     0.012 A 
HETATM   23  C17 UNL     1      34.472   3.871  47.883  1.00  0.00     0.043 A 
HETATM   24  C18 UNL     1      33.570   2.815  47.740  1.00  0.00     0.116 A 
HETATM   25  F1  UNL     1      33.890   1.673  48.488  1.00  0.00    -0.206 F 
HETATM   26  C19 UNL     1      32.487   2.957  46.902  1.00  0.00     0.043 A 
HETATM   27  C20 UNL     1      32.316   4.161  46.209  1.00  0.00     0.012 A 
ENDBRANCH  19  21
ENDBRANCH  17  19
ENDBRANCH   1  17
TORSDOF 4
ENDMDL
MODEL 6
REMARK VINA RESULT:      -8.1      3.667      6.786
REMARK  4 active torsions:
REMARK  status: ('A' for Active; 'I' for Inactive)
REMARK    1  A    between atoms: C2_2  and  N1_3 
REMARK    2  A    between atoms: C2_2  and  C15_19 
REMARK    3  A    between atoms: N1_3  and  C3_4 
REMARK    4  A    between atoms: C13_17  and  C14_18 
ROOT
HETATM    1  C3  UNL     1      22.079   1.802  51.200  1.00  0.00     0.107 C 
HETATM    2  N2  UNL     1      21.414   1.855  52.375  1.00  0.00    -0.229 NA
HETATM    3  C4  UNL     1      20.231   2.709  52.093  1.00  0.00     0.230 C 
HETATM    4  N3  UNL     1      19.318   3.566  52.152  1.00  0.00    -0.264 NA
HETATM    5  C5  UNL     1      18.456   3.517  50.880  1.00  0.00     0.267 C 
HETATM    6  N4  UNL     1      19.483   4.329  50.053  1.00  0.00    -0.398 N 
HETATM    7  C6  UNL     1      20.735   3.912  49.892  1.00  0.00     0.019 A 
HETATM    8  C7  UNL     1      21.261   2.944  48.943  1.00  0.00     0.092 A 
HETATM    9  C8  UNL     1      22.226   2.104  49.803  1.00  0.00     0.071 A 
HETATM   10  C9  UNL     1      23.656   2.970  49.532  1.00  0.00     0.006 A 
HETATM   11  C10 UNL     1      24.455   3.525  50.481  1.00  0.00    -0.015 A 
HETATM   12  C11 UNL     1      23.958   4.415  51.409  1.00  0.00    -0.006 A 
HETATM   13  C12 UNL     1      22.672   4.389  50.982  1.00  0.00    -0.015 A 
HETATM   14  C13 UNL     1      22.286   3.498  49.778  1.00  0.00     0.007 A 
HETATM   15  C14 UNL     1      22.897   2.531  48.742  1.00  0.00     0.027 A 
HETATM   16  H9  UNL     1      20.210   4.839  49.509  1.00  0.00     0.178 HD
ENDROOT
BRANCH   1  17
HETATM   17  N1  UNL     1      23.171   0.969  51.643  1.00  0.00    -0.369 N 
HETATM   18  H5  UNL     1      23.749   0.395  50.931  1.00  0.00     0.161 HD
BRANCH  17  19
HETATM   19  C2  UNL     1      23.726   0.720  52.949  1.00  0.00     0.112 C 
HETATM   20  C1  UNL     1      23.287  -0.699  53.347  1.00  0.00     0.037 C 
BRANCH  19  21
HETATM   21  C15 UNL     1      25.214   0.687  52.970  1.00  0.00    -0.036 A 
HETATM   22  C16 UNL     1      26.069  -0.332  52.550  1.00  0.00     0.012 A 
HETATM   23  C17 UNL     1      27.428  -0.071  52.687  1.00  0.00     0.043 A 
HETATM   24  C18 UNL     1      27.932   1.122  53.207  1.00  0.00     0.116 A 
HETATM   25  F1  UNL     1      29.331   1.181  53.276  1.00  0.00    -0.206 F 
HETATM   26  C19 UNL     1      27.059   2.108  53.610  1.00  0.00     0.043 A 
HETATM   27  C20 UNL     1      25.682   1.889  53.491  1.00  0.00     0.012 A 
ENDBRANCH  19  21
ENDBRANCH  17  19
ENDBRANCH   1  17
TORSDOF 4
ENDMDL
MODEL 7
REMARK VINA RESULT:      -8.1      4.050      6.792
REMARK  4 active torsions:
REMARK  status: ('A' for Active; 'I' for Inactive)
REMARK    1  A    between atoms: C2_2  and  N1_3 
REMARK    2  A    between atoms: C2_2  and  C15_19 
REMARK    3  A    between atoms: N1_3  and  C3_4 
REMARK    4  A    between atoms: C13_17  and  C14_18 
ROOT
HETATM    1  C3  UNL     1      22.070   3.401  50.589  1.00  0.00     0.107 C 
HETATM    2  N2  UNL     1      21.020   4.055  51.134  1.00  0.00    -0.229 NA
HETATM    3  C4  UNL     1      21.356   5.494  50.973  1.00  0.00     0.230 C 
HETATM    4  N3  UNL     1      21.529   6.722  51.156  1.00  0.00    -0.264 NA
HETATM    5  C5  UNL     1      22.163   7.363  49.911  1.00  0.00     0.267 C 
HETATM    6  N4  UNL     1      23.584   6.873  50.279  1.00  0.00    -0.398 N 
HETATM    7  C6  UNL     1      23.857   5.581  50.439  1.00  0.00     0.019 A 
HETATM    8  C7  UNL     1      24.151   4.578  49.428  1.00  0.00     0.092 A 
HETATM    9  C8  UNL     1      23.327   3.362  49.895  1.00  0.00     0.071 A 
HETATM   10  C9  UNL     1      24.499   2.585  50.840  1.00  0.00     0.006 A 
HETATM   11  C10 UNL     1      24.384   2.245  52.150  1.00  0.00    -0.015 A 
HETATM   12  C11 UNL     1      24.067   3.182  53.111  1.00  0.00    -0.006 A 
HETATM   13  C12 UNL     1      23.955   4.240  52.272  1.00  0.00    -0.015 A 
HETATM   14  C13 UNL     1      24.192   4.040  50.756  1.00  0.00     0.007 A 
HETATM   15  C14 UNL     1      24.579   2.960  49.724  1.00  0.00     0.027 A 
HETATM   16  H9  UNL     1      24.522   6.494  50.529  1.00  0.00     0.178 HD
ENDROOT
BRANCH   1  17
HETATM   17  N1  UNL     1      21.598   2.059  50.834  1.00  0.00    -0.369 N 
HETATM   18  H5  UNL     1      22.064   1.215  50.342  1.00  0.00     0.161 HD
BRANCH  17  19
HETATM   19  C2  UNL     1      20.552   1.544  51.679  1.00  0.00     0.112 C 
HETATM   20  C1  UNL     1      19.698   0.614  50.801  1.00  0.00     0.037 C 
BRANCH  19  21
HETATM   21  C15 UNL     1      21.050   0.683  52.787  1.00  0.00    -0.036 A 
HETATM   22  C16 UNL     1      20.650   0.666  54.124  1.00  0.00     0.012 A 
HETATM   23  C17 UNL     1      21.298  -0.262  54.933  1.00  0.00     0.043 A 
HETATM   24  C18 UNL     1      22.286  -1.130  54.465  1.00  0.00     0.116 A 
HETATM   25  F1  UNL     1      22.826  -1.977  55.445  1.00  0.00    -0.206 F 
HETATM   26  C19 UNL     1      22.655  -1.087  53.139  1.00  0.00     0.043 A 
HETATM   27  C20 UNL     1      22.030  -0.168  52.288  1.00  0.00     0.012 A 
ENDBRANCH  19  21
ENDBRANCH  17  19
ENDBRANCH   1  17
TORSDOF 4
ENDMDL
MODEL 8
REMARK VINA RESULT:      -7.9      3.001      6.143
REMARK  4 active torsions:
REMARK  status: ('A' for Active; 'I' for Inactive)
REMARK    1  A    between atoms: C2_2  and  N1_3 
REMARK    2  A    between atoms: C2_2  and  C15_19 
REMARK    3  A    between atoms: N1_3  and  C3_4 
REMARK    4  A    between atoms: C13_17  and  C14_18 
ROOT
HETATM    1  C3  UNL     1      24.974   3.208  50.756  1.00  0.00     0.107 C 
HETATM    2  N2  UNL     1      26.125   3.128  50.053  1.00  0.00    -0.229 NA
HETATM    3  C4  UNL     1      26.324   4.498  49.511  1.00  0.00     0.230 C 
HETATM    4  N3  UNL     1      26.569   5.482  48.774  1.00  0.00    -0.264 NA
HETATM    5  C5  UNL     1      26.322   6.794  49.536  1.00  0.00     0.267 C 
HETATM    6  N4  UNL     1      24.790   6.725  49.327  1.00  0.00    -0.398 N 
HETATM    7  C6  UNL     1      24.074   5.690  49.757  1.00  0.00     0.019 A 
HETATM    8  C7  UNL     1      23.553   5.429  51.090  1.00  0.00     0.092 A 
HETATM    9  C8  UNL     1      23.856   3.932  51.294  1.00  0.00     0.071 A 
HETATM   10  C9  UNL     1      22.400   3.279  50.725  1.00  0.00     0.006 A 
HETATM   11  C10 UNL     1      22.260   2.367  49.729  1.00  0.00    -0.015 A 
HETATM   12  C11 UNL     1      22.783   2.587  48.472  1.00  0.00    -0.006 A 
HETATM   13  C12 UNL     1      23.336   3.796  48.740  1.00  0.00    -0.015 A 
HETATM   14  C13 UNL     1      23.197   4.401  50.156  1.00  0.00     0.007 A 
HETATM   15  C14 UNL     1      22.566   4.120  51.536  1.00  0.00     0.027 A 
HETATM   16  H9  UNL     1      23.759   6.630  49.210  1.00  0.00     0.178 HD
ENDROOT
BRANCH   1  17
HETATM   17  N1  UNL     1      24.927   1.832  51.189  1.00  0.00    -0.369 N 
HETATM   18  H5  UNL     1      24.635   1.049  50.500  1.00  0.00     0.161 HD
BRANCH  17  19
HETATM   19  C2  UNL     1      25.224   1.207  52.452  1.00  0.00     0.112 C 
HETATM   20  C1  UNL     1      25.468   2.346  53.456  1.00  0.00     0.037 C 
BRANCH  19  21
HETATM   21  C15 UNL     1      24.086   0.429  53.015  1.00  0.00    -0.036 A 
HETATM   22  C16 UNL     1      22.765   0.369  52.568  1.00  0.00     0.012 A 
HETATM   23  C17 UNL     1      21.921  -0.459  53.300  1.00  0.00     0.043 A 
HETATM   24  C18 UNL     1      22.338  -1.192  54.412  1.00  0.00     0.116 A 
HETATM   25  F1  UNL     1      21.328  -1.952  55.019  1.00  0.00    -0.206 F 
HETATM   26  C19 UNL     1      23.649  -1.110  54.824  1.00  0.00     0.043 A 
HETATM   27  C20 UNL     1      24.536  -0.289  54.118  1.00  0.00     0.012 A 
ENDBRANCH  19  21
ENDBRANCH  17  19
ENDBRANCH   1  17
TORSDOF 4
ENDMDL
MODEL 9
REMARK VINA RESULT:      -7.6      3.704      6.693
REMARK  4 active torsions:
REMARK  status: ('A' for Active; 'I' for Inactive)
REMARK    1  A    between atoms: C2_2  and  N1_3 
REMARK    2  A    between atoms: C2_2  and  C15_19 
REMARK    3  A    between atoms: N1_3  and  C3_4 
REMARK    4  A    between atoms: C13_17  and  C14_18 
ROOT
HETATM    1  C3  UNL     1      22.398   2.908  50.632  1.00  0.00     0.107 C 
HETATM    2  N2  UNL     1      21.979   3.488  51.777  1.00  0.00    -0.229 NA
HETATM    3  C4  UNL     1      20.541   3.123  51.872  1.00  0.00     0.230 C 
HETATM    4  N3  UNL     1      19.298   3.140  52.037  1.00  0.00    -0.264 NA
HETATM    5  C5  UNL     1      18.697   1.764  51.706  1.00  0.00     0.267 C 
HETATM    6  N4  UNL     1      18.730   2.023  50.180  1.00  0.00    -0.398 N 
HETATM    7  C6  UNL     1      19.865   2.301  49.545  1.00  0.00     0.019 A 
HETATM    8  C7  UNL     1      20.887   1.388  49.059  1.00  0.00     0.092 A 
HETATM    9  C8  UNL     1      22.199   2.085  49.471  1.00  0.00     0.071 A 
HETATM   10  C9  UNL     1      22.490   2.975  48.059  1.00  0.00     0.006 A 
HETATM   11  C10 UNL     1      22.656   4.320  47.973  1.00  0.00    -0.015 A 
HETATM   12  C11 UNL     1      21.710   5.195  48.465  1.00  0.00    -0.006 A 
HETATM   13  C12 UNL     1      20.852   4.255  48.933  1.00  0.00    -0.015 A 
HETATM   14  C13 UNL     1      21.198   2.756  48.767  1.00  0.00     0.007 A 
HETATM   15  C14 UNL     1      22.272   1.820  48.174  1.00  0.00     0.027 A 
HETATM   16  H9  UNL     1      18.805   2.207  49.158  1.00  0.00     0.178 HD
ENDROOT
BRANCH   1  17
HETATM   17  N1  UNL     1      23.768   3.360  50.688  1.00  0.00    -0.369 N 
HETATM   18  H5  UNL     1      23.995   4.401  50.877  1.00  0.00     0.161 HD
BRANCH  17  19
HETATM   19  C2  UNL     1      25.021   2.663  50.548  1.00  0.00     0.112 C 
HETATM   20  C1  UNL     1      26.053   3.707  50.090  1.00  0.00     0.037 C 
BRANCH  19  21
HETATM   21  C15 UNL     1      25.552   2.127  51.831  1.00  0.00    -0.036 A 
HETATM   22  C16 UNL     1      25.190   2.470  53.135  1.00  0.00     0.012 A 
HETATM   23  C17 UNL     1      25.863   1.788  54.144  1.00  0.00     0.043 A 
HETATM   24  C18 UNL     1      26.839   0.821  53.898  1.00  0.00     0.116 A 
HETATM   25  F1  UNL     1      27.409   0.264  55.052  1.00  0.00    -0.206 F 
HETATM   26  C19 UNL     1      27.171   0.507  52.599  1.00  0.00     0.043 A 
HETATM   27  C20 UNL     1      26.520   1.168  51.551  1.00  0.00     0.012 A 
ENDBRANCH  19  21
ENDBRANCH  17  19
ENDBRANCH   1  17
TORSDOF 4
ENDMDL
