MODEL 1
REMARK VINA RESULT:      -8.5      0.000      0.000
REMARK  7 active torsions:
REMARK  status: ('A' for Active; 'I' for Inactive)
REMARK    1  A    between atoms: C4_5  and  N1_6 
REMARK    2  A    between atoms: N1_6  and  C5_7 
REMARK    3  A    between atoms: C11_15  and  N4_16 
REMARK    4  A    between atoms: N4_16  and  C12_17 
REMARK    5  A    between atoms: C12_17  and  C13_18 
REMARK    6  A    between atoms: C13_18  and  N5_19 
REMARK    7  A    between atoms: C18_25  and  S1_26 
ROOT
HETATM    1  C5  UNL     1      26.357   2.606  51.645  1.00  0.00     0.130 C 
HETATM    2  N2  UNL     1      26.900   2.501  50.448  1.00  0.00    -0.271 NA
HETATM    3  C6  UNL     1      26.484   3.605  49.526  1.00  0.00     0.165 C 
HETATM    4  C7  UNL     1      24.993   3.855  49.723  1.00  0.00     0.072 C 
HETATM    5  C8  UNL     1      24.369   2.626  50.301  1.00  0.00    -0.002 C 
HETATM    6  C9  UNL     1      24.868   2.689  51.552  1.00  0.00     0.002 C 
HETATM    7  C10 UNL     1      24.181   2.943  52.850  1.00  0.00     0.163 C 
HETATM    8  N3  UNL     1      23.831   4.410  52.788  1.00  0.00    -0.371 N 
HETATM    9  C11 UNL     1      23.895   5.237  51.596  1.00  0.00     0.110 C 
HETATM   10  C18 UNL     1      24.643   5.049  50.489  1.00  0.00     0.028 C 
HETATM   11  H10 UNL     1      23.511   4.914  53.637  1.00  0.00     0.161 HD
ENDROOT
BRANCH   1  12
HETATM   12  N1  UNL     1      26.961   2.595  52.966  1.00  0.00    -0.341 N 
HETATM   13  H3  UNL     1      26.810   3.400  53.607  1.00  0.00     0.167 HD
BRANCH  12  14
HETATM   14  C4  UNL     1      27.712   1.367  53.151  1.00  0.00     0.035 A 
HETATM   15  C3  UNL     1      28.985   1.334  53.660  1.00  0.00     0.032 A 
HETATM   16  C2  UNL     1      29.606   0.116  53.768  1.00  0.00     0.046 A 
HETATM   17  C1  UNL     1      29.024  -1.089  53.391  1.00  0.00     0.138 A 
HETATM   18  F1  UNL     1      29.599  -2.311  53.472  1.00  0.00    -0.204 F 
HETATM   19  C20 UNL     1      27.749  -1.081  52.879  1.00  0.00     0.074 A 
HETATM   20  C19 UNL     1      27.138   0.146  52.778  1.00  0.00     0.056 A 
HETATM   21 CL1  UNL     1      26.843  -2.495  52.343  1.00  0.00    -0.081 Cl
ENDBRANCH  12  14
ENDBRANCH   1  12
BRANCH  10  22
HETATM   22  S1  UNL     1      25.343   6.578  49.811  1.00  0.00    -0.143 SA
HETATM   23  H24 UNL     1      25.411   7.572  50.835  1.00  0.00     0.107 HD
ENDBRANCH  10  22
BRANCH   9  24
HETATM   24  N4  UNL     1      23.064   6.419  51.536  1.00  0.00    -0.374 N 
HETATM   25  H11 UNL     1      23.190   7.474  51.510  1.00  0.00     0.161 HD
BRANCH  24  26
HETATM   26  C12 UNL     1      21.694   5.921  51.501  1.00  0.00     0.140 C 
BRANCH  26  27
HETATM   27  C13 UNL     1      21.160   5.655  50.129  1.00  0.00     0.136 C 
BRANCH  27  28
HETATM   28  N5  UNL     1      20.443   4.407  50.213  1.00  0.00    -0.407 N 
HETATM   29  C14 UNL     1      20.615   3.721  51.445  1.00  0.00     0.143 C 
HETATM   30  C15 UNL     1      19.415   2.895  51.837  1.00  0.00     0.187 C 
HETATM   31  O1  UNL     1      18.335   3.737  51.871  1.00  0.00    -0.388 OA
HETATM   32  C16 UNL     1      18.019   4.342  50.683  1.00  0.00     0.187 C 
HETATM   33  C17 UNL     1      19.130   4.394  49.679  1.00  0.00     0.143 C 
ENDBRANCH  27  28
ENDBRANCH  26  27
ENDBRANCH  24  26
ENDBRANCH   9  24
TORSDOF 7
ENDMDL
MODEL 2
REMARK VINA RESULT:      -8.2      1.535      1.959
REMARK  7 active torsions:
REMARK  status: ('A' for Active; 'I' for Inactive)
REMARK    1  A    between atoms: C4_5  and  N1_6 
REMARK    2  A    between atoms: N1_6  and  C5_7 
REMARK    3  A    between atoms: C11_15  and  N4_16 
REMARK    4  A    between atoms: N4_16  and  C12_17 
REMARK    5  A    between atoms: C12_17  and  C13_18 
REMARK    6  A    between atoms: C13_18  and  N5_19 
REMARK    7  A    between atoms: C18_25  and  S1_26 
ROOT
HETATM    1  C5  UNL     1      26.076   3.182  51.087  1.00  0.00     0.130 C 
HETATM    2  N2  UNL     1      26.727   3.093  49.943  1.00  0.00    -0.271 NA
HETATM    3  C6  UNL     1      26.714   4.375  49.171  1.00  0.00     0.165 C 
HETATM    4  C7  UNL     1      25.316   4.977  49.266  1.00  0.00     0.072 C 
HETATM    5  C8  UNL     1      24.343   3.888  49.586  1.00  0.00    -0.002 C 
HETATM    6  C9  UNL     1      24.677   3.660  50.872  1.00  0.00     0.002 C 
HETATM    7  C10 UNL     1      23.911   3.916  52.125  1.00  0.00     0.163 C 
HETATM    8  N3  UNL     1      23.940   5.419  52.260  1.00  0.00    -0.371 N 
HETATM    9  C11 UNL     1      24.356   6.346  51.222  1.00  0.00     0.110 C 
HETATM   10  C18 UNL     1      25.172   6.113  50.173  1.00  0.00     0.028 C 
HETATM   11  H10 UNL     1      23.646   5.877  53.143  1.00  0.00     0.161 HD
ENDROOT
BRANCH   1  12
HETATM   12  N1  UNL     1      26.485   2.846  52.440  1.00  0.00    -0.341 N 
HETATM   13  H3  UNL     1      26.544   3.596  53.159  1.00  0.00     0.167 HD
BRANCH  12  14
HETATM   14  C4  UNL     1      26.746   1.422  52.534  1.00  0.00     0.035 A 
HETATM   15  C3  UNL     1      25.803   0.466  52.254  1.00  0.00     0.032 A 
HETATM   16  C2  UNL     1      26.156  -0.852  52.401  1.00  0.00     0.046 A 
HETATM   17  C1  UNL     1      27.412  -1.277  52.817  1.00  0.00     0.138 A 
HETATM   18  F1  UNL     1      27.803  -2.561  52.983  1.00  0.00    -0.204 F 
HETATM   19  C20 UNL     1      28.373  -0.337  53.103  1.00  0.00     0.074 A 
HETATM   20  C19 UNL     1      28.006   0.979  52.950  1.00  0.00     0.056 A 
HETATM   21 CL1  UNL     1      30.016  -0.673  53.646  1.00  0.00    -0.081 Cl
ENDBRANCH  12  14
ENDBRANCH   1  12
BRANCH  10  22
HETATM   22  S1  UNL     1      26.304   7.481  49.808  1.00  0.00    -0.143 SA
HETATM   23  H24 UNL     1      25.561   8.611  49.347  1.00  0.00     0.107 HD
ENDBRANCH  10  22
BRANCH   9  24
HETATM   24  N4  UNL     1      23.853   7.701  51.270  1.00  0.00    -0.374 N 
HETATM   25  H11 UNL     1      24.059   8.603  51.794  1.00  0.00     0.161 HD
BRANCH  24  26
HETATM   26  C12 UNL     1      22.769   7.740  50.296  1.00  0.00     0.140 C 
BRANCH  26  27
HETATM   27  C13 UNL     1      21.448   7.259  50.811  1.00  0.00     0.136 C 
BRANCH  27  28
HETATM   28  N5  UNL     1      21.087   6.129  49.993  1.00  0.00    -0.407 N 
HETATM   29  C14 UNL     1      20.615   5.008  50.727  1.00  0.00     0.143 C 
HETATM   30  C15 UNL     1      19.611   4.178  49.964  1.00  0.00     0.187 C 
HETATM   31  O1  UNL     1      18.589   5.013  49.597  1.00  0.00    -0.388 OA
HETATM   32  C16 UNL     1      18.939   6.051  48.775  1.00  0.00     0.187 C 
HETATM   33  C17 UNL     1      20.393   6.412  48.790  1.00  0.00     0.143 C 
ENDBRANCH  27  28
ENDBRANCH  26  27
ENDBRANCH  24  26
ENDBRANCH   9  24
TORSDOF 7
ENDMDL
MODEL 3
REMARK VINA RESULT:      -7.8      2.207      2.754
REMARK  7 active torsions:
REMARK  status: ('A' for Active; 'I' for Inactive)
REMARK    1  A    between atoms: C4_5  and  N1_6 
REMARK    2  A    between atoms: N1_6  and  C5_7 
REMARK    3  A    between atoms: C11_15  and  N4_16 
REMARK    4  A    between atoms: N4_16  and  C12_17 
REMARK    5  A    between atoms: C12_17  and  C13_18 
REMARK    6  A    between atoms: C13_18  and  N5_19 
REMARK    7  A    between atoms: C18_25  and  S1_26 
ROOT
HETATM    1  C5  UNL     1      25.657   2.926  51.626  1.00  0.00     0.130 C 
HETATM    2  N2  UNL     1      26.396   2.752  50.548  1.00  0.00    -0.271 NA
HETATM    3  C6  UNL     1      26.409   3.956  49.657  1.00  0.00     0.165 C 
HETATM    4  C7  UNL     1      24.993   4.517  49.591  1.00  0.00     0.072 C 
HETATM    5  C8  UNL     1      24.027   3.430  49.939  1.00  0.00    -0.002 C 
HETATM    6  C9  UNL     1      24.266   3.334  51.262  1.00  0.00     0.002 C 
HETATM    7  C10 UNL     1      23.400   3.680  52.425  1.00  0.00     0.163 C 
HETATM    8  N3  UNL     1      23.378   5.189  52.418  1.00  0.00    -0.371 N 
HETATM    9  C11 UNL     1      23.848   6.029  51.331  1.00  0.00     0.110 C 
HETATM   10  C18 UNL     1      24.749   5.727  50.372  1.00  0.00     0.028 C 
HETATM   11  H10 UNL     1      23.004   5.717  53.229  1.00  0.00     0.161 HD
ENDROOT
BRANCH   1  12
HETATM   12  N1  UNL     1      25.968   2.731  53.031  1.00  0.00    -0.341 N 
HETATM   13  H3  UNL     1      25.464   3.288  53.751  1.00  0.00     0.167 HD
BRANCH  12  14
HETATM   14  C4  UNL     1      26.996   1.716  53.169  1.00  0.00     0.035 A 
HETATM   15  C3  UNL     1      28.280   1.997  53.562  1.00  0.00     0.032 A 
HETATM   16  C2  UNL     1      29.175   0.959  53.635  1.00  0.00     0.046 A 
HETATM   17  C1  UNL     1      28.859  -0.361  53.333  1.00  0.00     0.138 A 
HETATM   18  F1  UNL     1      29.707  -1.413  53.383  1.00  0.00    -0.204 F 
HETATM   19  C20 UNL     1      27.579  -0.666  52.938  1.00  0.00     0.074 A 
HETATM   20  C19 UNL     1      26.693   0.383  52.871  1.00  0.00     0.056 A 
HETATM   21 CL1  UNL     1      26.986  -2.269  52.510  1.00  0.00    -0.081 Cl
ENDBRANCH  12  14
ENDBRANCH   1  12
BRANCH  10  22
HETATM   22  S1  UNL     1      25.870   7.092  49.964  1.00  0.00    -0.143 SA
HETATM   23  H24 UNL     1      25.450   8.278  50.643  1.00  0.00     0.107 HD
ENDBRANCH  10  22
BRANCH   9  24
HETATM   24  N4  UNL     1      23.307   7.365  51.212  1.00  0.00    -0.374 N 
HETATM   25  H11 UNL     1      23.594   8.359  51.455  1.00  0.00     0.161 HD
BRANCH  24  26
HETATM   26  C12 UNL     1      22.011   7.195  50.566  1.00  0.00     0.140 C 
BRANCH  26  27
HETATM   27  C13 UNL     1      21.812   8.024  49.336  1.00  0.00     0.136 C 
BRANCH  27  28
HETATM   28  N5  UNL     1      21.149   7.172  48.382  1.00  0.00    -0.407 N 
HETATM   29  C14 UNL     1      20.890   7.794  47.131  1.00  0.00     0.143 C 
HETATM   30  C15 UNL     1      20.899   6.825  45.972  1.00  0.00     0.187 C 
HETATM   31  O1  UNL     1      22.113   6.190  45.983  1.00  0.00    -0.388 OA
HETATM   32  C16 UNL     1      22.387   5.456  47.107  1.00  0.00     0.187 C 
HETATM   33  C17 UNL     1      21.589   5.826  48.320  1.00  0.00     0.143 C 
ENDBRANCH  27  28
ENDBRANCH  26  27
ENDBRANCH  24  26
ENDBRANCH   9  24
TORSDOF 7
ENDMDL
MODEL 4
REMARK VINA RESULT:      -7.7      2.402      2.997
REMARK  7 active torsions:
REMARK  status: ('A' for Active; 'I' for Inactive)
REMARK    1  A    between atoms: C4_5  and  N1_6 
REMARK    2  A    between atoms: N1_6  and  C5_7 
REMARK    3  A    between atoms: C11_15  and  N4_16 
REMARK    4  A    between atoms: N4_16  and  C12_17 
REMARK    5  A    between atoms: C12_17  and  C13_18 
REMARK    6  A    between atoms: C13_18  and  N5_19 
REMARK    7  A    between atoms: C18_25  and  S1_26 
ROOT
HETATM    1  C5  UNL     1      25.934   3.010  51.233  1.00  0.00     0.130 C 
HETATM    2  N2  UNL     1      26.724   3.034  50.178  1.00  0.00    -0.271 NA
HETATM    3  C6  UNL     1      26.670   4.339  49.446  1.00  0.00     0.165 C 
HETATM    4  C7  UNL     1      25.216   4.792  49.383  1.00  0.00     0.072 C 
HETATM    5  C8  UNL     1      24.331   3.598  49.547  1.00  0.00    -0.002 C 
HETATM    6  C9  UNL     1      24.529   3.352  50.858  1.00  0.00     0.002 C 
HETATM    7  C10 UNL     1      23.594   3.478  52.012  1.00  0.00     0.163 C 
HETATM    8  N3  UNL     1      23.447   4.970  52.192  1.00  0.00    -0.371 N 
HETATM    9  C11 UNL     1      23.886   5.976  51.241  1.00  0.00     0.110 C 
HETATM   10  C18 UNL     1      24.844   5.869  50.295  1.00  0.00     0.028 C 
HETATM   11  H10 UNL     1      23.001   5.359  53.044  1.00  0.00     0.161 HD
ENDROOT
BRANCH   1  12
HETATM   12  N1  UNL     1      26.208   2.663  52.617  1.00  0.00    -0.341 N 
HETATM   13  H3  UNL     1      26.103   3.385  53.358  1.00  0.00     0.167 HD
BRANCH  12  14
HETATM   14  C4  UNL     1      26.600   1.268  52.703  1.00  0.00     0.035 A 
HETATM   15  C3  UNL     1      25.728   0.230  52.499  1.00  0.00     0.032 A 
HETATM   16  C2  UNL     1      26.206  -1.050  52.630  1.00  0.00     0.046 A 
HETATM   17  C1  UNL     1      27.521  -1.358  52.960  1.00  0.00     0.138 A 
HETATM   18  F1  UNL     1      28.034  -2.600  53.108  1.00  0.00    -0.204 F 
HETATM   19  C20 UNL     1      28.412  -0.333  53.170  1.00  0.00     0.074 A 
HETATM   20  C19 UNL     1      27.921   0.943  53.033  1.00  0.00     0.056 A 
HETATM   21 CL1  UNL     1      30.112  -0.516  53.598  1.00  0.00    -0.081 Cl
ENDBRANCH  12  14
ENDBRANCH   1  12
BRANCH  10  22
HETATM   22  S1  UNL     1      25.861   7.359  50.114  1.00  0.00    -0.143 SA
HETATM   23  H24 UNL     1      25.876   8.084  51.345  1.00  0.00     0.107 HD
ENDBRANCH  10  22
BRANCH   9  24
HETATM   24  N4  UNL     1      23.240   7.270  51.263  1.00  0.00    -0.374 N 
HETATM   25  H11 UNL     1      23.316   8.182  51.803  1.00  0.00     0.161 HD
BRANCH  24  26
HETATM   26  C12 UNL     1      22.223   7.206  50.221  1.00  0.00     0.140 C 
BRANCH  26  27
HETATM   27  C13 UNL     1      21.829   8.532  49.649  1.00  0.00     0.136 C 
BRANCH  27  28
HETATM   28  N5  UNL     1      20.392   8.594  49.735  1.00  0.00    -0.407 N 
HETATM   29  C14 UNL     1      19.832   9.794  49.220  1.00  0.00     0.143 C 
HETATM   30  C15 UNL     1      18.450   9.604  48.642  1.00  0.00     0.187 C 
HETATM   31  O1  UNL     1      18.541   8.632  47.680  1.00  0.00    -0.388 OA
HETATM   32  C16 UNL     1      18.951   7.402  48.121  1.00  0.00     0.187 C 
HETATM   33  C17 UNL     1      19.687   7.404  49.426  1.00  0.00     0.143 C 
ENDBRANCH  27  28
ENDBRANCH  26  27
ENDBRANCH  24  26
ENDBRANCH   9  24
TORSDOF 7
ENDMDL
MODEL 5
REMARK VINA RESULT:      -7.5      3.791      5.932
REMARK  7 active torsions:
REMARK  status: ('A' for Active; 'I' for Inactive)
REMARK    1  A    between atoms: C4_5  and  N1_6 
REMARK    2  A    between atoms: N1_6  and  C5_7 
REMARK    3  A    between atoms: C11_15  and  N4_16 
REMARK    4  A    between atoms: N4_16  and  C12_17 
REMARK    5  A    between atoms: C12_17  and  C13_18 
REMARK    6  A    between atoms: C13_18  and  N5_19 
REMARK    7  A    between atoms: C18_25  and  S1_26 
ROOT
HETATM    1  C5  UNL     1      21.636   2.846  50.567  1.00  0.00     0.130 C 
HETATM    2  N2  UNL     1      21.999   2.181  49.487  1.00  0.00    -0.271 NA
HETATM    3  C6  UNL     1      23.299   2.663  48.923  1.00  0.00     0.165 C 
HETATM    4  C7  UNL     1      23.310   4.187  48.981  1.00  0.00     0.072 C 
HETATM    5  C8  UNL     1      21.899   4.678  49.039  1.00  0.00    -0.002 C 
HETATM    6  C9  UNL     1      21.588   4.316  50.300  1.00  0.00     0.002 C 
HETATM    7  C10 UNL     1      21.315   5.154  51.502  1.00  0.00     0.163 C 
HETATM    8  N3  UNL     1      22.671   5.706  51.868  1.00  0.00    -0.371 N 
HETATM    9  C11 UNL     1      23.854   5.649  51.028  1.00  0.00     0.110 C 
HETATM   10  C18 UNL     1      24.131   4.778  50.034  1.00  0.00     0.028 C 
HETATM   11  H10 UNL     1      22.823   6.176  52.781  1.00  0.00     0.161 HD
ENDROOT
BRANCH   1  12
HETATM   12  N1  UNL     1      21.243   2.376  51.884  1.00  0.00    -0.341 N 
HETATM   13  H3  UNL     1      20.335   2.682  52.289  1.00  0.00     0.167 HD
BRANCH  12  14
HETATM   14  C4  UNL     1      22.270   1.500  52.418  1.00  0.00     0.035 A 
HETATM   15  C3  UNL     1      22.065   0.167  52.662  1.00  0.00     0.032 A 
HETATM   16  C2  UNL     1      23.103  -0.560  53.190  1.00  0.00     0.046 A 
HETATM   17  C1  UNL     1      24.349  -0.024  53.495  1.00  0.00     0.138 A 
HETATM   18  F1  UNL     1      25.397  -0.697  54.022  1.00  0.00    -0.204 F 
HETATM   19  C20 UNL     1      24.577   1.310  53.258  1.00  0.00     0.074 A 
HETATM   20  C19 UNL     1      23.530   2.025  52.727  1.00  0.00     0.056 A 
HETATM   21 CL1  UNL     1      26.080   2.173  53.578  1.00  0.00    -0.081 Cl
ENDBRANCH  12  14
ENDBRANCH   1  12
BRANCH  10  22
HETATM   22  S1  UNL     1      25.864   4.247  49.989  1.00  0.00    -0.143 SA
HETATM   23  H24 UNL     1      26.344   4.284  48.644  1.00  0.00     0.107 HD
ENDBRANCH  10  22
BRANCH   9  24
HETATM   24  N4  UNL     1      24.893   6.634  51.237  1.00  0.00    -0.374 N 
HETATM   25  H11 UNL     1      25.856   6.684  51.681  1.00  0.00     0.161 HD
BRANCH  24  26
HETATM   26  C12 UNL     1      24.383   7.859  50.634  1.00  0.00     0.140 C 
BRANCH  26  27
HETATM   27  C13 UNL     1      25.101   8.293  49.395  1.00  0.00     0.136 C 
BRANCH  27  28
HETATM   28  N5  UNL     1      26.504   8.085  49.652  1.00  0.00    -0.407 N 
HETATM   29  C14 UNL     1      27.195   7.425  48.600  1.00  0.00     0.143 C 
HETATM   30  C15 UNL     1      28.645   7.829  48.497  1.00  0.00     0.187 C 
HETATM   31  O1  UNL     1      28.679   9.191  48.352  1.00  0.00    -0.388 OA
HETATM   32  C16 UNL     1      28.148   9.910  49.390  1.00  0.00     0.187 C 
HETATM   33  C17 UNL     1      27.201   9.153  50.270  1.00  0.00     0.143 C 
ENDBRANCH  27  28
ENDBRANCH  26  27
ENDBRANCH  24  26
ENDBRANCH   9  24
TORSDOF 7
ENDMDL
MODEL 6
REMARK VINA RESULT:      -7.4      2.262      2.866
REMARK  7 active torsions:
REMARK  status: ('A' for Active; 'I' for Inactive)
REMARK    1  A    between atoms: C4_5  and  N1_6 
REMARK    2  A    between atoms: N1_6  and  C5_7 
REMARK    3  A    between atoms: C11_15  and  N4_16 
REMARK    4  A    between atoms: N4_16  and  C12_17 
REMARK    5  A    between atoms: C12_17  and  C13_18 
REMARK    6  A    between atoms: C13_18  and  N5_19 
REMARK    7  A    between atoms: C18_25  and  S1_26 
ROOT
HETATM    1  C5  UNL     1      25.191   2.851  51.782  1.00  0.00     0.130 C 
HETATM    2  N2  UNL     1      25.814   3.605  50.898  1.00  0.00    -0.271 NA
HETATM    3  C6  UNL     1      24.906   4.601  50.246  1.00  0.00     0.165 C 
HETATM    4  C7  UNL     1      23.583   3.908  49.936  1.00  0.00     0.072 C 
HETATM    5  C8  UNL     1      23.816   2.434  49.860  1.00  0.00    -0.002 C 
HETATM    6  C9  UNL     1      24.010   2.171  51.169  1.00  0.00     0.002 C 
HETATM    7  C10 UNL     1      23.171   1.402  52.131  1.00  0.00     0.163 C 
HETATM    8  N3  UNL     1      21.981   2.301  52.365  1.00  0.00    -0.371 N 
HETATM    9  C11 UNL     1      21.647   3.472  51.574  1.00  0.00     0.110 C 
HETATM   10  C18 UNL     1      22.470   4.235  50.822  1.00  0.00     0.028 C 
HETATM   11  H10 UNL     1      21.317   2.109  53.139  1.00  0.00     0.161 HD
ENDROOT
BRANCH   1  12
HETATM   12  N1  UNL     1      25.505   2.559  53.170  1.00  0.00    -0.341 N 
HETATM   13  H3  UNL     1      24.908   2.954  53.926  1.00  0.00     0.167 HD
BRANCH  12  14
HETATM   14  C4  UNL     1      26.675   1.703  53.238  1.00  0.00     0.035 A 
HETATM   15  C3  UNL     1      27.929   2.169  53.537  1.00  0.00     0.032 A 
HETATM   16  C2  UNL     1      28.966   1.270  53.550  1.00  0.00     0.046 A 
HETATM   17  C1  UNL     1      28.822  -0.085  53.277  1.00  0.00     0.138 A 
HETATM   18  F1  UNL     1      29.813  -1.005  53.270  1.00  0.00    -0.204 F 
HETATM   19  C20 UNL     1      27.575  -0.575  52.975  1.00  0.00     0.074 A 
HETATM   20  C19 UNL     1      26.545   0.336  52.967  1.00  0.00     0.056 A 
HETATM   21 CL1  UNL     1      27.188  -2.253  52.597  1.00  0.00    -0.081 Cl
ENDBRANCH  12  14
ENDBRANCH   1  12
BRANCH  10  22
HETATM   22  S1  UNL     1      22.117   6.010  50.923  1.00  0.00    -0.143 SA
HETATM   23  H24 UNL     1      23.132   6.659  51.692  1.00  0.00     0.107 HD
ENDBRANCH  10  22
BRANCH   9  24
HETATM   24  N4  UNL     1      20.270   3.914  51.549  1.00  0.00    -0.374 N 
HETATM   25  H11 UNL     1      19.706   4.762  51.853  1.00  0.00     0.161 HD
BRANCH  24  26
HETATM   26  C12 UNL     1      19.534   2.829  50.911  1.00  0.00     0.140 C 
BRANCH  26  27
HETATM   27  C13 UNL     1      18.332   2.358  51.669  1.00  0.00     0.136 C 
BRANCH  27  28
HETATM   28  N5  UNL     1      18.375   0.918  51.631  1.00  0.00    -0.407 N 
HETATM   29  C14 UNL     1      19.153   0.333  52.666  1.00  0.00     0.143 C 
HETATM   30  C15 UNL     1      18.655  -1.029  53.086  1.00  0.00     0.187 C 
HETATM   31  O1  UNL     1      17.343  -0.886  53.455  1.00  0.00    -0.388 OA
HETATM   32  C16 UNL     1      16.496  -0.450  52.471  1.00  0.00     0.187 C 
HETATM   33  C17 UNL     1      17.159   0.256  51.327  1.00  0.00     0.143 C 
ENDBRANCH  27  28
ENDBRANCH  26  27
ENDBRANCH  24  26
ENDBRANCH   9  24
TORSDOF 7
ENDMDL
MODEL 7
REMARK VINA RESULT:      -7.3      1.785      2.303
REMARK  7 active torsions:
REMARK  status: ('A' for Active; 'I' for Inactive)
REMARK    1  A    between atoms: C4_5  and  N1_6 
REMARK    2  A    between atoms: N1_6  and  C5_7 
REMARK    3  A    between atoms: C11_15  and  N4_16 
REMARK    4  A    between atoms: N4_16  and  C12_17 
REMARK    5  A    between atoms: C12_17  and  C13_18 
REMARK    6  A    between atoms: C13_18  and  N5_19 
REMARK    7  A    between atoms: C18_25  and  S1_26 
ROOT
HETATM    1  C5  UNL     1      25.150   3.260  51.091  1.00  0.00     0.130 C 
HETATM    2  N2  UNL     1      26.124   3.744  50.345  1.00  0.00    -0.271 NA
HETATM    3  C6  UNL     1      25.748   5.024  49.666  1.00  0.00     0.165 C 
HETATM    4  C7  UNL     1      24.319   4.891  49.151  1.00  0.00     0.072 C 
HETATM    5  C8  UNL     1      23.996   3.439  48.996  1.00  0.00    -0.002 C 
HETATM    6  C9  UNL     1      23.897   3.092  50.295  1.00  0.00     0.002 C 
HETATM    7  C10 UNL     1      22.709   2.675  51.092  1.00  0.00     0.163 C 
HETATM    8  N3  UNL     1      21.919   3.951  51.250  1.00  0.00    -0.371 N 
HETATM    9  C11 UNL     1      22.155   5.180  50.514  1.00  0.00     0.110 C 
HETATM   10  C18 UNL     1      23.296   5.592  49.922  1.00  0.00     0.028 C 
HETATM   11  H10 UNL     1      21.131   4.006  51.924  1.00  0.00     0.161 HD
ENDROOT
BRANCH   1  12
HETATM   12  N1  UNL     1      25.140   2.838  52.481  1.00  0.00    -0.341 N 
HETATM   13  H3  UNL     1      24.497   3.304  53.155  1.00  0.00     0.167 HD
BRANCH  12  14
HETATM   14  C4  UNL     1      26.096   1.764  52.675  1.00  0.00     0.035 A 
HETATM   15  C3  UNL     1      25.917   0.500  52.174  1.00  0.00     0.032 A 
HETATM   16  C2  UNL     1      26.878  -0.442  52.440  1.00  0.00     0.046 A 
HETATM   17  C1  UNL     1      28.023  -0.194  53.189  1.00  0.00     0.138 A 
HETATM   18  F1  UNL     1      28.991  -1.091  53.483  1.00  0.00    -0.204 F 
HETATM   19  C20 UNL     1      28.223   1.065  53.701  1.00  0.00     0.074 A 
HETATM   20  C19 UNL     1      27.254   2.000  53.425  1.00  0.00     0.056 A 
HETATM   21 CL1  UNL     1      29.602   1.576  54.674  1.00  0.00    -0.081 Cl
ENDBRANCH  12  14
ENDBRANCH   1  12
BRANCH  10  22
HETATM   22  S1  UNL     1      23.618   7.366  50.111  1.00  0.00    -0.143 SA
HETATM   23  H24 UNL     1      23.086   8.074  48.989  1.00  0.00     0.107 HD
ENDBRANCH  10  22
BRANCH   9  24
HETATM   24  N4  UNL     1      21.058   6.109  50.359  1.00  0.00    -0.374 N 
HETATM   25  H11 UNL     1      20.656   6.950  50.870  1.00  0.00     0.161 HD
BRANCH  24  26
HETATM   26  C12 UNL     1      20.379   5.698  49.136  1.00  0.00     0.140 C 
BRANCH  26  27
HETATM   27  C13 UNL     1      18.894   5.880  49.154  1.00  0.00     0.136 C 
BRANCH  27  28
HETATM   28  N5  UNL     1      18.331   4.564  49.320  1.00  0.00    -0.407 N 
HETATM   29  C14 UNL     1      19.154   3.514  48.832  1.00  0.00     0.143 C 
HETATM   30  C15 UNL     1      18.982   2.222  49.593  1.00  0.00     0.187 C 
HETATM   31  O1  UNL     1      19.229   2.491  50.914  1.00  0.00    -0.388 OA
HETATM   32  C16 UNL     1      18.390   3.401  51.499  1.00  0.00     0.187 C 
HETATM   33  C17 UNL     1      17.670   4.308  50.548  1.00  0.00     0.143 C 
ENDBRANCH  27  28
ENDBRANCH  26  27
ENDBRANCH  24  26
ENDBRANCH   9  24
TORSDOF 7
ENDMDL
MODEL 8
REMARK VINA RESULT:      -7.3      6.531      8.655
REMARK  7 active torsions:
REMARK  status: ('A' for Active; 'I' for Inactive)
REMARK    1  A    between atoms: C4_5  and  N1_6 
REMARK    2  A    between atoms: N1_6  and  C5_7 
REMARK    3  A    between atoms: C11_15  and  N4_16 
REMARK    4  A    between atoms: N4_16  and  C12_17 
REMARK    5  A    between atoms: C12_17  and  C13_18 
REMARK    6  A    between atoms: C13_18  and  N5_19 
REMARK    7  A    between atoms: C18_25  and  S1_26 
ROOT
HETATM    1  C5  UNL     1      27.284   6.564  48.866  1.00  0.00     0.130 C 
HETATM    2  N2  UNL     1      27.902   5.681  48.106  1.00  0.00    -0.271 NA
HETATM    3  C6  UNL     1      29.358   5.984  47.938  1.00  0.00     0.165 C 
HETATM    4  C7  UNL     1      29.513   7.486  47.729  1.00  0.00     0.072 C 
HETATM    5  C8  UNL     1      28.220   8.039  47.221  1.00  0.00    -0.002 C 
HETATM    6  C9  UNL     1      27.483   7.951  48.347  1.00  0.00     0.002 C 
HETATM    7  C10 UNL     1      26.928   9.024  49.220  1.00  0.00     0.163 C 
HETATM    8  N3  UNL     1      28.145   9.580  49.919  1.00  0.00    -0.371 N 
HETATM    9  C11 UNL     1      29.523   9.305  49.550  1.00  0.00     0.110 C 
HETATM   10  C18 UNL     1      30.010   8.241  48.876  1.00  0.00     0.028 C 
HETATM   11  H10 UNL     1      28.044  10.216  50.733  1.00  0.00     0.161 HD
ENDROOT
BRANCH   1  12
HETATM   12  N1  UNL     1      26.440   6.385  50.035  1.00  0.00    -0.341 N 
HETATM   13  H3  UNL     1      26.619   6.951  50.890  1.00  0.00     0.167 HD
BRANCH  12  14
HETATM   14  C4  UNL     1      25.431   5.379  49.761  1.00  0.00     0.035 A 
HETATM   15  C3  UNL     1      24.449   5.538  48.816  1.00  0.00     0.032 A 
HETATM   16  C2  UNL     1      23.534   4.528  48.660  1.00  0.00     0.046 A 
HETATM   17  C1  UNL     1      23.539   3.353  49.403  1.00  0.00     0.138 A 
HETATM   18  F1  UNL     1      22.655   2.336  49.290  1.00  0.00    -0.204 F 
HETATM   19  C20 UNL     1      24.513   3.172  50.355  1.00  0.00     0.074 A 
HETATM   20  C19 UNL     1      25.424   4.190  50.500  1.00  0.00     0.056 A 
HETATM   21 CL1  UNL     1      24.686   1.761  51.398  1.00  0.00    -0.081 Cl
ENDBRANCH  12  14
ENDBRANCH   1  12
BRANCH  10  22
HETATM   22  S1  UNL     1      31.597   7.637  49.511  1.00  0.00    -0.143 SA
HETATM   23  H24 UNL     1      31.819   6.300  49.058  1.00  0.00     0.107 HD
ENDBRANCH  10  22
BRANCH   9  24
HETATM   24  N4  UNL     1      30.538  10.265  49.921  1.00  0.00    -0.374 N 
HETATM   25  H11 UNL     1      31.192  10.448  50.739  1.00  0.00     0.161 HD
BRANCH  24  26
HETATM   26  C12 UNL     1      30.611  11.194  48.800  1.00  0.00     0.140 C 
BRANCH  26  27
HETATM   27  C13 UNL     1      30.108  12.572  49.095  1.00  0.00     0.136 C 
BRANCH  27  28
HETATM   28  N5  UNL     1      29.256  12.933  47.991  1.00  0.00    -0.407 N 
HETATM   29  C14 UNL     1      29.210  11.964  46.953  1.00  0.00     0.143 C 
HETATM   30  C15 UNL     1      27.889  11.939  46.221  1.00  0.00     0.187 C 
HETATM   31  O1  UNL     1      26.910  11.731  47.156  1.00  0.00    -0.388 OA
HETATM   32  C16 UNL     1      26.801  12.694  48.124  1.00  0.00     0.187 C 
HETATM   33  C17 UNL     1      28.020  13.544  48.317  1.00  0.00     0.143 C 
ENDBRANCH  27  28
ENDBRANCH  26  27
ENDBRANCH  24  26
ENDBRANCH   9  24
TORSDOF 7
ENDMDL
MODEL 9
REMARK VINA RESULT:      -7.3      4.729      8.145
REMARK  7 active torsions:
REMARK  status: ('A' for Active; 'I' for Inactive)
REMARK    1  A    between atoms: C4_5  and  N1_6 
REMARK    2  A    between atoms: N1_6  and  C5_7 
REMARK    3  A    between atoms: C11_15  and  N4_16 
REMARK    4  A    between atoms: N4_16  and  C12_17 
REMARK    5  A    between atoms: C12_17  and  C13_18 
REMARK    6  A    between atoms: C13_18  and  N5_19 
REMARK    7  A    between atoms: C18_25  and  S1_26 
ROOT
HETATM    1  C5  UNL     1      22.214   4.305  50.925  1.00  0.00     0.130 C 
HETATM    2  N2  UNL     1      21.281   4.058  50.027  1.00  0.00    -0.271 NA
HETATM    3  C6  UNL     1      20.622   2.729  50.231  1.00  0.00     0.165 C 
HETATM    4  C7  UNL     1      21.699   1.710  50.586  1.00  0.00     0.072 C 
HETATM    5  C8  UNL     1      23.017   2.207  50.084  1.00  0.00    -0.002 C 
HETATM    6  C9  UNL     1      23.228   3.208  50.962  1.00  0.00     0.002 C 
HETATM    7  C10 UNL     1      24.246   3.343  52.042  1.00  0.00     0.163 C 
HETATM    8  N3  UNL     1      23.786   2.361  53.091  1.00  0.00    -0.371 N 
HETATM    9  C11 UNL     1      22.772   1.340  52.897  1.00  0.00     0.110 C 
HETATM   10  C18 UNL     1      21.769   1.321  51.992  1.00  0.00     0.028 C 
HETATM   11  H10 UNL     1      24.198   2.372  54.044  1.00  0.00     0.161 HD
ENDROOT
BRANCH   1  12
HETATM   12  N1  UNL     1      22.416   5.453  51.792  1.00  0.00    -0.341 N 
HETATM   13  H3  UNL     1      22.248   5.360  52.815  1.00  0.00     0.167 HD
BRANCH  12  14
HETATM   14  C4  UNL     1      22.851   6.592  51.005  1.00  0.00     0.035 A 
HETATM   15  C3  UNL     1      21.984   7.412  50.329  1.00  0.00     0.032 A 
HETATM   16  C2  UNL     1      22.511   8.446  49.597  1.00  0.00     0.046 A 
HETATM   17  C1  UNL     1      23.873   8.711  49.497  1.00  0.00     0.138 A 
HETATM   18  F1  UNL     1      24.438   9.711  48.783  1.00  0.00    -0.204 F 
HETATM   19  C20 UNL     1      24.760   7.903  50.166  1.00  0.00     0.074 A 
HETATM   20  C19 UNL     1      24.218   6.873  50.897  1.00  0.00     0.056 A 
HETATM   21 CL1  UNL     1      26.514   8.072  50.162  1.00  0.00    -0.081 Cl
ENDBRANCH  12  14
ENDBRANCH   1  12
BRANCH  10  22
HETATM   22  S1  UNL     1      20.207   0.675  52.646  1.00  0.00    -0.143 SA
HETATM   23  H24 UNL     1      20.422  -0.615  53.221  1.00  0.00     0.107 HD
ENDBRANCH  10  22
BRANCH   9  24
HETATM   24  N4  UNL     1      22.800   0.172  53.749  1.00  0.00    -0.374 N 
HETATM   25  H11 UNL     1      22.217  -0.251  54.530  1.00  0.00     0.161 HD
BRANCH  24  26
HETATM   26  C12 UNL     1      23.993  -0.563  53.348  1.00  0.00     0.140 C 
BRANCH  26  27
HETATM   27  C13 UNL     1      25.019  -0.727  54.425  1.00  0.00     0.136 C 
BRANCH  27  28
HETATM   28  N5  UNL     1      26.223  -0.109  53.929  1.00  0.00    -0.407 N 
HETATM   29  C14 UNL     1      27.131   0.291  54.945  1.00  0.00     0.143 C 
HETATM   30  C15 UNL     1      28.574   0.241  54.505  1.00  0.00     0.187 C 
HETATM   31  O1  UNL     1      28.824  -1.036  54.073  1.00  0.00    -0.388 OA
HETATM   32  C16 UNL     1      28.077  -1.455  53.004  1.00  0.00     0.187 C 
HETATM   33  C17 UNL     1      26.807  -0.693  52.777  1.00  0.00     0.143 C 
ENDBRANCH  27  28
ENDBRANCH  26  27
ENDBRANCH  24  26
ENDBRANCH   9  24
TORSDOF 7
ENDMDL
