MODEL 1
REMARK VINA RESULT:      -7.6      0.000      0.000
REMARK  4 active torsions:
REMARK  status: ('A' for Active; 'I' for Inactive)
REMARK    1  A    between atoms: C3_3  and  C4_5 
REMARK    2  A    between atoms: C5_6  and  C6_7 
REMARK    3  A    between atoms: C6_7  and  C7_8 
REMARK    4  A    between atoms: N1_11  and  C9_12 
ROOT
HETATM    1  C7  UNL     1      23.742   2.325  52.363  1.00  0.00     0.032 C 
HETATM    2  C8  UNL     1      22.503   2.407  51.993  1.00  0.00     0.090 C 
HETATM    3  S1  UNL     1      22.330   4.008  51.186  1.00  0.00    -0.030 SA
HETATM    4  N1  UNL     1      24.031   4.400  51.236  1.00  0.00    -0.153 NA
HETATM    5  N2  UNL     1      24.536   3.405  52.083  1.00  0.00    -0.311 N 
HETATM    6  H18 UNL     1      25.512   3.460  52.509  1.00  0.00     0.181 HD
ENDROOT
BRANCH   4   7
HETATM    7  C9  UNL     1      24.589   4.198  49.906  1.00  0.00     0.061 A 
HETATM    8  C10 UNL     1      23.509   3.658  48.978  1.00  0.00     0.040 C 
HETATM    9  C11 UNL     1      24.985   5.528  49.350  1.00  0.00     0.002 A 
HETATM   10  C12 UNL     1      26.107   6.005  48.861  1.00  0.00     0.017 A 
HETATM   11  C13 UNL     1      27.212   5.075  48.847  1.00  0.00     0.007 A 
HETATM   12 BR1  UNL     1      28.890   5.604  48.168  1.00  0.00    -0.051 Br
HETATM   13  C14 UNL     1      26.920   3.887  49.332  1.00  0.00    -0.005 A 
HETATM   14  C15 UNL     1      25.722   3.232  49.908  1.00  0.00     0.060 A 
ENDBRANCH   4   7
BRANCH   1  15
HETATM   15  C6  UNL     1      24.052   1.017  53.066  1.00  0.00     0.086 C 
BRANCH  15  16
HETATM   16  C5  UNL     1      25.528   0.915  53.354  1.00  0.00    -0.019 C 
HETATM   17  C4  UNL     1      26.241  -0.018  52.701  1.00  0.00     0.020 C 
BRANCH  17  18
HETATM   18  C3  UNL     1      27.663  -0.032  53.051  1.00  0.00     0.029 C 
HETATM   19  C2  UNL     1      28.491  -1.058  53.226  1.00  0.00    -0.007 C 
HETATM   20  C1  UNL     1      29.883  -0.592  53.545  1.00  0.00     0.038 C 
HETATM   21 CL1  UNL     1      28.557   1.465  53.272  1.00  0.00    -0.085 Cl
ENDBRANCH  17  18
ENDBRANCH  15  16
ENDBRANCH   1  15
TORSDOF 4
ENDMDL
MODEL 2
REMARK VINA RESULT:      -7.1      1.271      1.672
REMARK  4 active torsions:
REMARK  status: ('A' for Active; 'I' for Inactive)
REMARK    1  A    between atoms: C3_3  and  C4_5 
REMARK    2  A    between atoms: C5_6  and  C6_7 
REMARK    3  A    between atoms: C6_7  and  C7_8 
REMARK    4  A    between atoms: N1_11  and  C9_12 
ROOT
HETATM    1  C7  UNL     1      23.385   3.847  51.731  1.00  0.00     0.032 C 
HETATM    2  C8  UNL     1      22.278   4.375  51.313  1.00  0.00     0.090 C 
HETATM    3  S1  UNL     1      22.722   5.981  50.628  1.00  0.00    -0.030 SA
HETATM    4  N1  UNL     1      24.446   5.755  50.786  1.00  0.00    -0.153 NA
HETATM    5  N2  UNL     1      24.519   4.599  51.574  1.00  0.00    -0.311 N 
HETATM    6  H18 UNL     1      25.422   4.287  52.048  1.00  0.00     0.181 HD
ENDROOT
BRANCH   4   7
HETATM    7  C9  UNL     1      24.993   5.450  49.471  1.00  0.00     0.061 A 
HETATM    8  C10 UNL     1      23.855   5.285  48.473  1.00  0.00     0.040 C 
HETATM    9  C11 UNL     1      25.787   6.627  49.002  1.00  0.00     0.002 A 
HETATM   10  C12 UNL     1      27.024   6.773  48.585  1.00  0.00     0.017 A 
HETATM   11  C13 UNL     1      27.811   5.563  48.567  1.00  0.00     0.007 A 
HETATM   12 BR1  UNL     1      29.604   5.605  47.987  1.00  0.00    -0.051 Br
HETATM   13  C14 UNL     1      27.161   4.494  48.977  1.00  0.00    -0.005 A 
HETATM   14  C15 UNL     1      25.796   4.196  49.469  1.00  0.00     0.060 A 
ENDBRANCH   4   7
BRANCH   1  15
HETATM   15  C6  UNL     1      23.178   2.474  52.342  1.00  0.00     0.086 C 
BRANCH  15  16
HETATM   16  C5  UNL     1      24.506   1.808  52.595  1.00  0.00    -0.019 C 
HETATM   17  C4  UNL     1      24.510   0.587  53.154  1.00  0.00     0.020 C 
BRANCH  17  18
HETATM   18  C3  UNL     1      25.849   0.029  53.355  1.00  0.00     0.029 C 
HETATM   19  C2  UNL     1      26.667  -0.567  52.492  1.00  0.00    -0.007 C 
HETATM   20  C1  UNL     1      27.965  -0.951  53.142  1.00  0.00     0.038 C 
HETATM   21 CL1  UNL     1      26.641   0.117  54.922  1.00  0.00    -0.085 Cl
ENDBRANCH  17  18
ENDBRANCH  15  16
ENDBRANCH   1  15
TORSDOF 4
ENDMDL
MODEL 3
REMARK VINA RESULT:      -7.1      2.791      3.400
REMARK  4 active torsions:
REMARK  status: ('A' for Active; 'I' for Inactive)
REMARK    1  A    between atoms: C3_3  and  C4_5 
REMARK    2  A    between atoms: C5_6  and  C6_7 
REMARK    3  A    between atoms: C6_7  and  C7_8 
REMARK    4  A    between atoms: N1_11  and  C9_12 
ROOT
HETATM    1  C7  UNL     1      21.530   0.517  52.338  1.00  0.00     0.032 C 
HETATM    2  C8  UNL     1      21.225   0.261  51.105  1.00  0.00     0.090 C 
HETATM    3  S1  UNL     1      20.585   1.800  50.423  1.00  0.00    -0.030 SA
HETATM    4  N1  UNL     1      20.952   2.767  51.830  1.00  0.00    -0.153 NA
HETATM    5  N2  UNL     1      21.287   1.790  52.777  1.00  0.00    -0.311 N 
HETATM    6  H18 UNL     1      21.363   2.007  53.818  1.00  0.00     0.181 HD
ENDROOT
BRANCH   4   7
HETATM    7  C9  UNL     1      22.140   3.560  51.546  1.00  0.00     0.061 A 
HETATM    8  C10 UNL     1      21.759   5.031  51.452  1.00  0.00     0.040 C 
HETATM    9  C11 UNL     1      23.074   3.448  52.708  1.00  0.00     0.002 A 
HETATM   10  C12 UNL     1      24.333   3.091  52.823  1.00  0.00     0.017 A 
HETATM   11  C13 UNL     1      24.979   2.718  51.586  1.00  0.00     0.007 A 
HETATM   12 BR1  UNL     1      26.789   2.189  51.582  1.00  0.00    -0.051 Br
HETATM   13  C14 UNL     1      24.198   2.793  50.529  1.00  0.00    -0.005 A 
HETATM   14  C15 UNL     1      22.789   3.168  50.265  1.00  0.00     0.060 A 
ENDBRANCH   4   7
BRANCH   1  15
HETATM   15  C6  UNL     1      22.092  -0.695  53.059  1.00  0.00     0.086 C 
BRANCH  15  16
HETATM   16  C5  UNL     1      23.597  -0.638  53.083  1.00  0.00    -0.019 C 
HETATM   17  C4  UNL     1      24.208  -0.416  54.260  1.00  0.00     0.020 C 
BRANCH  17  18
HETATM   18  C3  UNL     1      25.669  -0.381  54.175  1.00  0.00     0.029 C 
HETATM   19  C2  UNL     1      26.558   0.233  54.950  1.00  0.00    -0.007 C 
HETATM   20  C1  UNL     1      27.964  -0.042  54.499  1.00  0.00     0.038 C 
HETATM   21 CL1  UNL     1      26.525  -1.270  52.922  1.00  0.00    -0.085 Cl
ENDBRANCH  17  18
ENDBRANCH  15  16
ENDBRANCH   1  15
TORSDOF 4
ENDMDL
MODEL 4
REMARK VINA RESULT:      -6.9      3.714      5.344
REMARK  4 active torsions:
REMARK  status: ('A' for Active; 'I' for Inactive)
REMARK    1  A    between atoms: C3_3  and  C4_5 
REMARK    2  A    between atoms: C5_6  and  C6_7 
REMARK    3  A    between atoms: C6_7  and  C7_8 
REMARK    4  A    between atoms: N1_11  and  C9_12 
ROOT
HETATM    1  C7  UNL     1      22.530   3.771  51.621  1.00  0.00     0.032 C 
HETATM    2  C8  UNL     1      21.613   4.601  52.004  1.00  0.00     0.090 C 
HETATM    3  S1  UNL     1      20.156   4.221  51.015  1.00  0.00    -0.030 SA
HETATM    4  N1  UNL     1      20.838   2.805  50.256  1.00  0.00    -0.153 NA
HETATM    5  N2  UNL     1      22.187   2.897  50.624  1.00  0.00    -0.311 N 
HETATM    6  H18 UNL     1      22.947   2.311  50.159  1.00  0.00     0.181 HD
ENDROOT
BRANCH   4   7
HETATM    7  C9  UNL     1      20.269   1.624  50.888  1.00  0.00     0.061 A 
HETATM    8  C10 UNL     1      19.150   1.069  50.017  1.00  0.00     0.040 C 
HETATM    9  C11 UNL     1      21.318   0.560  50.941  1.00  0.00     0.002 A 
HETATM   10  C12 UNL     1      21.825  -0.161  51.915  1.00  0.00     0.017 A 
HETATM   11  C13 UNL     1      21.278   0.107  53.224  1.00  0.00     0.007 A 
HETATM   12 BR1  UNL     1      21.895  -0.851  54.726  1.00  0.00    -0.051 Br
HETATM   13  C14 UNL     1      20.350   1.042  53.237  1.00  0.00    -0.005 A 
HETATM   14  C15 UNL     1      19.703   1.919  52.234  1.00  0.00     0.060 A 
ENDBRANCH   4   7
BRANCH   1  15
HETATM   15  C6  UNL     1      23.836   3.964  52.370  1.00  0.00     0.086 C 
BRANCH  15  16
HETATM   16  C5  UNL     1      24.718   2.754  52.203  1.00  0.00    -0.019 C 
HETATM   17  C4  UNL     1      24.598   1.751  53.089  1.00  0.00     0.020 C 
BRANCH  17  18
HETATM   18  C3  UNL     1      25.498   0.623  52.837  1.00  0.00     0.029 C 
HETATM   19  C2  UNL     1      25.489  -0.608  53.340  1.00  0.00    -0.007 C 
HETATM   20  C1  UNL     1      26.595  -1.444  52.762  1.00  0.00     0.038 C 
HETATM   21 CL1  UNL     1      26.822   0.760  51.689  1.00  0.00    -0.085 Cl
ENDBRANCH  17  18
ENDBRANCH  15  16
ENDBRANCH   1  15
TORSDOF 4
ENDMDL
MODEL 5
REMARK VINA RESULT:      -6.8      2.850      4.398
REMARK  4 active torsions:
REMARK  status: ('A' for Active; 'I' for Inactive)
REMARK    1  A    between atoms: C3_3  and  C4_5 
REMARK    2  A    between atoms: C5_6  and  C6_7 
REMARK    3  A    between atoms: C6_7  and  C7_8 
REMARK    4  A    between atoms: N1_11  and  C9_12 
ROOT
HETATM    1  C7  UNL     1      25.094   3.807  49.809  1.00  0.00     0.032 C 
HETATM    2  C8  UNL     1      25.053   5.049  50.175  1.00  0.00     0.090 C 
HETATM    3  S1  UNL     1      23.332   5.556  50.017  1.00  0.00    -0.030 SA
HETATM    4  N1  UNL     1      22.727   3.965  49.631  1.00  0.00    -0.153 NA
HETATM    5  N2  UNL     1      23.911   3.249  49.407  1.00  0.00    -0.311 N 
HETATM    6  H18 UNL     1      23.918   2.290  48.940  1.00  0.00     0.181 HD
ENDROOT
BRANCH   4   7
HETATM    7  C9  UNL     1      22.078   3.420  50.815  1.00  0.00     0.061 A 
HETATM    8  C10 UNL     1      20.757   4.140  51.047  1.00  0.00     0.040 C 
HETATM    9  C11 UNL     1      21.729   1.991  50.551  1.00  0.00     0.002 A 
HETATM   10  C12 UNL     1      21.995   0.865  51.175  1.00  0.00     0.017 A 
HETATM   11  C13 UNL     1      22.793   1.003  52.371  1.00  0.00     0.007 A 
HETATM   12 BR1  UNL     1      23.253  -0.518  53.385  1.00  0.00    -0.051 Br
HETATM   13  C14 UNL     1      23.134   2.244  52.649  1.00  0.00    -0.005 A 
HETATM   14  C15 UNL     1      22.911   3.576  52.040  1.00  0.00     0.060 A 
ENDBRANCH   4   7
BRANCH   1  15
HETATM   15  C6  UNL     1      26.494   3.226  49.888  1.00  0.00     0.086 C 
BRANCH  15  16
HETATM   16  C5  UNL     1      26.700   2.538  51.212  1.00  0.00    -0.019 C 
HETATM   17  C4  UNL     1      26.434   1.224  51.296  1.00  0.00     0.020 C 
BRANCH  17  18
HETATM   18  C3  UNL     1      26.668   0.653  52.625  1.00  0.00     0.029 C 
HETATM   19  C2  UNL     1      26.677   1.237  53.819  1.00  0.00    -0.007 C 
HETATM   20  C1  UNL     1      26.931   0.243  54.915  1.00  0.00     0.038 C 
HETATM   21 CL1  UNL     1      26.965  -1.068  52.830  1.00  0.00    -0.085 Cl
ENDBRANCH  17  18
ENDBRANCH  15  16
ENDBRANCH   1  15
TORSDOF 4
ENDMDL
MODEL 6
REMARK VINA RESULT:      -6.6      3.917      4.720
REMARK  4 active torsions:
REMARK  status: ('A' for Active; 'I' for Inactive)
REMARK    1  A    between atoms: C3_3  and  C4_5 
REMARK    2  A    between atoms: C5_6  and  C6_7 
REMARK    3  A    between atoms: C6_7  and  C7_8 
REMARK    4  A    between atoms: N1_11  and  C9_12 
ROOT
HETATM    1  C7  UNL     1      23.964   1.210  52.424  1.00  0.00     0.032 C 
HETATM    2  C8  UNL     1      24.090   2.250  53.186  1.00  0.00     0.090 C 
HETATM    3  S1  UNL     1      23.917   3.681  52.104  1.00  0.00    -0.030 SA
HETATM    4  N1  UNL     1      23.491   2.761  50.683  1.00  0.00    -0.153 NA
HETATM    5  N2  UNL     1      23.767   1.449  51.091  1.00  0.00    -0.311 N 
HETATM    6  H18 UNL     1      23.823   0.637  50.401  1.00  0.00     0.181 HD
ENDROOT
BRANCH   4   7
HETATM    7  C9  UNL     1      22.055   2.883  50.469  1.00  0.00     0.061 A 
HETATM    8  C10 UNL     1      21.784   3.997  49.468  1.00  0.00     0.040 C 
HETATM    9  C11 UNL     1      21.560   1.625  49.833  1.00  0.00     0.002 A 
HETATM   10  C12 UNL     1      20.618   0.764  50.147  1.00  0.00     0.017 A 
HETATM   11  C13 UNL     1      19.890   1.067  51.357  1.00  0.00     0.007 A 
HETATM   12 BR1  UNL     1      18.501  -0.067  51.938  1.00  0.00    -0.051 Br
HETATM   13  C14 UNL     1      20.290   2.166  51.963  1.00  0.00    -0.005 A 
HETATM   14  C15 UNL     1      21.322   3.203  51.725  1.00  0.00     0.060 A 
ENDBRANCH   4   7
BRANCH   1  15
HETATM   15  C6  UNL     1      24.085  -0.091  53.196  1.00  0.00     0.086 C 
BRANCH  15  16
HETATM   16  C5  UNL     1      25.529  -0.374  53.519  1.00  0.00    -0.019 C 
HETATM   17  C4  UNL     1      26.319  -0.851  52.543  1.00  0.00     0.020 C 
BRANCH  17  18
HETATM   18  C3  UNL     1      27.702  -1.091  52.960  1.00  0.00     0.029 C 
HETATM   19  C2  UNL     1      28.605  -0.250  53.454  1.00  0.00    -0.007 C 
HETATM   20  C1  UNL     1      29.893  -0.952  53.774  1.00  0.00     0.038 C 
HETATM   21 CL1  UNL     1      28.405  -2.700  52.883  1.00  0.00    -0.085 Cl
ENDBRANCH  17  18
ENDBRANCH  15  16
ENDBRANCH   1  15
TORSDOF 4
ENDMDL
MODEL 7
REMARK VINA RESULT:      -6.6      4.115      6.719
REMARK  4 active torsions:
REMARK  status: ('A' for Active; 'I' for Inactive)
REMARK    1  A    between atoms: C3_3  and  C4_5 
REMARK    2  A    between atoms: C5_6  and  C6_7 
REMARK    3  A    between atoms: C6_7  and  C7_8 
REMARK    4  A    between atoms: N1_11  and  C9_12 
ROOT
HETATM    1  C7  UNL     1      24.366   3.176  50.983  1.00  0.00     0.032 C 
HETATM    2  C8  UNL     1      25.503   2.786  51.466  1.00  0.00     0.090 C 
HETATM    3  S1  UNL     1      25.146   2.128  53.104  1.00  0.00    -0.030 SA
HETATM    4  N1  UNL     1      23.411   2.254  52.956  1.00  0.00    -0.153 NA
HETATM    5  N2  UNL     1      23.272   3.017  51.789  1.00  0.00    -0.311 N 
HETATM    6  H18 UNL     1      22.348   3.470  51.510  1.00  0.00     0.181 HD
ENDROOT
BRANCH   4   7
HETATM    7  C9  UNL     1      22.872   0.925  52.704  1.00  0.00     0.061 A 
HETATM    8  C10 UNL     1      23.986  -0.106  52.823  1.00  0.00     0.040 C 
HETATM    9  C11 UNL     1      21.889   0.598  53.781  1.00  0.00     0.002 A 
HETATM   10  C12 UNL     1      20.630   0.222  53.771  1.00  0.00     0.017 A 
HETATM   11  C13 UNL     1      20.040   0.091  52.460  1.00  0.00     0.007 A 
HETATM   12 BR1  UNL     1      18.243  -0.448  52.276  1.00  0.00    -0.051 Br
HETATM   13  C14 UNL     1      20.863   0.374  51.471  1.00  0.00    -0.005 A 
HETATM   14  C15 UNL     1      22.274   0.805  51.345  1.00  0.00     0.060 A 
ENDBRANCH   4   7
BRANCH   1  15
HETATM   15  C6  UNL     1      24.500   3.761  49.589  1.00  0.00     0.086 C 
BRANCH  15  16
HETATM   16  C5  UNL     1      25.889   4.308  49.383  1.00  0.00    -0.019 C 
HETATM   17  C4  UNL     1      26.022   5.486  48.750  1.00  0.00     0.020 C 
BRANCH  17  18
HETATM   18  C3  UNL     1      27.410   5.929  48.603  1.00  0.00     0.029 C 
HETATM   19  C2  UNL     1      28.513   5.226  48.367  1.00  0.00    -0.007 C 
HETATM   20  C1  UNL     1      29.719   6.114  48.260  1.00  0.00     0.038 C 
HETATM   21 CL1  UNL     1      27.831   7.634  48.696  1.00  0.00    -0.085 Cl
ENDBRANCH  17  18
ENDBRANCH  15  16
ENDBRANCH   1  15
TORSDOF 4
ENDMDL
MODEL 8
REMARK VINA RESULT:      -6.5      1.936      2.459
REMARK  4 active torsions:
REMARK  status: ('A' for Active; 'I' for Inactive)
REMARK    1  A    between atoms: C3_3  and  C4_5 
REMARK    2  A    between atoms: C5_6  and  C6_7 
REMARK    3  A    between atoms: C6_7  and  C7_8 
REMARK    4  A    between atoms: N1_11  and  C9_12 
ROOT
HETATM    1  C7  UNL     1      21.615   1.324  51.682  1.00  0.00     0.032 C 
HETATM    2  C8  UNL     1      20.779   0.707  50.908  1.00  0.00     0.090 C 
HETATM    3  S1  UNL     1      20.332   1.885  49.621  1.00  0.00    -0.030 SA
HETATM    4  N1  UNL     1      21.473   3.110  50.117  1.00  0.00    -0.153 NA
HETATM    5  N2  UNL     1      21.904   2.622  51.358  1.00  0.00    -0.311 N 
HETATM    6  H18 UNL     1      22.450   3.224  52.049  1.00  0.00     0.181 HD
ENDROOT
BRANCH   4   7
HETATM    7  C9  UNL     1      22.601   3.088  49.197  1.00  0.00     0.061 A 
HETATM    8  C10 UNL     1      22.333   2.081  48.087  1.00  0.00     0.040 C 
HETATM    9  C11 UNL     1      22.697   4.422  48.530  1.00  0.00     0.002 A 
HETATM   10  C12 UNL     1      23.663   5.305  48.411  1.00  0.00     0.017 A 
HETATM   11  C13 UNL     1      24.906   4.943  49.049  1.00  0.00     0.007 A 
HETATM   12 BR1  UNL     1      26.392   6.100  48.962  1.00  0.00    -0.051 Br
HETATM   13  C14 UNL     1      24.876   3.776  49.659  1.00  0.00    -0.005 A 
HETATM   14  C15 UNL     1      23.874   2.706  49.870  1.00  0.00     0.060 A 
ENDBRANCH   4   7
BRANCH   1  15
HETATM   15  C6  UNL     1      22.092   0.454  52.830  1.00  0.00     0.086 C 
BRANCH  15  16
HETATM   16  C5  UNL     1      23.598   0.399  52.853  1.00  0.00    -0.019 C 
HETATM   17  C4  UNL     1      24.191  -0.478  53.680  1.00  0.00     0.020 C 
BRANCH  17  18
HETATM   18  C3  UNL     1      25.654  -0.453  53.625  1.00  0.00     0.029 C 
HETATM   19  C2  UNL     1      26.483  -0.892  52.682  1.00  0.00    -0.007 C 
HETATM   20  C1  UNL     1      27.916  -0.622  53.042  1.00  0.00     0.038 C 
HETATM   21 CL1  UNL     1      26.597   0.269  54.921  1.00  0.00    -0.085 Cl
ENDBRANCH  17  18
ENDBRANCH  15  16
ENDBRANCH   1  15
TORSDOF 4
ENDMDL
MODEL 9
REMARK VINA RESULT:      -6.5      1.656      2.053
REMARK  4 active torsions:
REMARK  status: ('A' for Active; 'I' for Inactive)
REMARK    1  A    between atoms: C3_3  and  C4_5 
REMARK    2  A    between atoms: C5_6  and  C6_7 
REMARK    3  A    between atoms: C6_7  and  C7_8 
REMARK    4  A    between atoms: N1_11  and  C9_12 
ROOT
HETATM    1  C7  UNL     1      23.799   2.569  52.700  1.00  0.00     0.032 C 
HETATM    2  C8  UNL     1      23.761   1.383  52.181  1.00  0.00     0.090 C 
HETATM    3  S1  UNL     1      22.318   1.359  51.103  1.00  0.00    -0.030 SA
HETATM    4  N1  UNL     1      21.951   3.056  51.284  1.00  0.00    -0.153 NA
HETATM    5  N2  UNL     1      22.796   3.427  52.338  1.00  0.00    -0.311 N 
HETATM    6  H18 UNL     1      22.686   4.351  52.860  1.00  0.00     0.181 HD
ENDROOT
BRANCH   4   7
HETATM    7  C9  UNL     1      22.385   3.751  50.080  1.00  0.00     0.061 A 
HETATM    8  C10 UNL     1      21.170   4.131  49.246  1.00  0.00     0.040 C 
HETATM    9  C11 UNL     1      23.030   5.039  50.481  1.00  0.00     0.002 A 
HETATM   10  C12 UNL     1      24.204   5.577  50.235  1.00  0.00     0.017 A 
HETATM   11  C13 UNL     1      25.080   4.781  49.408  1.00  0.00     0.007 A 
HETATM   12 BR1  UNL     1      26.797   5.417  48.957  1.00  0.00    -0.051 Br
HETATM   13  C14 UNL     1      24.563   3.631  49.030  1.00  0.00    -0.005 A 
HETATM   14  C15 UNL     1      23.283   2.915  49.236  1.00  0.00     0.060 A 
ENDBRANCH   4   7
BRANCH   1  15
HETATM   15  C6  UNL     1      24.974   2.751  53.643  1.00  0.00     0.086 C 
BRANCH  15  16
HETATM   16  C5  UNL     1      25.931   1.594  53.516  1.00  0.00    -0.019 C 
HETATM   17  C4  UNL     1      27.248   1.847  53.588  1.00  0.00     0.020 C 
BRANCH  17  18
HETATM   18  C3  UNL     1      28.091   0.656  53.454  1.00  0.00     0.029 C 
HETATM   19  C2  UNL     1      29.348   0.450  53.834  1.00  0.00    -0.007 C 
HETATM   20  C1  UNL     1      29.795  -0.949  53.520  1.00  0.00     0.038 C 
HETATM   21 CL1  UNL     1      27.466  -0.819  52.729  1.00  0.00    -0.085 Cl
ENDBRANCH  17  18
ENDBRANCH  15  16
ENDBRANCH   1  15
TORSDOF 4
ENDMDL
