MODEL 1
REMARK VINA RESULT:      -6.5      0.000      0.000
REMARK  6 active torsions:
REMARK  status: ('A' for Active; 'I' for Inactive)
REMARK    1  A    between atoms: C2_2  and  C4_4 
REMARK    2  A    between atoms: N1_5  and  C5_6 
REMARK    3  A    between atoms: N2_7  and  C6_8 
REMARK    4  A    between atoms: C8_10  and  N3_11 
REMARK    5  A    between atoms: C10_13  and  C11_14 
REMARK    6  A    between atoms: C12_15  and  N4_16 
ROOT
HETATM    1  C6  UNL     1      23.297   1.378  52.068  1.00  0.00     0.205 C 
HETATM    2  C7  UNL     1      24.410   1.948  51.252  1.00  0.00     0.083 C 
HETATM    3  C8  UNL     1      25.448   2.712  51.997  1.00  0.00     0.224 C 
HETATM    4  C9  UNL     1      26.831   2.079  51.945  1.00  0.00     0.075 C 
HETATM    5  C10 UNL     1      26.989   0.860  52.780  1.00  0.00     0.250 C 
HETATM    6  N5  UNL     1      25.825   0.471  53.514  1.00  0.00     0.109 N 
HETATM    7  C13 UNL     1      26.104  -0.055  54.824  1.00  0.00     0.312 C 
HETATM    8  C14 UNL     1      24.897  -0.327  52.748  1.00  0.00     0.392 C 
HETATM    9  N6  UNL     1      23.606   0.246  52.857  1.00  0.00    -0.376 N 
HETATM   10  H28 UNL     1      23.307   0.287  53.844  1.00  0.00     0.157 HD
ENDROOT
BRANCH   1  11
HETATM   11  N2  UNL     1      22.247   0.994  51.140  1.00  0.00    -0.258 NA
HETATM   12  C5  UNL     1      20.990   1.025  51.406  1.00  0.00     0.228 C 
BRANCH  12  13
HETATM   13  N1  UNL     1      20.789   1.489  52.733  1.00  0.00    -0.258 NA
HETATM   14  C4  UNL     1      20.363   0.634  53.600  1.00  0.00     0.095 C 
BRANCH  14  15
HETATM   15  C2  UNL     1      20.056  -0.797  53.369  1.00  0.00     0.018 C 
HETATM   16  C1  UNL     1      20.855  -1.659  54.327  1.00  0.00     0.015 C 
HETATM   17  C3  UNL     1      18.588  -1.072  53.395  1.00  0.00     0.015 C 
ENDBRANCH  14  15
ENDBRANCH  12  13
ENDBRANCH   1  11
BRANCH   3  18
HETATM   18  N3  UNL     1      25.089   3.128  53.322  1.00  0.00     0.083 N 
HETATM   19  H14 UNL     1      24.635   2.329  53.789  1.00  0.00     0.313 HD
HETATM   20  H15 UNL     1      24.645   4.042  53.422  1.00  0.00     0.313 HD
ENDBRANCH   3  18
BRANCH   5  21
HETATM   21  C11 UNL     1      28.105   0.993  53.764  1.00  0.00     0.025 C 
HETATM   22  C12 UNL     1      28.824   2.110  53.793  1.00  0.00     0.078 C 
BRANCH  22  23
HETATM   23  N4  UNL     1      29.908   2.347  54.685  1.00  0.00    -0.408 N 
HETATM   24  H21 UNL     1      30.499   3.207  54.775  1.00  0.00     0.155 HD
HETATM   25  H22 UNL     1      30.542   2.016  55.460  1.00  0.00     0.155 HD
ENDBRANCH  22  23
ENDBRANCH   5  21
TORSDOF 6
ENDMDL
MODEL 2
REMARK VINA RESULT:      -6.3      2.791      4.707
REMARK  6 active torsions:
REMARK  status: ('A' for Active; 'I' for Inactive)
REMARK    1  A    between atoms: C2_2  and  C4_4 
REMARK    2  A    between atoms: N1_5  and  C5_6 
REMARK    3  A    between atoms: N2_7  and  C6_8 
REMARK    4  A    between atoms: C8_10  and  N3_11 
REMARK    5  A    between atoms: C10_13  and  C11_14 
REMARK    6  A    between atoms: C12_15  and  N4_16 
ROOT
HETATM    1  C6  UNL     1      23.641   2.520  52.551  1.00  0.00     0.205 C 
HETATM    2  C7  UNL     1      24.659   2.290  51.483  1.00  0.00     0.083 C 
HETATM    3  C8  UNL     1      26.056   2.057  51.944  1.00  0.00     0.224 C 
HETATM    4  C9  UNL     1      26.589   0.672  51.608  1.00  0.00     0.075 C 
HETATM    5  C10 UNL     1      26.029  -0.428  52.436  1.00  0.00     0.250 C 
HETATM    6  N5  UNL     1      25.083  -0.021  53.428  1.00  0.00     0.109 N 
HETATM    7  C13 UNL     1      25.172  -0.756  54.662  1.00  0.00     0.312 C 
HETATM    8  C14 UNL     1      23.738   0.116  52.924  1.00  0.00     0.392 C 
HETATM    9  N6  UNL     1      23.239   1.388  53.296  1.00  0.00    -0.376 N 
HETATM   10  H28 UNL     1      23.245   1.497  54.323  1.00  0.00     0.157 HD
ENDROOT
BRANCH   1  11
HETATM   11  N2  UNL     1      22.461   3.061  51.900  1.00  0.00    -0.258 NA
HETATM   12  C5  UNL     1      22.196   4.314  51.789  1.00  0.00     0.228 C 
BRANCH  12  13
HETATM   13  N1  UNL     1      23.227   5.080  52.396  1.00  0.00    -0.258 NA
HETATM   14  C4  UNL     1      23.810   5.970  51.666  1.00  0.00     0.095 C 
BRANCH  14  15
HETATM   15  C2  UNL     1      23.524   6.290  50.248  1.00  0.00     0.018 C 
HETATM   16  C1  UNL     1      23.258   7.775  50.096  1.00  0.00     0.015 C 
HETATM   17  C3  UNL     1      24.581   5.773  49.328  1.00  0.00     0.015 C 
ENDBRANCH  14  15
ENDBRANCH  12  13
ENDBRANCH   1  11
BRANCH   3  18
HETATM   18  N3  UNL     1      26.340   2.437  53.297  1.00  0.00     0.083 N 
HETATM   19  H14 UNL     1      27.251   2.918  53.304  1.00  0.00     0.313 HD
HETATM   20  H15 UNL     1      26.175   1.739  54.025  1.00  0.00     0.313 HD
ENDBRANCH   3  18
BRANCH   5  21
HETATM   21  C11 UNL     1      27.095  -1.204  53.136  1.00  0.00     0.025 C 
HETATM   22  C12 UNL     1      27.515  -2.355  52.621  1.00  0.00     0.078 C 
BRANCH  22  23
HETATM   23  N4  UNL     1      28.522  -3.177  53.200  1.00  0.00    -0.408 N 
HETATM   24  H21 UNL     1      29.534  -2.957  53.351  1.00  0.00     0.155 HD
HETATM   25  H22 UNL     1      28.812  -4.089  53.645  1.00  0.00     0.155 HD
ENDBRANCH  22  23
ENDBRANCH   5  21
TORSDOF 6
ENDMDL
MODEL 3
REMARK VINA RESULT:      -6.1      3.421      6.404
REMARK  6 active torsions:
REMARK  status: ('A' for Active; 'I' for Inactive)
REMARK    1  A    between atoms: C2_2  and  C4_4 
REMARK    2  A    between atoms: N1_5  and  C5_6 
REMARK    3  A    between atoms: N2_7  and  C6_8 
REMARK    4  A    between atoms: C8_10  and  N3_11 
REMARK    5  A    between atoms: C10_13  and  C11_14 
REMARK    6  A    between atoms: C12_15  and  N4_16 
ROOT
HETATM    1  C6  UNL     1      25.378   3.588  50.873  1.00  0.00     0.205 C 
HETATM    2  C7  UNL     1      26.409   2.526  51.064  1.00  0.00     0.083 C 
HETATM    3  C8  UNL     1      26.571   2.007  52.450  1.00  0.00     0.224 C 
HETATM    4  C9  UNL     1      26.212   0.536  52.600  1.00  0.00     0.075 C 
HETATM    5  C10 UNL     1      24.755   0.245  52.557  1.00  0.00     0.250 C 
HETATM    6  N5  UNL     1      23.911   1.386  52.391  1.00  0.00     0.109 N 
HETATM    7  C13 UNL     1      22.680   1.321  53.134  1.00  0.00     0.312 C 
HETATM    8  C14 UNL     1      23.744   1.788  51.015  1.00  0.00     0.392 C 
HETATM    9  N6  UNL     1      24.027   3.172  50.907  1.00  0.00    -0.376 N 
HETATM   10  H28 UNL     1      23.399   3.722  51.515  1.00  0.00     0.157 HD
ENDROOT
BRANCH   1  11
HETATM   11  N2  UNL     1      25.621   4.184  49.570  1.00  0.00    -0.258 NA
HETATM   12  C5  UNL     1      25.443   5.425  49.290  1.00  0.00     0.228 C 
BRANCH  12  13
HETATM   13  N1  UNL     1      24.977   6.118  50.439  1.00  0.00    -0.258 NA
HETATM   14  C4  UNL     1      25.235   7.379  50.515  1.00  0.00     0.095 C 
BRANCH  14  15
HETATM   15  C2  UNL     1      25.972   8.202  49.527  1.00  0.00     0.018 C 
HETATM   16  C1  UNL     1      25.008   9.106  48.784  1.00  0.00     0.015 C 
HETATM   17  C3  UNL     1      27.122   8.929  50.144  1.00  0.00     0.015 C 
ENDBRANCH  14  15
ENDBRANCH  12  13
ENDBRANCH   1  11
BRANCH   3  18
HETATM   18  N3  UNL     1      26.005   2.816  53.491  1.00  0.00     0.083 N 
HETATM   19  H14 UNL     1      24.981   2.708  53.450  1.00  0.00     0.313 HD
HETATM   20  H15 UNL     1      26.371   3.763  53.600  1.00  0.00     0.313 HD
ENDBRANCH   3  18
BRANCH   5  21
HETATM   21  C11 UNL     1      24.289  -0.474  53.781  1.00  0.00     0.025 C 
HETATM   22  C12 UNL     1      25.165  -0.796  54.726  1.00  0.00     0.078 C 
BRANCH  22  23
HETATM   23  N4  UNL     1      24.836  -1.479  55.931  1.00  0.00    -0.408 N 
HETATM   24  H21 UNL     1      24.432  -2.438  56.045  1.00  0.00     0.155 HD
HETATM   25  H22 UNL     1      24.788  -1.500  56.985  1.00  0.00     0.155 HD
ENDBRANCH  22  23
ENDBRANCH   5  21
TORSDOF 6
ENDMDL
MODEL 4
REMARK VINA RESULT:      -6.1      3.570      7.240
REMARK  6 active torsions:
REMARK  status: ('A' for Active; 'I' for Inactive)
REMARK    1  A    between atoms: C2_2  and  C4_4 
REMARK    2  A    between atoms: N1_5  and  C5_6 
REMARK    3  A    between atoms: N2_7  and  C6_8 
REMARK    4  A    between atoms: C8_10  and  N3_11 
REMARK    5  A    between atoms: C10_13  and  C11_14 
REMARK    6  A    between atoms: C12_15  and  N4_16 
ROOT
HETATM    1  C6  UNL     1      25.850   3.243  50.768  1.00  0.00     0.205 C 
HETATM    2  C7  UNL     1      26.213   1.977  51.472  1.00  0.00     0.083 C 
HETATM    3  C8  UNL     1      25.667   1.809  52.848  1.00  0.00     0.224 C 
HETATM    4  C9  UNL     1      24.700   0.643  52.984  1.00  0.00     0.075 C 
HETATM    5  C10 UNL     1      23.363   0.869  52.376  1.00  0.00     0.250 C 
HETATM    6  N5  UNL     1      23.182   2.148  51.764  1.00  0.00     0.109 N 
HETATM    7  C13 UNL     1      21.866   2.703  51.938  1.00  0.00     0.312 C 
HETATM    8  C14 UNL     1      23.671   2.216  50.408  1.00  0.00     0.392 C 
HETATM    9  N6  UNL     1      24.524   3.340  50.286  1.00  0.00    -0.376 N 
HETATM   10  H28 UNL     1      24.019   4.209  50.523  1.00  0.00     0.157 HD
ENDROOT
BRANCH   1  11
HETATM   11  N2  UNL     1      26.742   3.363  49.628  1.00  0.00    -0.258 NA
HETATM   12  C5  UNL     1      27.006   4.464  49.019  1.00  0.00     0.228 C 
BRANCH  12  13
HETATM   13  N1  UNL     1      26.298   5.534  49.629  1.00  0.00    -0.258 NA
HETATM   14  C4  UNL     1      26.464   6.712  49.130  1.00  0.00     0.095 C 
BRANCH  14  15
HETATM   15  C2  UNL     1      27.319   7.084  47.979  1.00  0.00     0.018 C 
HETATM   16  C1  UNL     1      26.538   7.955  47.014  1.00  0.00     0.015 C 
HETATM   17  C3  UNL     1      28.619   7.681  48.410  1.00  0.00     0.015 C 
ENDBRANCH  14  15
ENDBRANCH  12  13
ENDBRANCH   1  11
BRANCH   3  18
HETATM   18  N3  UNL     1      25.177   3.001  53.476  1.00  0.00     0.083 N 
HETATM   19  H14 UNL     1      25.952   3.415  54.013  1.00  0.00     0.313 HD
HETATM   20  H15 UNL     1      24.266   2.948  53.936  1.00  0.00     0.313 HD
ENDBRANCH   3  18
BRANCH   5  21
HETATM   21  C11 UNL     1      22.258   0.695  53.366  1.00  0.00     0.025 C 
HETATM   22  C12 UNL     1      22.020  -0.508  53.878  1.00  0.00     0.078 C 
BRANCH  22  23
HETATM   23  N4  UNL     1      20.996  -0.792  54.826  1.00  0.00    -0.408 N 
HETATM   24  H21 UNL     1      20.132  -1.368  54.696  1.00  0.00     0.155 HD
HETATM   25  H22 UNL     1      20.596  -0.687  55.796  1.00  0.00     0.155 HD
ENDBRANCH  22  23
ENDBRANCH   5  21
TORSDOF 6
ENDMDL
MODEL 5
REMARK VINA RESULT:      -6.0      3.869      7.181
REMARK  6 active torsions:
REMARK  status: ('A' for Active; 'I' for Inactive)
REMARK    1  A    between atoms: C2_2  and  C4_4 
REMARK    2  A    between atoms: N1_5  and  C5_6 
REMARK    3  A    between atoms: N2_7  and  C6_8 
REMARK    4  A    between atoms: C8_10  and  N3_11 
REMARK    5  A    between atoms: C10_13  and  C11_14 
REMARK    6  A    between atoms: C12_15  and  N4_16 
ROOT
HETATM    1  C6  UNL     1      25.256   3.356  51.438  1.00  0.00     0.205 C 
HETATM    2  C7  UNL     1      23.775   3.467  51.292  1.00  0.00     0.083 C 
HETATM    3  C8  UNL     1      23.151   4.709  51.828  1.00  0.00     0.224 C 
HETATM    4  C9  UNL     1      22.498   5.575  50.762  1.00  0.00     0.075 C 
HETATM    5  C10 UNL     1      23.449   6.313  49.890  1.00  0.00     0.250 C 
HETATM    6  N5  UNL     1      24.831   6.106  50.188  1.00  0.00     0.109 N 
HETATM    7  C13 UNL     1      25.649   7.280  50.031  1.00  0.00     0.312 C 
HETATM    8  C14 UNL     1      25.385   4.921  49.577  1.00  0.00     0.392 C 
HETATM    9  N6  UNL     1      26.039   4.157  50.575  1.00  0.00    -0.376 N 
HETATM   10  H28 UNL     1      26.789   4.707  51.024  1.00  0.00     0.157 HD
ENDROOT
BRANCH   1  11
HETATM   11  N2  UNL     1      25.603   1.969  51.185  1.00  0.00    -0.258 NA
HETATM   12  C5  UNL     1      26.684   1.400  51.585  1.00  0.00     0.228 C 
BRANCH  12  13
HETATM   13  N1  UNL     1      27.479   2.331  52.307  1.00  0.00    -0.258 NA
HETATM   14  C4  UNL     1      28.254   1.859  53.225  1.00  0.00     0.095 C 
BRANCH  14  15
HETATM   15  C2  UNL     1      28.413   0.440  53.619  1.00  0.00     0.018 C 
HETATM   16  C1  UNL     1      29.874   0.043  53.544  1.00  0.00     0.015 C 
HETATM   17  C3  UNL     1      27.777   0.145  54.938  1.00  0.00     0.015 C 
ENDBRANCH  14  15
ENDBRANCH  12  13
ENDBRANCH   1  11
BRANCH   3  18
HETATM   18  N3  UNL     1      23.959   5.474  52.733  1.00  0.00     0.083 N 
HETATM   19  H14 UNL     1      24.805   5.769  52.225  1.00  0.00     0.313 HD
HETATM   20  H15 UNL     1      24.085   5.104  53.676  1.00  0.00     0.313 HD
ENDBRANCH   3  18
BRANCH   5  21
HETATM   21  C11 UNL     1      23.208   7.786  49.915  1.00  0.00     0.025 C 
HETATM   22  C12 UNL     1      22.256   8.309  49.149  1.00  0.00     0.078 C 
BRANCH  22  23
HETATM   23  N4  UNL     1      21.938   9.695  49.091  1.00  0.00    -0.408 N 
HETATM   24  H21 UNL     1      21.149  10.202  49.556  1.00  0.00     0.155 HD
HETATM   25  H22 UNL     1      22.151  10.666  48.737  1.00  0.00     0.155 HD
ENDBRANCH  22  23
ENDBRANCH   5  21
TORSDOF 6
ENDMDL
MODEL 6
REMARK VINA RESULT:      -5.9      2.560      6.381
REMARK  6 active torsions:
REMARK  status: ('A' for Active; 'I' for Inactive)
REMARK    1  A    between atoms: C2_2  and  C4_4 
REMARK    2  A    between atoms: N1_5  and  C5_6 
REMARK    3  A    between atoms: N2_7  and  C6_8 
REMARK    4  A    between atoms: C8_10  and  N3_11 
REMARK    5  A    between atoms: C10_13  and  C11_14 
REMARK    6  A    between atoms: C12_15  and  N4_16 
ROOT
HETATM    1  C6  UNL     1      24.068   0.852  52.682  1.00  0.00     0.205 C 
HETATM    2  C7  UNL     1      24.362   2.224  53.193  1.00  0.00     0.083 C 
HETATM    3  C8  UNL     1      24.310   3.325  52.191  1.00  0.00     0.224 C 
HETATM    4  C9  UNL     1      23.217   4.348  52.461  1.00  0.00     0.075 C 
HETATM    5  C10 UNL     1      21.839   3.879  52.161  1.00  0.00     0.250 C 
HETATM    6  N5  UNL     1      21.747   2.545  51.657  1.00  0.00     0.109 N 
HETATM    7  C13 UNL     1      20.736   2.365  50.649  1.00  0.00     0.312 C 
HETATM    8  C14 UNL     1      21.731   1.536  52.689  1.00  0.00     0.392 C 
HETATM    9  N6  UNL     1      22.716   0.562  52.389  1.00  0.00    -0.376 N 
HETATM   10  H28 UNL     1      22.535   0.130  51.469  1.00  0.00     0.157 HD
ENDROOT
BRANCH   1  11
HETATM   11  N2  UNL     1      24.506  -0.082  53.705  1.00  0.00    -0.258 NA
HETATM   12  C5  UNL     1      25.605  -0.747  53.665  1.00  0.00     0.228 C 
BRANCH  12  13
HETATM   13  N1  UNL     1      26.318  -0.430  52.478  1.00  0.00    -0.258 NA
HETATM   14  C4  UNL     1      27.594  -0.274  52.579  1.00  0.00     0.095 C 
BRANCH  14  15
HETATM   15  C2  UNL     1      28.415  -0.390  53.806  1.00  0.00     0.018 C 
HETATM   16  C1  UNL     1      29.557  -1.361  53.576  1.00  0.00     0.015 C 
HETATM   17  C3  UNL     1      28.855   0.942  54.320  1.00  0.00     0.015 C 
ENDBRANCH  14  15
ENDBRANCH  12  13
ENDBRANCH   1  11
BRANCH   3  18
HETATM   18  N3  UNL     1      24.352   2.921  50.816  1.00  0.00     0.083 N 
HETATM   19  H14 UNL     1      25.197   2.346  50.683  1.00  0.00     0.313 HD
HETATM   20  H15 UNL     1      24.157   3.634  50.111  1.00  0.00     0.313 HD
ENDBRANCH   3  18
BRANCH   5  21
HETATM   21  C11 UNL     1      21.142   4.768  51.183  1.00  0.00     0.025 C 
HETATM   22  C12 UNL     1      21.548   6.025  51.034  1.00  0.00     0.078 C 
BRANCH  22  23
HETATM   23  N4  UNL     1      20.961   6.960  50.136  1.00  0.00    -0.408 N 
HETATM   24  H21 UNL     1      20.635   7.935  50.334  1.00  0.00     0.155 HD
HETATM   25  H22 UNL     1      20.623   7.207  49.168  1.00  0.00     0.155 HD
ENDBRANCH  22  23
ENDBRANCH   5  21
TORSDOF 6
ENDMDL
MODEL 7
REMARK VINA RESULT:      -5.8      7.166      9.029
REMARK  6 active torsions:
REMARK  status: ('A' for Active; 'I' for Inactive)
REMARK    1  A    between atoms: C2_2  and  C4_4 
REMARK    2  A    between atoms: N1_5  and  C5_6 
REMARK    3  A    between atoms: N2_7  and  C6_8 
REMARK    4  A    between atoms: C8_10  and  N3_11 
REMARK    5  A    between atoms: C10_13  and  C11_14 
REMARK    6  A    between atoms: C12_15  and  N4_16 
ROOT
HETATM    1  C6  UNL     1      28.043   7.651  48.450  1.00  0.00     0.205 C 
HETATM    2  C7  UNL     1      28.777   8.739  47.739  1.00  0.00     0.083 C 
HETATM    3  C8  UNL     1      29.862   9.411  48.507  1.00  0.00     0.224 C 
HETATM    4  C9  UNL     1      31.248   9.209  47.913  1.00  0.00     0.075 C 
HETATM    5  C10 UNL     1      31.818   7.851  48.111  1.00  0.00     0.250 C 
HETATM    6  N5  UNL     1      30.985   6.942  48.835  1.00  0.00     0.109 N 
HETATM    7  C13 UNL     1      31.703   6.061  49.718  1.00  0.00     0.312 C 
HETATM    8  C14 UNL     1      30.004   6.275  48.013  1.00  0.00     0.392 C 
HETATM    9  N6  UNL     1      28.729   6.425  48.613  1.00  0.00    -0.376 N 
HETATM   10  H28 UNL     1      28.723   6.026  49.565  1.00  0.00     0.157 HD
ENDROOT
BRANCH   1  11
HETATM   11  N2  UNL     1      26.839   7.383  47.683  1.00  0.00    -0.258 NA
HETATM   12  C5  UNL     1      25.724   6.990  48.186  1.00  0.00     0.228 C 
BRANCH  12  13
HETATM   13  N1  UNL     1      25.849   6.860  49.596  1.00  0.00    -0.258 NA
HETATM   14  C4  UNL     1      25.673   5.685  50.099  1.00  0.00     0.095 C 
BRANCH  14  15
HETATM   15  C2  UNL     1      25.351   4.438  49.367  1.00  0.00     0.018 C 
HETATM   16  C1  UNL     1      26.507   3.463  49.472  1.00  0.00     0.015 C 
HETATM   17  C3  UNL     1      24.039   3.860  49.786  1.00  0.00     0.015 C 
ENDBRANCH  14  15
ENDBRANCH  12  13
ENDBRANCH   1  11
BRANCH   3  18
HETATM   18  N3  UNL     1      29.842   9.209  49.926  1.00  0.00     0.083 N 
HETATM   19  H14 UNL     1      29.563   8.233  50.101  1.00  0.00     0.313 HD
HETATM   20  H15 UNL     1      29.398   9.931  50.497  1.00  0.00     0.313 HD
ENDBRANCH   3  18
BRANCH   5  21
HETATM   21  C11 UNL     1      33.137   7.889  48.809  1.00  0.00     0.025 C 
HETATM   22  C12 UNL     1      34.244   8.115  48.108  1.00  0.00     0.078 C 
BRANCH  22  23
HETATM   23  N4  UNL     1      35.553   8.174  48.664  1.00  0.00    -0.408 N 
HETATM   24  H21 UNL     1      36.428   7.718  48.315  1.00  0.00     0.155 HD
HETATM   25  H22 UNL     1      36.213   8.523  49.409  1.00  0.00     0.155 HD
ENDBRANCH  22  23
ENDBRANCH   5  21
TORSDOF 6
ENDMDL
MODEL 8
REMARK VINA RESULT:      -5.8      3.983      4.984
REMARK  6 active torsions:
REMARK  status: ('A' for Active; 'I' for Inactive)
REMARK    1  A    between atoms: C2_2  and  C4_4 
REMARK    2  A    between atoms: N1_5  and  C5_6 
REMARK    3  A    between atoms: N2_7  and  C6_8 
REMARK    4  A    between atoms: C8_10  and  N3_11 
REMARK    5  A    between atoms: C10_13  and  C11_14 
REMARK    6  A    between atoms: C12_15  and  N4_16 
ROOT
HETATM    1  C6  UNL     1      21.631   4.671  50.965  1.00  0.00     0.205 C 
HETATM    2  C7  UNL     1      21.874   6.078  50.529  1.00  0.00     0.083 C 
HETATM    3  C8  UNL     1      23.177   6.677  50.931  1.00  0.00     0.224 C 
HETATM    4  C9  UNL     1      24.080   7.024  49.756  1.00  0.00     0.075 C 
HETATM    5  C10 UNL     1      24.711   5.855  49.091  1.00  0.00     0.250 C 
HETATM    6  N5  UNL     1      24.385   4.583  49.657  1.00  0.00     0.109 N 
HETATM    7  C13 UNL     1      25.477   3.645  49.666  1.00  0.00     0.312 C 
HETATM    8  C14 UNL     1      23.144   4.032  49.167  1.00  0.00     0.392 C 
HETATM    9  N6  UNL     1      22.342   3.662  50.275  1.00  0.00    -0.376 N 
HETATM   10  H28 UNL     1      22.829   2.968  50.863  1.00  0.00     0.157 HD
ENDROOT
BRANCH   1  11
HETATM   11  N2  UNL     1      20.213   4.411  50.786  1.00  0.00    -0.258 NA
HETATM   12  C5  UNL     1      19.493   3.705  51.581  1.00  0.00     0.228 C 
BRANCH  12  13
HETATM   13  N1  UNL     1      20.290   3.222  52.654  1.00  0.00    -0.258 NA
HETATM   14  C4  UNL     1      20.467   1.947  52.731  1.00  0.00     0.095 C 
BRANCH  14  15
HETATM   15  C2  UNL     1      19.928   0.912  51.818  1.00  0.00     0.018 C 
HETATM   16  C1  UNL     1      21.042   0.351  50.956  1.00  0.00     0.015 C 
HETATM   17  C3  UNL     1      19.148  -0.133  52.546  1.00  0.00     0.015 C 
ENDBRANCH  14  15
ENDBRANCH  12  13
ENDBRANCH   1  11
BRANCH   3  18
HETATM   18  N3  UNL     1      23.881   5.996  51.978  1.00  0.00     0.083 N 
HETATM   19  H14 UNL     1      23.586   5.009  51.965  1.00  0.00     0.313 HD
HETATM   20  H15 UNL     1      23.929   6.457  52.888  1.00  0.00     0.313 HD
ENDBRANCH   3  18
BRANCH   5  21
HETATM   21  C11 UNL     1      26.201   5.957  49.068  1.00  0.00     0.025 C 
HETATM   22  C12 UNL     1      26.778   7.153  49.138  1.00  0.00     0.078 C 
BRANCH  22  23
HETATM   23  N4  UNL     1      28.184   7.371  49.124  1.00  0.00    -0.408 N 
HETATM   24  H21 UNL     1      28.705   8.267  49.278  1.00  0.00     0.155 HD
HETATM   25  H22 UNL     1      29.165   6.998  49.013  1.00  0.00     0.155 HD
ENDBRANCH  22  23
ENDBRANCH   5  21
TORSDOF 6
ENDMDL
MODEL 9
REMARK VINA RESULT:      -5.8      3.419      7.245
REMARK  6 active torsions:
REMARK  status: ('A' for Active; 'I' for Inactive)
REMARK    1  A    between atoms: C2_2  and  C4_4 
REMARK    2  A    between atoms: N1_5  and  C5_6 
REMARK    3  A    between atoms: N2_7  and  C6_8 
REMARK    4  A    between atoms: C8_10  and  N3_11 
REMARK    5  A    between atoms: C10_13  and  C11_14 
REMARK    6  A    between atoms: C12_15  and  N4_16 
ROOT
HETATM    1  C6  UNL     1      24.128   4.168  50.861  1.00  0.00     0.205 C 
HETATM    2  C7  UNL     1      22.650   4.139  51.073  1.00  0.00     0.083 C 
HETATM    3  C8  UNL     1      21.973   2.837  50.819  1.00  0.00     0.224 C 
HETATM    4  C9  UNL     1      21.337   2.226  52.058  1.00  0.00     0.075 C 
HETATM    5  C10 UNL     1      22.300   1.646  53.031  1.00  0.00     0.250 C 
HETATM    6  N5  UNL     1      23.676   1.741  52.654  1.00  0.00     0.109 N 
HETATM    7  C13 UNL     1      24.466   0.596  53.019  1.00  0.00     0.312 C 
HETATM    8  C14 UNL     1      24.284   3.005  52.995  1.00  0.00     0.392 C 
HETATM    9  N6  UNL     1      24.920   3.530  51.844  1.00  0.00    -0.376 N 
HETATM   10  H28 UNL     1      25.637   2.876  51.492  1.00  0.00     0.157 HD
ENDROOT
BRANCH   1  11
HETATM   11  N2  UNL     1      24.522   5.565  50.818  1.00  0.00    -0.258 NA
HETATM   12  C5  UNL     1      25.473   6.034  50.093  1.00  0.00     0.228 C 
BRANCH  12  13
HETATM   13  N1  UNL     1      26.074   4.985  49.347  1.00  0.00    -0.258 NA
HETATM   14  C4  UNL     1      27.096   5.286  48.620  1.00  0.00     0.095 C 
BRANCH  14  15
HETATM   15  C2  UNL     1      27.725   6.619  48.470  1.00  0.00     0.018 C 
HETATM   16  C1  UNL     1      29.217   6.465  48.250  1.00  0.00     0.015 C 
HETATM   17  C3  UNL     1      27.047   7.450  47.431  1.00  0.00     0.015 C 
ENDBRANCH  14  15
ENDBRANCH  12  13
ENDBRANCH   1  11
BRANCH   3  18
HETATM   18  N3  UNL     1      22.725   1.878  50.063  1.00  0.00     0.083 N 
HETATM   19  H14 UNL     1      23.521   2.372  49.633  1.00  0.00     0.313 HD
HETATM   20  H15 UNL     1      22.201   1.233  49.470  1.00  0.00     0.313 HD
ENDBRANCH   3  18
BRANCH   5  21
HETATM   21  C11 UNL     1      22.019   0.207  53.312  1.00  0.00     0.025 C 
HETATM   22  C12 UNL     1      21.058  -0.118  54.171  1.00  0.00     0.078 C 
BRANCH  22  23
HETATM   23  N4  UNL     1      20.703  -1.453  54.515  1.00  0.00    -0.408 N 
HETATM   24  H21 UNL     1      19.758  -1.904  54.483  1.00  0.00     0.155 HD
HETATM   25  H22 UNL     1      20.980  -2.412  54.858  1.00  0.00     0.155 HD
ENDBRANCH  22  23
ENDBRANCH   5  21
TORSDOF 6
ENDMDL
