MODEL 1
REMARK VINA RESULT:      -8.6      0.000      0.000
REMARK  4 active torsions:
REMARK  status: ('A' for Active; 'I' for Inactive)
REMARK    1  A    between atoms: C10_14  and  N4_15 
REMARK    2  A    between atoms: N4_15  and  C11_16 
REMARK    3  A    between atoms: C11_16  and  C12_17 
REMARK    4  A    between atoms: C12_17  and  C13_18 
ROOT
HETATM    1  C1  UNL     1      21.648   7.221  45.146  1.00  0.00     0.143 C 
HETATM    2  N1  UNL     1      21.786   6.926  46.529  1.00  0.00    -0.413 N 
HETATM    3  C2  UNL     1      20.638   6.544  47.244  1.00  0.00     0.136 C 
HETATM    4  C3  UNL     1      20.821   5.120  47.789  1.00  0.00     0.142 C 
HETATM    5  N2  UNL     1      21.928   5.285  48.744  1.00  0.00    -0.376 N 
HETATM    6  C4  UNL     1      21.602   5.158  50.121  1.00  0.00     0.007 C 
HETATM    7  C5  UNL     1      21.935   5.993  51.091  1.00  0.00     0.017 C 
HETATM    8  C6  UNL     1      22.771   5.493  52.250  1.00  0.00     0.149 C 
HETATM    9  N3  UNL     1      22.702   4.048  52.370  1.00  0.00    -0.371 N 
HETATM   10  C7  UNL     1      21.241   3.785  52.171  1.00  0.00     0.126 C 
HETATM   11  C8  UNL     1      20.821   4.069  50.753  1.00  0.00     0.076 C 
HETATM   12  C9  UNL     1      24.037   3.566  52.612  1.00  0.00     0.229 A 
HETATM   13  O1  UNL     1      23.358   2.530  52.649  1.00  0.00    -0.328 OA
HETATM   14  C10 UNL     1      24.956   2.419  52.878  1.00  0.00     0.239 A 
HETATM   15  C19 UNL     1      25.818   2.131  51.712  1.00  0.00     0.038 C 
HETATM   16  C20 UNL     1      26.104   3.029  50.808  1.00  0.00     0.091 C 
HETATM   17  N5  UNL     1      25.721   4.392  50.689  1.00  0.00    -0.337 N 
HETATM   18  C21 UNL     1      24.905   4.920  49.691  1.00  0.00     0.223 C 
HETATM   19  O2  UNL     1      24.666   3.881  49.053  1.00  0.00    -0.273 OA
HETATM   20  C22 UNL     1      24.218   6.069  49.058  1.00  0.00     0.130 C 
HETATM   21  C23 UNL     1      23.182   5.559  48.063  1.00  0.00     0.110 C 
HETATM   22  C24 UNL     1      23.059   6.565  46.981  1.00  0.00     0.142 C 
HETATM   23  H28 UNL     1      25.942   5.240  51.269  1.00  0.00     0.168 HD
ENDROOT
BRANCH  14  24
HETATM   24  N4  UNL     1      24.164   1.231  53.109  1.00  0.00    -0.295 N 
HETATM   25  H16 UNL     1      23.956   1.102  54.140  1.00  0.00     0.124 HD
BRANCH  24  26
HETATM   26  C11 UNL     1      24.840  -0.000  52.728  1.00  0.00     0.094 C 
BRANCH  26  27
HETATM   27  C12 UNL     1      25.431  -0.729  53.913  1.00  0.00     0.053 C 
BRANCH  27  28
HETATM   28  C13 UNL     1      26.934  -0.633  53.892  1.00  0.00    -0.057 A 
HETATM   29  C14 UNL     1      27.593   0.344  54.622  1.00  0.00     0.007 A 
HETATM   30  C15 UNL     1      28.967   0.469  54.631  1.00  0.00     0.001 A 
HETATM   31  C16 UNL     1      29.699  -0.410  53.889  1.00  0.00     0.000 A 
HETATM   32  C17 UNL     1      29.080  -1.398  53.148  1.00  0.00     0.001 A 
HETATM   33  C18 UNL     1      27.688  -1.529  53.134  1.00  0.00     0.007 A 
ENDBRANCH  27  28
ENDBRANCH  26  27
ENDBRANCH  24  26
ENDBRANCH  14  24
TORSDOF 4
ENDMDL
MODEL 2
REMARK VINA RESULT:      -8.6      2.969      4.950
REMARK  4 active torsions:
REMARK  status: ('A' for Active; 'I' for Inactive)
REMARK    1  A    between atoms: C10_14  and  N4_15 
REMARK    2  A    between atoms: N4_15  and  C11_16 
REMARK    3  A    between atoms: C11_16  and  C12_17 
REMARK    4  A    between atoms: C12_17  and  C13_18 
ROOT
HETATM    1  C1  UNL     1      14.864   2.286  51.835  1.00  0.00     0.143 C 
HETATM    2  N1  UNL     1      16.178   2.227  51.297  1.00  0.00    -0.413 N 
HETATM    3  C2  UNL     1      16.710   3.391  50.717  1.00  0.00     0.136 C 
HETATM    4  C3  UNL     1      17.960   3.828  51.495  1.00  0.00     0.142 C 
HETATM    5  N2  UNL     1      18.893   2.718  51.246  1.00  0.00    -0.376 N 
HETATM    6  C4  UNL     1      20.009   3.002  50.414  1.00  0.00     0.007 C 
HETATM    7  C5  UNL     1      20.422   2.291  49.378  1.00  0.00     0.017 C 
HETATM    8  C6  UNL     1      21.819   1.707  49.385  1.00  0.00     0.149 C 
HETATM    9  N3  UNL     1      22.679   2.400  50.328  1.00  0.00    -0.371 N 
HETATM   10  C7  UNL     1      22.335   3.835  50.072  1.00  0.00     0.126 C 
HETATM   11  C8  UNL     1      20.935   4.152  50.530  1.00  0.00     0.076 C 
HETATM   12  C9  UNL     1      23.431   1.403  51.045  1.00  0.00     0.229 A 
HETATM   13  O1  UNL     1      23.869   2.467  51.508  1.00  0.00    -0.328 OA
HETATM   14  C10 UNL     1      24.469   1.072  52.067  1.00  0.00     0.239 A 
HETATM   15  C19 UNL     1      23.868   0.480  53.281  1.00  0.00     0.038 C 
HETATM   16  C20 UNL     1      22.713  -0.129  53.270  1.00  0.00     0.091 C 
HETATM   17  N5  UNL     1      21.797  -0.380  52.213  1.00  0.00    -0.337 N 
HETATM   18  C21 UNL     1      20.520   0.165  52.100  1.00  0.00     0.223 C 
HETATM   19  O2  UNL     1      20.508   0.866  53.125  1.00  0.00    -0.273 OA
HETATM   20  C22 UNL     1      19.235   0.305  51.377  1.00  0.00     0.130 C 
HETATM   21  C23 UNL     1      18.470   1.505  51.925  1.00  0.00     0.110 C 
HETATM   22  C24 UNL     1      17.022   1.224  51.782  1.00  0.00     0.142 C 
HETATM   23  H28 UNL     1      21.861  -0.978  51.351  1.00  0.00     0.168 HD
ENDROOT
BRANCH  14  24
HETATM   24  N4  UNL     1      25.121   2.294  52.483  1.00  0.00    -0.295 N 
HETATM   25  H16 UNL     1      25.741   2.680  51.716  1.00  0.00     0.124 HD
BRANCH  24  26
HETATM   26  C11 UNL     1      26.024   2.116  53.611  1.00  0.00     0.094 C 
BRANCH  26  27
HETATM   27  C12 UNL     1      27.478   2.195  53.209  1.00  0.00     0.053 C 
BRANCH  27  28
HETATM   28  C13 UNL     1      28.112   0.830  53.261  1.00  0.00    -0.057 A 
HETATM   29  C14 UNL     1      29.434   0.675  53.649  1.00  0.00     0.007 A 
HETATM   30  C15 UNL     1      30.053  -0.556  53.712  1.00  0.00     0.001 A 
HETATM   31  C16 UNL     1      29.328  -1.661  53.376  1.00  0.00     0.000 A 
HETATM   32  C17 UNL     1      28.009  -1.549  52.984  1.00  0.00     0.001 A 
HETATM   33  C18 UNL     1      27.375  -0.304  52.919  1.00  0.00     0.007 A 
ENDBRANCH  27  28
ENDBRANCH  26  27
ENDBRANCH  24  26
ENDBRANCH  14  24
TORSDOF 4
ENDMDL
MODEL 3
REMARK VINA RESULT:      -8.5      1.964      3.368
REMARK  4 active torsions:
REMARK  status: ('A' for Active; 'I' for Inactive)
REMARK    1  A    between atoms: C10_14  and  N4_15 
REMARK    2  A    between atoms: N4_15  and  C11_16 
REMARK    3  A    between atoms: C11_16  and  C12_17 
REMARK    4  A    between atoms: C12_17  and  C13_18 
ROOT
HETATM    1  C1  UNL     1      20.512  10.262  49.477  1.00  0.00     0.143 C 
HETATM    2  N1  UNL     1      21.059   8.976  49.216  1.00  0.00    -0.413 N 
HETATM    3  C2  UNL     1      22.391   8.898  48.775  1.00  0.00     0.136 C 
HETATM    4  C3  UNL     1      23.226   8.114  49.798  1.00  0.00     0.142 C 
HETATM    5  N2  UNL     1      22.635   6.769  49.726  1.00  0.00    -0.376 N 
HETATM    6  C4  UNL     1      23.438   5.753  49.143  1.00  0.00     0.007 C 
HETATM    7  C5  UNL     1      23.071   4.899  48.201  1.00  0.00     0.017 C 
HETATM    8  C6  UNL     1      23.123   3.412  48.483  1.00  0.00     0.149 C 
HETATM    9  N3  UNL     1      24.011   3.112  49.592  1.00  0.00    -0.371 N 
HETATM   10  C7  UNL     1      25.191   3.985  49.295  1.00  0.00     0.126 C 
HETATM   11  C8  UNL     1      24.851   5.442  49.464  1.00  0.00     0.076 C 
HETATM   12  C9  UNL     1      23.349   2.147  50.431  1.00  0.00     0.229 A 
HETATM   13  O1  UNL     1      24.446   2.295  50.991  1.00  0.00    -0.328 OA
HETATM   14  C10 UNL     1      23.377   1.266  51.638  1.00  0.00     0.239 A 
HETATM   15  C19 UNL     1      22.470   1.762  52.694  1.00  0.00     0.038 C 
HETATM   16  C20 UNL     1      21.441   2.525  52.438  1.00  0.00     0.091 C 
HETATM   17  N5  UNL     1      20.941   3.042  51.213  1.00  0.00    -0.337 N 
HETATM   18  C21 UNL     1      20.916   4.387  50.852  1.00  0.00     0.223 C 
HETATM   19  O2  UNL     1      21.440   4.879  51.864  1.00  0.00    -0.273 OA
HETATM   20  C22 UNL     1      20.582   5.459  49.886  1.00  0.00     0.130 C 
HETATM   21  C23 UNL     1      21.293   6.746  50.285  1.00  0.00     0.110 C 
HETATM   22  C24 UNL     1      20.453   7.886  49.847  1.00  0.00     0.142 C 
HETATM   23  H28 UNL     1      20.513   2.578  50.373  1.00  0.00     0.168 HD
ENDROOT
BRANCH  14  24
HETATM   24  N4  UNL     1      24.711   1.284  52.197  1.00  0.00    -0.295 N 
HETATM   25  H16 UNL     1      25.398   0.782  51.567  1.00  0.00     0.124 HD
BRANCH  24  26
HETATM   26  C11 UNL     1      24.816   0.581  53.467  1.00  0.00     0.094 C 
BRANCH  26  27
HETATM   27  C12 UNL     1      26.119   0.862  54.180  1.00  0.00     0.053 C 
BRANCH  27  28
HETATM   28  C13 UNL     1      27.158  -0.159  53.796  1.00  0.00    -0.057 A 
HETATM   29  C14 UNL     1      26.817  -1.269  53.040  1.00  0.00     0.007 A 
HETATM   30  C15 UNL     1      27.735  -2.228  52.665  1.00  0.00     0.001 A 
HETATM   31  C16 UNL     1      29.031  -2.069  53.062  1.00  0.00     0.000 A 
HETATM   32  C17 UNL     1      29.411  -0.977  53.816  1.00  0.00     0.001 A 
HETATM   33  C18 UNL     1      28.485  -0.002  54.198  1.00  0.00     0.007 A 
ENDBRANCH  27  28
ENDBRANCH  26  27
ENDBRANCH  24  26
ENDBRANCH  14  24
TORSDOF 4
ENDMDL
MODEL 4
REMARK VINA RESULT:      -8.4      1.680      2.351
REMARK  4 active torsions:
REMARK  status: ('A' for Active; 'I' for Inactive)
REMARK    1  A    between atoms: C10_14  and  N4_15 
REMARK    2  A    between atoms: N4_15  and  C11_16 
REMARK    3  A    between atoms: C11_16  and  C12_17 
REMARK    4  A    between atoms: C12_17  and  C13_18 
ROOT
HETATM    1  C1  UNL     1      21.066   8.598  46.064  1.00  0.00     0.143 C 
HETATM    2  N1  UNL     1      20.887   7.409  46.821  1.00  0.00    -0.413 N 
HETATM    3  C2  UNL     1      20.851   6.184  46.133  1.00  0.00     0.136 C 
HETATM    4  C3  UNL     1      22.016   5.298  46.600  1.00  0.00     0.142 C 
HETATM    5  N2  UNL     1      21.680   5.048  48.010  1.00  0.00    -0.376 N 
HETATM    6  C4  UNL     1      21.287   3.724  48.343  1.00  0.00     0.007 C 
HETATM    7  C5  UNL     1      20.222   3.369  49.043  1.00  0.00     0.017 C 
HETATM    8  C6  UNL     1      20.402   2.592  50.330  1.00  0.00     0.149 C 
HETATM    9  N3  UNL     1      21.698   1.940  50.380  1.00  0.00    -0.371 N 
HETATM   10  C7  UNL     1      21.821   1.377  48.998  1.00  0.00     0.126 C 
HETATM   11  C8  UNL     1      21.985   2.470  47.974  1.00  0.00     0.076 C 
HETATM   12  C9  UNL     1      22.237   2.143  51.700  1.00  0.00     0.229 A 
HETATM   13  O1  UNL     1      23.102   1.444  51.152  1.00  0.00    -0.328 OA
HETATM   14  C10 UNL     1      23.334   1.906  52.686  1.00  0.00     0.239 A 
HETATM   15  C19 UNL     1      24.111   3.137  52.943  1.00  0.00     0.038 C 
HETATM   16  C20 UNL     1      23.620   4.332  52.755  1.00  0.00     0.091 C 
HETATM   17  N5  UNL     1      22.341   4.759  52.304  1.00  0.00    -0.337 N 
HETATM   18  C21 UNL     1      22.084   5.421  51.107  1.00  0.00     0.223 C 
HETATM   19  O2  UNL     1      23.237   5.468  50.649  1.00  0.00    -0.273 OA
HETATM   20  C22 UNL     1      21.140   6.062  50.163  1.00  0.00     0.130 C 
HETATM   21  C23 UNL     1      21.819   6.252  48.811  1.00  0.00     0.110 C 
HETATM   22  C24 UNL     1      21.235   7.456  48.174  1.00  0.00     0.142 C 
HETATM   23  H28 UNL     1      21.383   4.682  52.728  1.00  0.00     0.168 HD
ENDROOT
BRANCH  14  24
HETATM   24  N4  UNL     1      24.259   0.942  52.131  1.00  0.00    -0.295 N 
HETATM   25  H16 UNL     1      23.770   0.033  51.894  1.00  0.00     0.124 HD
BRANCH  24  26
HETATM   26  C11 UNL     1      25.311   0.548  53.057  1.00  0.00     0.094 C 
BRANCH  26  27
HETATM   27  C12 UNL     1      25.860  -0.829  52.760  1.00  0.00     0.053 C 
BRANCH  27  28
HETATM   28  C13 UNL     1      27.328  -0.891  53.092  1.00  0.00    -0.057 A 
HETATM   29  C14 UNL     1      28.001   0.233  53.545  1.00  0.00     0.007 A 
HETATM   30  C15 UNL     1      29.344   0.221  53.860  1.00  0.00     0.001 A 
HETATM   31  C16 UNL     1      30.030  -0.949  53.718  1.00  0.00     0.000 A 
HETATM   32  C17 UNL     1      29.395  -2.091  53.271  1.00  0.00     0.001 A 
HETATM   33  C18 UNL     1      28.034  -2.085  52.949  1.00  0.00     0.007 A 
ENDBRANCH  27  28
ENDBRANCH  26  27
ENDBRANCH  24  26
ENDBRANCH  14  24
TORSDOF 4
ENDMDL
MODEL 5
REMARK VINA RESULT:      -8.4      1.194      1.344
REMARK  4 active torsions:
REMARK  status: ('A' for Active; 'I' for Inactive)
REMARK    1  A    between atoms: C10_14  and  N4_15 
REMARK    2  A    between atoms: N4_15  and  C11_16 
REMARK    3  A    between atoms: C11_16  and  C12_17 
REMARK    4  A    between atoms: C12_17  and  C13_18 
ROOT
HETATM    1  C1  UNL     1      20.475   5.323  44.554  1.00  0.00     0.143 C 
HETATM    2  N1  UNL     1      20.596   5.188  45.963  1.00  0.00    -0.413 N 
HETATM    3  C2  UNL     1      19.584   4.501  46.654  1.00  0.00     0.136 C 
HETATM    4  C3  UNL     1      20.177   3.258  47.335  1.00  0.00     0.142 C 
HETATM    5  N2  UNL     1      21.095   3.845  48.323  1.00  0.00    -0.376 N 
HETATM    6  C4  UNL     1      20.725   3.715  49.688  1.00  0.00     0.007 C 
HETATM    7  C5  UNL     1      20.696   4.679  50.593  1.00  0.00     0.017 C 
HETATM    8  C6  UNL     1      21.559   4.564  51.832  1.00  0.00     0.149 C 
HETATM    9  N3  UNL     1      21.952   3.188  52.079  1.00  0.00    -0.371 N 
HETATM   10  C7  UNL     1      20.675   2.446  51.835  1.00  0.00     0.126 C 
HETATM   11  C8  UNL     1      20.293   2.477  50.378  1.00  0.00     0.076 C 
HETATM   12  C9  UNL     1      23.349   3.191  52.428  1.00  0.00     0.229 A 
HETATM   13  O1  UNL     1      23.042   1.994  52.527  1.00  0.00    -0.328 OA
HETATM   14  C10 UNL     1      24.568   2.431  52.841  1.00  0.00     0.239 A 
HETATM   15  C19 UNL     1      25.562   2.362  51.750  1.00  0.00     0.038 C 
HETATM   16  C20 UNL     1      25.609   3.237  50.782  1.00  0.00     0.091 C 
HETATM   17  N5  UNL     1      24.815   4.387  50.521  1.00  0.00    -0.337 N 
HETATM   18  C21 UNL     1      23.950   4.546  49.441  1.00  0.00     0.223 C 
HETATM   19  O2  UNL     1      24.109   3.445  48.890  1.00  0.00    -0.273 OA
HETATM   20  C22 UNL     1      22.978   5.358  48.674  1.00  0.00     0.130 C 
HETATM   21  C23 UNL     1      22.241   4.468  47.680  1.00  0.00     0.110 C 
HETATM   22  C24 UNL     1      21.880   5.298  46.507  1.00  0.00     0.142 C 
HETATM   23  H28 UNL     1      24.705   5.299  51.031  1.00  0.00     0.168 HD
ENDROOT
BRANCH  14  24
HETATM   24  N4  UNL     1      24.187   1.068  53.141  1.00  0.00    -0.295 N 
HETATM   25  H16 UNL     1      23.324   1.036  53.754  1.00  0.00     0.124 HD
BRANCH  24  26
HETATM   26  C11 UNL     1      25.190   0.341  53.906  1.00  0.00     0.094 C 
BRANCH  26  27
HETATM   27  C12 UNL     1      25.759  -0.836  53.148  1.00  0.00     0.053 C 
BRANCH  27  28
HETATM   28  C13 UNL     1      27.258  -0.879  53.294  1.00  0.00    -0.057 A 
HETATM   29  C14 UNL     1      27.961   0.234  53.725  1.00  0.00     0.007 A 
HETATM   30  C15 UNL     1      29.333   0.239  53.873  1.00  0.00     0.001 A 
HETATM   31  C16 UNL     1      30.017  -0.904  53.581  1.00  0.00     0.000 A 
HETATM   32  C17 UNL     1      29.352  -2.035  53.149  1.00  0.00     0.001 A 
HETATM   33  C18 UNL     1      27.962  -2.046  52.997  1.00  0.00     0.007 A 
ENDBRANCH  27  28
ENDBRANCH  26  27
ENDBRANCH  24  26
ENDBRANCH  14  24
TORSDOF 4
ENDMDL
MODEL 6
REMARK VINA RESULT:      -8.2      3.035      4.585
REMARK  4 active torsions:
REMARK  status: ('A' for Active; 'I' for Inactive)
REMARK    1  A    between atoms: C10_14  and  N4_15 
REMARK    2  A    between atoms: N4_15  and  C11_16 
REMARK    3  A    between atoms: C11_16  and  C12_17 
REMARK    4  A    between atoms: C12_17  and  C13_18 
ROOT
HETATM    1  C1  UNL     1      15.019   4.646  49.212  1.00  0.00     0.143 C 
HETATM    2  N1  UNL     1      16.281   4.005  49.083  1.00  0.00    -0.413 N 
HETATM    3  C2  UNL     1      17.317   4.704  48.441  1.00  0.00     0.136 C 
HETATM    4  C3  UNL     1      18.478   4.920  49.424  1.00  0.00     0.142 C 
HETATM    5  N2  UNL     1      18.936   3.546  49.682  1.00  0.00    -0.376 N 
HETATM    6  C4  UNL     1      20.204   3.189  49.150  1.00  0.00     0.007 C 
HETATM    7  C5  UNL     1      20.487   2.108  48.443  1.00  0.00     0.017 C 
HETATM    8  C6  UNL     1      21.523   1.131  48.958  1.00  0.00     0.149 C 
HETATM    9  N3  UNL     1      22.400   1.754  49.934  1.00  0.00    -0.371 N 
HETATM   10  C7  UNL     1      22.691   3.078  49.297  1.00  0.00     0.126 C 
HETATM   11  C8  UNL     1      21.467   3.954  49.273  1.00  0.00     0.076 C 
HETATM   12  C9  UNL     1      22.565   0.827  51.024  1.00  0.00     0.229 A 
HETATM   13  O1  UNL     1      23.290   1.777  51.355  1.00  0.00    -0.328 OA
HETATM   14  C10 UNL     1      23.191   0.496  52.339  1.00  0.00     0.239 A 
HETATM   15  C19 UNL     1      22.200   0.522  53.436  1.00  0.00     0.038 C 
HETATM   16  C20 UNL     1      20.922   0.349  53.235  1.00  0.00     0.091 C 
HETATM   17  N5  UNL     1      20.186   0.107  52.043  1.00  0.00    -0.337 N 
HETATM   18  C21 UNL     1      19.264   0.979  51.470  1.00  0.00     0.223 C 
HETATM   19  O2  UNL     1      19.340   1.917  52.280  1.00  0.00    -0.273 OA
HETATM   20  C22 UNL     1      18.285   1.308  50.408  1.00  0.00     0.130 C 
HETATM   21  C23 UNL     1      17.961   2.797  50.457  1.00  0.00     0.110 C 
HETATM   22  C24 UNL     1      16.568   2.974  49.983  1.00  0.00     0.142 C 
HETATM   23  H28 UNL     1      20.166  -0.707  51.379  1.00  0.00     0.168 HD
ENDROOT
BRANCH  14  24
HETATM   24  N4  UNL     1      24.180   1.504  52.652  1.00  0.00    -0.295 N 
HETATM   25  H16 UNL     1      24.707   1.808  51.784  1.00  0.00     0.124 HD
BRANCH  24  26
HETATM   26  C11 UNL     1      25.223   1.035  53.553  1.00  0.00     0.094 C 
BRANCH  26  27
HETATM   27  C12 UNL     1      26.612   1.253  52.998  1.00  0.00     0.053 C 
BRANCH  27  28
HETATM   28  C13 UNL     1      27.396  -0.032  53.028  1.00  0.00    -0.057 A 
HETATM   29  C14 UNL     1      28.724  -0.044  53.424  1.00  0.00     0.007 A 
HETATM   30  C15 UNL     1      29.480  -1.197  53.468  1.00  0.00     0.001 A 
HETATM   31  C16 UNL     1      28.888  -2.370  53.103  1.00  0.00     0.000 A 
HETATM   32  C17 UNL     1      27.566  -2.401  52.703  1.00  0.00     0.001 A 
HETATM   33  C18 UNL     1      26.795  -1.235  52.657  1.00  0.00     0.007 A 
ENDBRANCH  27  28
ENDBRANCH  26  27
ENDBRANCH  24  26
ENDBRANCH  14  24
TORSDOF 4
ENDMDL
MODEL 7
REMARK VINA RESULT:      -8.1      2.998      4.538
REMARK  4 active torsions:
REMARK  status: ('A' for Active; 'I' for Inactive)
REMARK    1  A    between atoms: C10_14  and  N4_15 
REMARK    2  A    between atoms: N4_15  and  C11_16 
REMARK    3  A    between atoms: C11_16  and  C12_17 
REMARK    4  A    between atoms: C12_17  and  C13_18 
ROOT
HETATM    1  C1  UNL     1      27.248   9.883  46.799  1.00  0.00     0.143 C 
HETATM    2  N1  UNL     1      26.035   9.481  47.421  1.00  0.00    -0.413 N 
HETATM    3  C2  UNL     1      24.911   9.263  46.605  1.00  0.00     0.136 C 
HETATM    4  C3  UNL     1      24.468   7.797  46.721  1.00  0.00     0.142 C 
HETATM    5  N2  UNL     1      24.046   7.702  48.126  1.00  0.00    -0.376 N 
HETATM    6  C4  UNL     1      22.654   7.547  48.361  1.00  0.00     0.007 C 
HETATM    7  C5  UNL     1      21.913   8.246  49.205  1.00  0.00     0.017 C 
HETATM    8  C6  UNL     1      21.185   7.533  50.325  1.00  0.00     0.149 C 
HETATM    9  N3  UNL     1      21.027   6.118  50.039  1.00  0.00    -0.371 N 
HETATM   10  C7  UNL     1      20.614   6.132  48.600  1.00  0.00     0.126 C 
HETATM   11  C8  UNL     1      21.744   6.576  47.709  1.00  0.00     0.076 C 
HETATM   12  C9  UNL     1      21.340   5.394  51.243  1.00  0.00     0.229 A 
HETATM   13  O1  UNL     1      21.017   4.493  50.454  1.00  0.00    -0.328 OA
HETATM   14  C10 UNL     1      21.454   4.087  51.959  1.00  0.00     0.239 A 
HETATM   15  C19 UNL     1      22.865   3.726  52.212  1.00  0.00     0.038 C 
HETATM   16  C20 UNL     1      23.819   4.615  52.275  1.00  0.00     0.091 C 
HETATM   17  N5  UNL     1      23.792   6.029  52.139  1.00  0.00    -0.337 N 
HETATM   18  C21 UNL     1      24.381   6.756  51.107  1.00  0.00     0.223 C 
HETATM   19  O2  UNL     1      24.853   5.819  50.443  1.00  0.00    -0.273 OA
HETATM   20  C22 UNL     1      24.697   8.046  50.454  1.00  0.00     0.130 C 
HETATM   21  C23 UNL     1      25.180   7.793  49.030  1.00  0.00     0.110 C 
HETATM   22  C24 UNL     1      26.133   8.872  48.675  1.00  0.00     0.142 C 
HETATM   23  H28 UNL     1      23.363   6.786  52.728  1.00  0.00     0.168 HD
ENDROOT
BRANCH  14  24
HETATM   24  N4  UNL     1      20.905   3.046  51.118  1.00  0.00    -0.295 N 
HETATM   25  H16 UNL     1      20.124   3.417  50.507  1.00  0.00     0.124 HD
BRANCH  24  26
HETATM   26  C11 UNL     1      20.285   1.962  51.866  1.00  0.00     0.094 C 
BRANCH  26  27
HETATM   27  C12 UNL     1      20.835   0.606  51.489  1.00  0.00     0.053 C 
BRANCH  27  28
HETATM   28  C13 UNL     1      21.504  -0.037  52.676  1.00  0.00    -0.057 A 
HETATM   29  C14 UNL     1      22.878   0.039  52.842  1.00  0.00     0.007 A 
HETATM   30  C15 UNL     1      23.532  -0.535  53.913  1.00  0.00     0.001 A 
HETATM   31  C16 UNL     1      22.788  -1.202  54.842  1.00  0.00     0.000 A 
HETATM   32  C17 UNL     1      21.416  -1.299  54.712  1.00  0.00     0.001 A 
HETATM   33  C18 UNL     1      20.748  -0.720  53.628  1.00  0.00     0.007 A 
ENDBRANCH  27  28
ENDBRANCH  26  27
ENDBRANCH  24  26
ENDBRANCH  14  24
TORSDOF 4
ENDMDL
MODEL 8
REMARK VINA RESULT:      -7.8      1.928      3.536
REMARK  4 active torsions:
REMARK  status: ('A' for Active; 'I' for Inactive)
REMARK    1  A    between atoms: C10_14  and  N4_15 
REMARK    2  A    between atoms: N4_15  and  C11_16 
REMARK    3  A    between atoms: C11_16  and  C12_17 
REMARK    4  A    between atoms: C12_17  and  C13_18 
ROOT
HETATM    1  C1  UNL     1      20.811   6.346  44.823  1.00  0.00     0.143 C 
HETATM    2  N1  UNL     1      21.052   6.264  46.222  1.00  0.00    -0.413 N 
HETATM    3  C2  UNL     1      19.963   5.994  47.068  1.00  0.00     0.136 C 
HETATM    4  C3  UNL     1      20.200   4.669  47.806  1.00  0.00     0.142 C 
HETATM    5  N2  UNL     1      21.371   4.975  48.642  1.00  0.00    -0.376 N 
HETATM    6  C4  UNL     1      21.148   5.058  50.042  1.00  0.00     0.007 C 
HETATM    7  C5  UNL     1      21.541   6.029  50.849  1.00  0.00     0.017 C 
HETATM    8  C6  UNL     1      22.464   5.709  52.006  1.00  0.00     0.149 C 
HETATM    9  N3  UNL     1      22.418   4.298  52.346  1.00  0.00    -0.371 N 
HETATM   10  C7  UNL     1      20.950   4.010  52.297  1.00  0.00     0.126 C 
HETATM   11  C8  UNL     1      20.425   4.077  50.886  1.00  0.00     0.076 C 
HETATM   12  C9  UNL     1      23.772   3.858  52.560  1.00  0.00     0.229 A 
HETATM   13  O1  UNL     1      23.108   2.839  52.802  1.00  0.00    -0.328 OA
HETATM   14  C10 UNL     1      24.720   2.763  52.927  1.00  0.00     0.239 A 
HETATM   15  C19 UNL     1      25.498   2.302  51.758  1.00  0.00     0.038 C 
HETATM   16  C20 UNL     1      25.708   3.052  50.711  1.00  0.00     0.091 C 
HETATM   17  N5  UNL     1      25.304   4.382  50.416  1.00  0.00    -0.337 N 
HETATM   18  C21 UNL     1      24.413   4.754  49.412  1.00  0.00     0.223 C 
HETATM   19  O2  UNL     1      24.139   3.632  48.957  1.00  0.00    -0.273 OA
HETATM   20  C22 UNL     1      23.670   5.796  48.666  1.00  0.00     0.130 C 
HETATM   21  C23 UNL     1      22.570   5.143  47.837  1.00  0.00     0.110 C 
HETATM   22  C24 UNL     1      22.358   5.974  46.628  1.00  0.00     0.142 C 
HETATM   23  H28 UNL     1      25.557   5.308  50.844  1.00  0.00     0.168 HD
ENDROOT
BRANCH  14  24
HETATM   24  N4  UNL     1      23.959   1.624  53.392  1.00  0.00    -0.295 N 
HETATM   25  H16 UNL     1      23.848   1.640  54.445  1.00  0.00     0.124 HD
BRANCH  24  26
HETATM   26  C11 UNL     1      24.604   0.347  53.124  1.00  0.00     0.094 C 
BRANCH  26  27
HETATM   27  C12 UNL     1      23.684  -0.829  53.360  1.00  0.00     0.053 C 
BRANCH  27  28
HETATM   28  C13 UNL     1      22.270  -0.474  52.980  1.00  0.00    -0.057 A 
HETATM   29  C14 UNL     1      21.963  -0.066  51.691  1.00  0.00     0.007 A 
HETATM   30  C15 UNL     1      20.683   0.268  51.300  1.00  0.00     0.001 A 
HETATM   31  C16 UNL     1      19.685   0.193  52.227  1.00  0.00     0.000 A 
HETATM   32  C17 UNL     1      19.950  -0.209  53.521  1.00  0.00     0.001 A 
HETATM   33  C18 UNL     1      21.245  -0.549  53.924  1.00  0.00     0.007 A 
ENDBRANCH  27  28
ENDBRANCH  26  27
ENDBRANCH  24  26
ENDBRANCH  14  24
TORSDOF 4
ENDMDL
MODEL 9
REMARK VINA RESULT:      -7.8      2.121      3.479
REMARK  4 active torsions:
REMARK  status: ('A' for Active; 'I' for Inactive)
REMARK    1  A    between atoms: C10_14  and  N4_15 
REMARK    2  A    between atoms: N4_15  and  C11_16 
REMARK    3  A    between atoms: C11_16  and  C12_17 
REMARK    4  A    between atoms: C12_17  and  C13_18 
ROOT
HETATM    1  C1  UNL     1      17.972   9.533  48.289  1.00  0.00     0.143 C 
HETATM    2  N1  UNL     1      19.316   9.072  48.279  1.00  0.00    -0.413 N 
HETATM    3  C2  UNL     1      20.272   9.797  49.011  1.00  0.00     0.136 C 
HETATM    4  C3  UNL     1      20.866   8.902  50.109  1.00  0.00     0.142 C 
HETATM    5  N2  UNL     1      21.565   7.867  49.332  1.00  0.00    -0.376 N 
HETATM    6  C4  UNL     1      22.984   7.891  49.377  1.00  0.00     0.007 C 
HETATM    7  C5  UNL     1      23.808   7.838  48.343  1.00  0.00     0.017 C 
HETATM    8  C6  UNL     1      24.807   6.705  48.243  1.00  0.00     0.149 C 
HETATM    9  N3  UNL     1      25.038   6.085  49.536  1.00  0.00    -0.371 N 
HETATM   10  C7  UNL     1      25.155   7.274  50.439  1.00  0.00     0.126 C 
HETATM   11  C8  UNL     1      23.834   7.982  50.587  1.00  0.00     0.076 C 
HETATM   12  C9  UNL     1      25.039   4.659  49.341  1.00  0.00     0.229 A 
HETATM   13  O1  UNL     1      25.283   4.773  50.551  1.00  0.00    -0.328 OA
HETATM   14  C10 UNL     1      25.193   3.288  49.914  1.00  0.00     0.239 A 
HETATM   15  C19 UNL     1      23.901   2.573  49.970  1.00  0.00     0.038 C 
HETATM   16  C20 UNL     1      22.898   2.868  49.188  1.00  0.00     0.091 C 
HETATM   17  N5  UNL     1      22.764   3.846  48.166  1.00  0.00    -0.337 N 
HETATM   18  C21 UNL     1      21.917   4.951  48.208  1.00  0.00     0.223 C 
HETATM   19  O2  UNL     1      21.413   4.778  49.330  1.00  0.00    -0.273 OA
HETATM   20  C22 UNL     1      21.357   6.173  47.587  1.00  0.00     0.130 C 
HETATM   21  C23 UNL     1      20.628   6.995  48.644  1.00  0.00     0.110 C 
HETATM   22  C24 UNL     1      19.526   7.724  47.972  1.00  0.00     0.142 C 
HETATM   23  H28 UNL     1      23.228   3.956  47.229  1.00  0.00     0.168 HD
ENDROOT
BRANCH  14  24
HETATM   24  N4  UNL     1      25.661   3.403  51.278  1.00  0.00    -0.295 N 
HETATM   25  H16 UNL     1      26.555   3.967  51.331  1.00  0.00     0.124 HD
BRANCH  24  26
HETATM   26  C11 UNL     1      26.012   2.126  51.881  1.00  0.00     0.094 C 
BRANCH  26  27
HETATM   27  C12 UNL     1      27.194   2.230  52.817  1.00  0.00     0.053 C 
BRANCH  27  28
HETATM   28  C13 UNL     1      27.842   0.882  52.996  1.00  0.00    -0.057 A 
HETATM   29  C14 UNL     1      29.120   0.772  53.520  1.00  0.00     0.007 A 
HETATM   30  C15 UNL     1      29.751  -0.441  53.701  1.00  0.00     0.001 A 
HETATM   31  C16 UNL     1      29.081  -1.575  53.347  1.00  0.00     0.000 A 
HETATM   32  C17 UNL     1      27.805  -1.509  52.822  1.00  0.00     0.001 A 
HETATM   33  C18 UNL     1      27.161  -0.282  52.636  1.00  0.00     0.007 A 
ENDBRANCH  27  28
ENDBRANCH  26  27
ENDBRANCH  24  26
ENDBRANCH  14  24
TORSDOF 4
ENDMDL
