MODEL 1
REMARK VINA RESULT:      -7.9      0.000      0.000
REMARK  0 active torsions:
REMARK  status: ('A' for Active; 'I' for Inactive)
ROOT
HETATM    1  C1  UNL     1      27.823   1.328  53.061  1.00  0.00     0.152 C 
HETATM    2  N1  UNL     1      26.454   1.522  52.765  1.00  0.00    -0.356 N 
HETATM    3  C2  UNL     1      25.542   0.549  53.417  1.00  0.00     0.069 C 
HETATM    4  C3  UNL     1      24.354  -0.025  53.781  1.00  0.00     0.113 C 
HETATM    5  C4  UNL     1      23.043   0.469  53.394  1.00  0.00     0.043 A 
HETATM    6 CL1  UNL     1      21.905  -0.662  54.147  1.00  0.00    -0.197 Cl
HETATM    7  C5  UNL     1      21.894   0.978  53.003  1.00  0.00     0.252 A 
HETATM    8  S1  UNL     1      21.607   2.432  51.981  1.00  0.00    -0.190 SA
HETATM    9  C6  UNL     1      23.107   3.224  51.459  1.00  0.00    -0.002 C 
HETATM   10  C7  UNL     1      23.814   4.391  51.400  1.00  0.00    -0.008 C 
HETATM   11  C8  UNL     1      23.333   5.704  51.966  1.00  0.00     0.307 C 
HETATM   12  N2  UNL     1      24.322   6.721  51.824  1.00  0.00     0.087 N 
HETATM   13  C9  UNL     1      24.791   6.765  50.470  1.00  0.00     0.272 C 
HETATM   14  C10 UNL     1      25.569   5.524  50.059  1.00  0.00     0.066 C 
HETATM   15  C11 UNL     1      25.136   4.308  50.687  1.00  0.00     0.061 C 
HETATM   16  C12 UNL     1      24.553   3.286  49.605  1.00  0.00     0.075 C 
HETATM   17  C13 UNL     1      24.179   2.447  50.835  1.00  0.00    -0.038 C 
HETATM   18  C14 UNL     1      24.888   1.423  51.098  1.00  0.00     0.052 C 
HETATM   19  C15 UNL     1      25.593   2.404  51.999  1.00  0.00     0.203 C 
HETATM   20 CL2  UNL     1      24.586   3.117  53.301  1.00  0.00    -0.067 Cl
HETATM   21  N3  UNL     1      26.132   3.477  51.302  1.00  0.00    -0.368 N 
HETATM   22  H9  UNL     1      25.070   6.546  52.518  1.00  0.00     0.316 HD
HETATM   23  H17 UNL     1      26.960   3.315  50.728  1.00  0.00     0.158 HD
ENDROOT
TORSDOF 0
ENDMDL
MODEL 2
REMARK VINA RESULT:      -7.9      2.967      4.922
REMARK  0 active torsions:
REMARK  status: ('A' for Active; 'I' for Inactive)
ROOT
HETATM    1  C1  UNL     1      23.490  -1.331  55.547  1.00  0.00     0.152 C 
HETATM    2  N1  UNL     1      23.973  -0.554  54.468  1.00  0.00    -0.356 N 
HETATM    3  C2  UNL     1      22.919   0.168  53.713  1.00  0.00     0.069 C 
HETATM    4  C3  UNL     1      22.386   1.012  52.777  1.00  0.00     0.113 C 
HETATM    5  C4  UNL     1      23.162   1.789  51.824  1.00  0.00     0.043 A 
HETATM    6 CL1  UNL     1      21.950   2.677  50.886  1.00  0.00    -0.197 Cl
HETATM    7  C5  UNL     1      23.934   2.458  50.995  1.00  0.00     0.252 A 
HETATM    8  S1  UNL     1      25.731   2.444  50.882  1.00  0.00    -0.190 SA
HETATM    9  C6  UNL     1      26.494   1.359  52.061  1.00  0.00    -0.002 C 
HETATM   10  C7  UNL     1      27.420   1.233  53.056  1.00  0.00    -0.008 C 
HETATM   11  C8  UNL     1      28.278   2.365  53.564  1.00  0.00     0.307 C 
HETATM   12  N2  UNL     1      29.088   1.948  54.660  1.00  0.00     0.087 N 
HETATM   13  C9  UNL     1      29.789   0.743  54.323  1.00  0.00     0.272 C 
HETATM   14  C10 UNL     1      28.874  -0.459  54.146  1.00  0.00     0.066 C 
HETATM   15  C11 UNL     1      27.571  -0.152  53.625  1.00  0.00     0.061 C 
HETATM   16  C12 UNL     1      27.358  -0.825  52.192  1.00  0.00     0.075 C 
HETATM   17  C13 UNL     1      26.045  -0.029  52.191  1.00  0.00    -0.038 C 
HETATM   18  C14 UNL     1      24.962  -0.662  52.406  1.00  0.00     0.052 C 
HETATM   19  C15 UNL     1      25.222  -0.204  53.818  1.00  0.00     0.203 C 
HETATM   20 CL2  UNL     1      25.249   1.572  54.060  1.00  0.00    -0.067 Cl
HETATM   21  N3  UNL     1      26.428  -0.676  54.319  1.00  0.00    -0.368 N 
HETATM   22  H9  UNL     1      28.483   1.857  55.496  1.00  0.00     0.316 HD
HETATM   23  H17 UNL     1      26.499  -1.664  54.562  1.00  0.00     0.158 HD
ENDROOT
TORSDOF 0
ENDMDL
MODEL 3
REMARK VINA RESULT:      -7.6      2.362      5.271
REMARK  0 active torsions:
REMARK  status: ('A' for Active; 'I' for Inactive)
ROOT
HETATM    1  C1  UNL     1      26.496   3.587  50.268  1.00  0.00     0.152 C 
HETATM    2  N1  UNL     1      26.025   2.645  51.211  1.00  0.00    -0.356 N 
HETATM    3  C2  UNL     1      24.560   2.411  51.164  1.00  0.00     0.069 C 
HETATM    4  C3  UNL     1      23.358   1.840  51.487  1.00  0.00     0.113 C 
HETATM    5  C4  UNL     1      23.182   0.778  52.464  1.00  0.00     0.043 A 
HETATM    6 CL1  UNL     1      21.439   0.455  52.454  1.00  0.00    -0.197 Cl
HETATM    7  C5  UNL     1      23.104  -0.181  53.361  1.00  0.00     0.252 A 
HETATM    8  S1  UNL     1      24.435  -0.930  54.314  1.00  0.00    -0.190 SA
HETATM    9  C6  UNL     1      26.026  -0.230  53.957  1.00  0.00    -0.002 C 
HETATM   10  C7  UNL     1      27.319  -0.476  53.590  1.00  0.00    -0.008 C 
HETATM   11  C8  UNL     1      27.868  -1.846  53.285  1.00  0.00     0.307 C 
HETATM   12  N2  UNL     1      29.225  -1.774  52.852  1.00  0.00     0.087 N 
HETATM   13  C9  UNL     1      29.994  -0.990  53.773  1.00  0.00     0.272 C 
HETATM   14  C10 UNL     1      29.601   0.479  53.789  1.00  0.00     0.066 C 
HETATM   15  C11 UNL     1      28.212   0.734  53.531  1.00  0.00     0.061 C 
HETATM   16  C12 UNL     1      27.507   1.387  54.808  1.00  0.00     0.075 C 
HETATM   17  C13 UNL     1      26.222   1.221  53.984  1.00  0.00    -0.038 C 
HETATM   18  C14 UNL     1      25.717   2.258  53.446  1.00  0.00     0.052 C 
HETATM   19  C15 UNL     1      26.520   1.779  52.265  1.00  0.00     0.203 C 
HETATM   20 CL2  UNL     1      26.067   0.166  51.626  1.00  0.00    -0.067 Cl
HETATM   21  N3  UNL     1      27.881   1.714  52.535  1.00  0.00    -0.368 N 
HETATM   22  H9  UNL     1      29.237  -1.410  51.882  1.00  0.00     0.316 HD
HETATM   23  H17 UNL     1      28.403   2.587  52.613  1.00  0.00     0.158 HD
ENDROOT
TORSDOF 0
ENDMDL
MODEL 4
REMARK VINA RESULT:      -7.3      3.079      4.196
REMARK  0 active torsions:
REMARK  status: ('A' for Active; 'I' for Inactive)
ROOT
HETATM    1  C1  UNL     1      21.533  -0.482  54.915  1.00  0.00     0.152 C 
HETATM    2  N1  UNL     1      21.100   0.077  53.691  1.00  0.00    -0.356 N 
HETATM    3  C2  UNL     1      19.795  -0.441  53.208  1.00  0.00     0.069 C 
HETATM    4  C3  UNL     1      18.696  -0.547  52.399  1.00  0.00     0.113 C 
HETATM    5  C4  UNL     1      18.461   0.260  51.213  1.00  0.00     0.043 A 
HETATM    6 CL1  UNL     1      16.907  -0.318  50.587  1.00  0.00    -0.197 Cl
HETATM    7  C5  UNL     1      18.321   1.028  50.154  1.00  0.00     0.252 A 
HETATM    8  S1  UNL     1      19.432   2.306  49.545  1.00  0.00    -0.190 SA
HETATM    9  C6  UNL     1      20.890   2.493  50.541  1.00  0.00    -0.002 C 
HETATM   10  C7  UNL     1      21.682   3.354  51.244  1.00  0.00    -0.008 C 
HETATM   11  C8  UNL     1      21.399   4.827  51.407  1.00  0.00     0.307 C 
HETATM   12  N2  UNL     1      22.358   5.446  52.260  1.00  0.00     0.087 N 
HETATM   13  C9  UNL     1      23.685   5.115  51.831  1.00  0.00     0.272 C 
HETATM   14  C10 UNL     1      24.027   3.643  52.006  1.00  0.00     0.066 C 
HETATM   15  C11 UNL     1      22.918   2.745  51.849  1.00  0.00     0.061 C 
HETATM   16  C12 UNL     1      23.134   1.790  50.586  1.00  0.00     0.075 C 
HETATM   17  C13 UNL     1      21.703   1.327  50.893  1.00  0.00    -0.038 C 
HETATM   18  C14 UNL     1      21.547   0.192  51.448  1.00  0.00     0.052 C 
HETATM   19  C15 UNL     1      21.525   1.041  52.693  1.00  0.00     0.203 C 
HETATM   20 CL2  UNL     1      20.194   2.239  52.786  1.00  0.00    -0.067 Cl
HETATM   21  N3  UNL     1      22.699   1.760  52.870  1.00  0.00    -0.368 N 
HETATM   22  H9  UNL     1      22.154   5.165  53.237  1.00  0.00     0.316 HD
HETATM   23  H17 UNL     1      23.539   1.255  53.157  1.00  0.00     0.158 HD
ENDROOT
TORSDOF 0
ENDMDL
MODEL 5
REMARK VINA RESULT:      -7.2      1.566      1.833
REMARK  0 active torsions:
REMARK  status: ('A' for Active; 'I' for Inactive)
ROOT
HETATM    1  C1  UNL     1      26.103   1.918  53.292  1.00  0.00     0.152 C 
HETATM    2  N1  UNL     1      24.934   2.338  52.617  1.00  0.00    -0.356 N 
HETATM    3  C2  UNL     1      23.719   1.553  52.949  1.00  0.00     0.069 C 
HETATM    4  C3  UNL     1      22.396   1.201  52.936  1.00  0.00     0.113 C 
HETATM    5  C4  UNL     1      21.359   1.904  52.198  1.00  0.00     0.043 A 
HETATM    6 CL1  UNL     1      19.875   1.005  52.556  1.00  0.00    -0.197 Cl
HETATM    7  C5  UNL     1      20.480   2.594  51.504  1.00  0.00     0.252 A 
HETATM    8  S1  UNL     1      20.756   4.050  50.482  1.00  0.00    -0.190 SA
HETATM    9  C6  UNL     1      22.456   4.560  50.442  1.00  0.00    -0.002 C 
HETATM   10  C7  UNL     1      23.339   5.586  50.622  1.00  0.00    -0.008 C 
HETATM   11  C8  UNL     1      22.947   6.975  51.059  1.00  0.00     0.307 C 
HETATM   12  N2  UNL     1      24.094   7.802  51.239  1.00  0.00     0.087 N 
HETATM   13  C9  UNL     1      24.937   7.733  50.081  1.00  0.00     0.272 C 
HETATM   14  C10 UNL     1      25.575   6.367  49.881  1.00  0.00     0.066 C 
HETATM   15  C11 UNL     1      24.777   5.258  50.322  1.00  0.00     0.061 C 
HETATM   16  C12 UNL     1      24.367   4.327  49.090  1.00  0.00     0.075 C 
HETATM   17  C13 UNL     1      23.513   3.594  50.135  1.00  0.00    -0.038 C 
HETATM   18  C14 UNL     1      23.928   2.470  50.565  1.00  0.00     0.052 C 
HETATM   19  C15 UNL     1      24.497   3.336  51.658  1.00  0.00     0.203 C 
HETATM   20 CL2  UNL     1      23.294   4.243  52.630  1.00  0.00    -0.067 Cl
HETATM   21  N3  UNL     1      25.392   4.283  51.177  1.00  0.00    -0.368 N 
HETATM   22  H9  UNL     1      24.566   7.518  52.116  1.00  0.00     0.316 HD
HETATM   23  H17 UNL     1      26.311   3.968  50.865  1.00  0.00     0.158 HD
ENDROOT
TORSDOF 0
ENDMDL
MODEL 6
REMARK VINA RESULT:      -7.0      8.621     11.190
REMARK  0 active torsions:
REMARK  status: ('A' for Active; 'I' for Inactive)
ROOT
HETATM    1  C1  UNL     1      28.692   5.916  48.302  1.00  0.00     0.152 C 
HETATM    2  N1  UNL     1      29.894   6.565  47.935  1.00  0.00    -0.356 N 
HETATM    3  C2  UNL     1      29.844   8.046  48.027  1.00  0.00     0.069 C 
HETATM    4  C3  UNL     1      30.306   9.333  47.979  1.00  0.00     0.113 C 
HETATM    5  C4  UNL     1      31.672   9.711  47.656  1.00  0.00     0.043 A 
HETATM    6 CL1  UNL     1      31.674  11.481  47.748  1.00  0.00    -0.197 Cl
HETATM    7  C5  UNL     1      32.926   9.972  47.355  1.00  0.00     0.252 A 
HETATM    8  S1  UNL     1      34.246   8.813  46.964  1.00  0.00    -0.190 SA
HETATM    9  C6  UNL     1      33.717   7.119  46.994  1.00  0.00    -0.002 C 
HETATM   10  C7  UNL     1      33.942   5.867  47.492  1.00  0.00    -0.008 C 
HETATM   11  C8  UNL     1      35.043   5.527  48.464  1.00  0.00     0.307 C 
HETATM   12  N2  UNL     1      34.975   4.160  48.863  1.00  0.00     0.087 N 
HETATM   13  C9  UNL     1      34.885   3.314  47.709  1.00  0.00     0.272 C 
HETATM   14  C10 UNL     1      33.580   3.473  46.944  1.00  0.00     0.066 C 
HETATM   15  C11 UNL     1      33.020   4.795  46.978  1.00  0.00     0.061 C 
HETATM   16  C12 UNL     1      32.992   5.439  45.516  1.00  0.00     0.075 C 
HETATM   17  C13 UNL     1      32.524   6.701  46.255  1.00  0.00    -0.038 C 
HETATM   18  C14 UNL     1      31.293   7.016  46.180  1.00  0.00     0.052 C 
HETATM   19  C15 UNL     1      31.235   6.252  47.477  1.00  0.00     0.203 C 
HETATM   20 CL2  UNL     1      32.221   6.926  48.815  1.00  0.00    -0.067 Cl
HETATM   21  N3  UNL     1      31.636   4.930  47.336  1.00  0.00    -0.368 N 
HETATM   22  H9  UNL     1      34.182   4.052  49.521  1.00  0.00     0.316 HD
HETATM   23  H17 UNL     1      31.011   4.282  46.856  1.00  0.00     0.158 HD
ENDROOT
TORSDOF 0
ENDMDL
MODEL 7
REMARK VINA RESULT:      -6.9      3.873      5.254
REMARK  0 active torsions:
REMARK  status: ('A' for Active; 'I' for Inactive)
ROOT
HETATM    1  C1  UNL     1      18.557  -1.253  53.454  1.00  0.00     0.152 C 
HETATM    2  N1  UNL     1      19.717  -0.502  53.154  1.00  0.00    -0.356 N 
HETATM    3  C2  UNL     1      20.953  -0.997  53.809  1.00  0.00     0.069 C 
HETATM    4  C3  UNL     1      22.286  -1.061  54.113  1.00  0.00     0.113 C 
HETATM    5  C4  UNL     1      23.305  -0.187  53.555  1.00  0.00     0.043 A 
HETATM    6 CL1  UNL     1      24.814  -0.732  54.306  1.00  0.00    -0.197 Cl
HETATM    7  C5  UNL     1      24.167   0.642  53.006  1.00  0.00     0.252 A 
HETATM    8  S1  UNL     1      23.852   1.957  51.818  1.00  0.00    -0.190 SA
HETATM    9  C6  UNL     1      22.138   2.108  51.384  1.00  0.00    -0.002 C 
HETATM   10  C7  UNL     1      21.222   2.156  50.372  1.00  0.00    -0.008 C 
HETATM   11  C8  UNL     1      21.567   2.033  48.909  1.00  0.00     0.307 C 
HETATM   12  N2  UNL     1      20.394   2.038  48.100  1.00  0.00     0.087 N 
HETATM   13  C9  UNL     1      19.561   3.152  48.448  1.00  0.00     0.272 C 
HETATM   14  C10 UNL     1      18.967   3.049  49.844  1.00  0.00     0.066 C 
HETATM   15  C11 UNL     1      19.797   2.376  50.803  1.00  0.00     0.061 C 
HETATM   16  C12 UNL     1      20.244   3.375  51.968  1.00  0.00     0.075 C 
HETATM   17  C13 UNL     1      21.113   2.196  52.427  1.00  0.00    -0.038 C 
HETATM   18  C14 UNL     1      20.731   1.530  53.442  1.00  0.00     0.052 C 
HETATM   19  C15 UNL     1      20.128   0.652  52.377  1.00  0.00     0.203 C 
HETATM   20 CL2  UNL     1      21.296  -0.097  51.241  1.00  0.00    -0.067 Cl
HETATM   21  N3  UNL     1      19.207   1.328  51.587  1.00  0.00    -0.368 N 
HETATM   22  H9  UNL     1      19.925   1.120  48.201  1.00  0.00     0.316 HD
HETATM   23  H17 UNL     1      18.300   1.564  51.992  1.00  0.00     0.158 HD
ENDROOT
TORSDOF 0
ENDMDL
MODEL 8
REMARK VINA RESULT:      -6.9      9.469     11.682
REMARK  0 active torsions:
REMARK  status: ('A' for Active; 'I' for Inactive)
ROOT
HETATM    1  C1  UNL     1      34.620   8.789  44.274  1.00  0.00     0.152 C 
HETATM    2  N1  UNL     1      34.002   8.385  45.479  1.00  0.00    -0.356 N 
HETATM    3  C2  UNL     1      33.224   9.452  46.157  1.00  0.00     0.069 C 
HETATM    4  C3  UNL     1      32.403  10.020  47.093  1.00  0.00     0.113 C 
HETATM    5  C4  UNL     1      31.809   9.309  48.214  1.00  0.00     0.043 A 
HETATM    6 CL1  UNL     1      30.864  10.541  49.068  1.00  0.00    -0.197 Cl
HETATM    7  C5  UNL     1      31.311   8.596  49.202  1.00  0.00     0.252 A 
HETATM    8  S1  UNL     1      31.551   6.847  49.550  1.00  0.00    -0.190 SA
HETATM    9  C6  UNL     1      32.618   6.044  48.380  1.00  0.00    -0.002 C 
HETATM   10  C7  UNL     1      32.769   5.004  47.509  1.00  0.00    -0.008 C 
HETATM   11  C8  UNL     1      31.711   3.965  47.235  1.00  0.00     0.307 C 
HETATM   12  N2  UNL     1      32.129   3.055  46.221  1.00  0.00     0.087 N 
HETATM   13  C9  UNL     1      33.434   2.545  46.525  1.00  0.00     0.272 C 
HETATM   14  C10 UNL     1      34.527   3.600  46.458  1.00  0.00     0.066 C 
HETATM   15  C11 UNL     1      34.109   4.923  46.829  1.00  0.00     0.061 C 
HETATM   16  C12 UNL     1      34.871   5.411  48.146  1.00  0.00     0.075 C 
HETATM   17  C13 UNL     1      33.925   6.617  48.053  1.00  0.00    -0.038 C 
HETATM   18  C14 UNL     1      34.402   7.720  47.633  1.00  0.00     0.052 C 
HETATM   19  C15 UNL     1      33.861   7.212  46.321  1.00  0.00     0.203 C 
HETATM   20 CL2  UNL     1      32.087   6.959  46.265  1.00  0.00    -0.067 Cl
HETATM   21  N3  UNL     1      34.431   6.004  45.941  1.00  0.00    -0.368 N 
HETATM   22  H9  UNL     1      32.075   3.540  45.307  1.00  0.00     0.316 HD
HETATM   23  H17 UNL     1      35.397   6.006  45.611  1.00  0.00     0.158 HD
ENDROOT
TORSDOF 0
ENDMDL
MODEL 9
REMARK VINA RESULT:      -6.8      2.283      3.770
REMARK  0 active torsions:
REMARK  status: ('A' for Active; 'I' for Inactive)
ROOT
HETATM    1  C1  UNL     1      19.697   2.987  49.418  1.00  0.00     0.152 C 
HETATM    2  N1  UNL     1      20.776   2.686  50.281  1.00  0.00    -0.356 N 
HETATM    3  C2  UNL     1      20.659   1.378  50.974  1.00  0.00     0.069 C 
HETATM    4  C3  UNL     1      21.031   0.331  51.773  1.00  0.00     0.113 C 
HETATM    5  C4  UNL     1      22.294   0.244  52.488  1.00  0.00     0.043 A 
HETATM    6 CL1  UNL     1      22.211  -1.307  53.342  1.00  0.00    -0.197 Cl
HETATM    7  C5  UNL     1      23.458   0.239  53.103  1.00  0.00     0.252 A 
HETATM    8  S1  UNL     1      24.751   1.490  53.058  1.00  0.00    -0.190 SA
HETATM    9  C6  UNL     1      24.332   2.887  52.047  1.00  0.00    -0.002 C 
HETATM   10  C7  UNL     1      24.713   3.699  51.016  1.00  0.00    -0.008 C 
HETATM   11  C8  UNL     1      25.987   3.527  50.228  1.00  0.00     0.307 C 
HETATM   12  N2  UNL     1      26.069   4.474  49.166  1.00  0.00     0.087 N 
HETATM   13  C9  UNL     1      25.823   5.795  49.665  1.00  0.00     0.272 C 
HETATM   14  C10 UNL     1      24.396   6.002  50.148  1.00  0.00     0.066 C 
HETATM   15  C11 UNL     1      23.777   4.837  50.712  1.00  0.00     0.061 C 
HETATM   16  C12 UNL     1      23.452   5.058  52.261  1.00  0.00     0.075 C 
HETATM   17  C13 UNL     1      23.053   3.577  52.225  1.00  0.00    -0.038 C 
HETATM   18  C14 UNL     1      21.812   3.291  52.231  1.00  0.00     0.052 C 
HETATM   19  C15 UNL     1      22.030   3.254  50.740  1.00  0.00     0.203 C 
HETATM   20 CL2  UNL     1      23.197   2.023  50.161  1.00  0.00    -0.067 Cl
HETATM   21  N3  UNL     1      22.474   4.469  50.235  1.00  0.00    -0.368 N 
HETATM   22  H9  UNL     1      25.413   4.182  48.419  1.00  0.00     0.316 HD
HETATM   23  H17 UNL     1      21.810   5.243  50.180  1.00  0.00     0.158 HD
ENDROOT
TORSDOF 0
ENDMDL
