MODEL 1
REMARK VINA RESULT:      -9.7      0.000      0.000
REMARK  5 active torsions:
REMARK  status: ('A' for Active; 'I' for Inactive)
REMARK    1  A    between atoms: N1_7  and  C7_8 
REMARK       I    between atoms: N3_15  and  C13_16 
REMARK    2  A    between atoms: C13_16  and  C14_18 
REMARK    3  A    between atoms: C15_19  and  C16_20 
REMARK    4  A    between atoms: C16_20  and  N4_21 
REMARK    5  A    between atoms: C23_29  and  O3_30 
ROOT
HETATM    1  C7  UNL     1      25.279  -0.181  53.768  1.00  0.00     0.050 A 
HETATM    2  C8  UNL     1      24.596  -1.037  54.638  1.00  0.00     0.050 A 
HETATM    3  C9  UNL     1      23.212  -0.922  54.634  1.00  0.00     0.119 A 
HETATM    4  N2  UNL     1      22.579  -0.034  53.833  1.00  0.00    -0.258 NA
HETATM    5  C10 UNL     1      23.290   0.756  53.024  1.00  0.00     0.099 A 
HETATM    6  C11 UNL     1      24.661   0.732  52.943  1.00  0.00     0.018 A 
HETATM    7  C12 UNL     1      25.634   1.486  52.156  1.00  0.00     0.169 A 
HETATM    8  N3  UNL     1      25.054   2.424  51.246  1.00  0.00    -0.341 N 
HETATM    9  C13 UNL     1      26.185   2.990  50.618  1.00  0.00     0.243 C 
HETATM   10  O1  UNL     1      27.178   2.434  51.139  1.00  0.00    -0.268 OA
HETATM   11  C21 UNL     1      23.878   3.028  50.708  1.00  0.00     0.156 A 
HETATM   12  C22 UNL     1      22.686   2.484  51.376  1.00  0.00     0.032 A 
HETATM   13  C23 UNL     1      22.348   1.594  52.294  1.00  0.00     0.095 A 
ENDROOT
BRANCH   9  14
HETATM   14  C14 UNL     1      26.518   3.966  49.609  1.00  0.00     0.072 C 
HETATM   15  C15 UNL     1      26.440   5.242  49.329  1.00  0.00     0.008 C 
BRANCH  15  16
HETATM   16  C16 UNL     1      26.718   6.331  48.396  1.00  0.00     0.300 C 
BRANCH  16  17
HETATM   17  N4  UNL     1      27.214   7.510  49.116  1.00  0.00     0.096 N 
HETATM   18  C17 UNL     1      26.225   7.912  50.065  1.00  0.00     0.299 C 
HETATM   19  C18 UNL     1      25.449   9.147  49.657  1.00  0.00     0.198 C 
HETATM   20  O2  UNL     1      26.366  10.167  49.472  1.00  0.00    -0.388 OA
HETATM   21  C19 UNL     1      27.305   9.912  48.516  1.00  0.00     0.198 C 
HETATM   22  C20 UNL     1      27.496   8.496  48.111  1.00  0.00     0.299 C 
ENDBRANCH  16  17
ENDBRANCH  15  16
ENDBRANCH   9  14
BRANCH   1  23
HETATM   23  N1  UNL     1      26.693  -0.333  53.803  1.00  0.00    -0.323 N 
HETATM   24  C2  UNL     1      27.415  -1.281  53.024  1.00  0.00     0.029 A 
HETATM   25  C1  UNL     1      26.738  -2.083  52.211  1.00  0.00     0.043 C 
HETATM   26  C3  UNL     1      28.866  -1.313  53.170  1.00  0.00     0.029 A 
HETATM   27  C4  UNL     1      29.388  -0.449  54.022  1.00  0.00     0.004 A 
HETATM   28  C5  UNL     1      28.664   0.524  54.823  1.00  0.00     0.018 A 
HETATM   29  C6  UNL     1      27.352   0.560  54.698  1.00  0.00     0.097 A 
ENDBRANCH   1  23
BRANCH  13  30
HETATM   30  O3  UNL     1      20.989   1.454  52.579  1.00  0.00    -0.354 OA
HETATM   31  C24 UNL     1      20.215   2.646  52.388  1.00  0.00     0.210 C 
ENDBRANCH  13  30
TORSDOF 5
ENDMDL
MODEL 2
REMARK VINA RESULT:      -9.3      1.838      2.241
REMARK  5 active torsions:
REMARK  status: ('A' for Active; 'I' for Inactive)
REMARK    1  A    between atoms: N1_7  and  C7_8 
REMARK       I    between atoms: N3_15  and  C13_16 
REMARK    2  A    between atoms: C13_16  and  C14_18 
REMARK    3  A    between atoms: C15_19  and  C16_20 
REMARK    4  A    between atoms: C16_20  and  N4_21 
REMARK    5  A    between atoms: C23_29  and  O3_30 
ROOT
HETATM    1  C7  UNL     1      25.278  -0.116  53.672  1.00  0.00     0.050 A 
HETATM    2  C8  UNL     1      24.601  -0.971  54.549  1.00  0.00     0.050 A 
HETATM    3  C9  UNL     1      23.215  -0.891  54.519  1.00  0.00     0.119 A 
HETATM    4  N2  UNL     1      22.575  -0.037  53.688  1.00  0.00    -0.258 NA
HETATM    5  C10 UNL     1      23.280   0.752  52.874  1.00  0.00     0.099 A 
HETATM    6  C11 UNL     1      24.652   0.762  52.816  1.00  0.00     0.018 A 
HETATM    7  C12 UNL     1      25.619   1.523  52.029  1.00  0.00     0.169 A 
HETATM    8  N3  UNL     1      25.032   2.425  51.088  1.00  0.00    -0.341 N 
HETATM    9  C13 UNL     1      26.159   3.006  50.467  1.00  0.00     0.243 C 
HETATM   10  O1  UNL     1      27.156   2.487  51.018  1.00  0.00    -0.268 OA
HETATM   11  C21 UNL     1      23.851   2.987  50.517  1.00  0.00     0.156 A 
HETATM   12  C22 UNL     1      22.661   2.427  51.176  1.00  0.00     0.032 A 
HETATM   13  C23 UNL     1      22.330   1.550  52.108  1.00  0.00     0.095 A 
ENDROOT
BRANCH   9  14
HETATM   14  C14 UNL     1      26.485   3.967  49.442  1.00  0.00     0.072 C 
HETATM   15  C15 UNL     1      27.354   4.892  49.121  1.00  0.00     0.008 C 
BRANCH  15  16
HETATM   16  C16 UNL     1      27.801   5.902  48.165  1.00  0.00     0.300 C 
BRANCH  16  17
HETATM   17  N4  UNL     1      29.171   6.330  48.473  1.00  0.00     0.096 N 
HETATM   18  C17 UNL     1      29.388   7.615  47.887  1.00  0.00     0.299 C 
HETATM   19  C18 UNL     1      30.246   7.583  46.639  1.00  0.00     0.198 C 
HETATM   20  O2  UNL     1      31.458   7.013  46.988  1.00  0.00    -0.388 OA
HETATM   21  C19 UNL     1      31.363   5.744  47.480  1.00  0.00     0.198 C 
HETATM   22  C20 UNL     1      30.031   5.301  47.962  1.00  0.00     0.299 C 
ENDBRANCH  16  17
ENDBRANCH  15  16
ENDBRANCH   9  14
BRANCH   1  23
HETATM   23  N1  UNL     1      26.695  -0.232  53.735  1.00  0.00    -0.323 N 
HETATM   24  C2  UNL     1      27.449  -1.207  53.024  1.00  0.00     0.029 A 
HETATM   25  C1  UNL     1      26.803  -2.074  52.253  1.00  0.00     0.043 C 
HETATM   26  C3  UNL     1      28.899  -1.195  53.190  1.00  0.00     0.029 A 
HETATM   27  C4  UNL     1      29.388  -0.269  53.995  1.00  0.00     0.004 A 
HETATM   28  C5  UNL     1      28.630   0.733  54.726  1.00  0.00     0.018 A 
HETATM   29  C6  UNL     1      27.320   0.730  54.582  1.00  0.00     0.097 A 
ENDBRANCH   1  23
BRANCH  13  30
HETATM   30  O3  UNL     1      20.970   1.381  52.374  1.00  0.00    -0.354 OA
HETATM   31  C24 UNL     1      20.186   0.995  51.237  1.00  0.00     0.210 C 
ENDBRANCH  13  30
TORSDOF 5
ENDMDL
MODEL 3
REMARK VINA RESULT:      -8.8      1.784      4.969
REMARK  5 active torsions:
REMARK  status: ('A' for Active; 'I' for Inactive)
REMARK    1  A    between atoms: N1_7  and  C7_8 
REMARK       I    between atoms: N3_15  and  C13_16 
REMARK    2  A    between atoms: C13_16  and  C14_18 
REMARK    3  A    between atoms: C15_19  and  C16_20 
REMARK    4  A    between atoms: C16_20  and  N4_21 
REMARK    5  A    between atoms: C23_29  and  O3_30 
ROOT
HETATM    1  C7  UNL     1      22.503   0.857  52.045  1.00  0.00     0.050 A 
HETATM    2  C8  UNL     1      21.862  -0.029  52.919  1.00  0.00     0.050 A 
HETATM    3  C9  UNL     1      22.682  -0.660  53.846  1.00  0.00     0.119 A 
HETATM    4  N2  UNL     1      24.013  -0.423  53.888  1.00  0.00    -0.258 NA
HETATM    5  C10 UNL     1      24.564   0.434  53.025  1.00  0.00     0.099 A 
HETATM    6  C11 UNL     1      23.855   1.116  52.066  1.00  0.00     0.018 A 
HETATM    7  C12 UNL     1      24.231   2.078  51.032  1.00  0.00     0.169 A 
HETATM    8  N3  UNL     1      25.618   2.423  51.027  1.00  0.00    -0.341 N 
HETATM    9  C13 UNL     1      25.704   3.354  49.969  1.00  0.00     0.243 C 
HETATM   10  O1  UNL     1      24.545   3.452  49.507  1.00  0.00    -0.268 OA
HETATM   11  C21 UNL     1      26.916   2.249  51.594  1.00  0.00     0.156 A 
HETATM   12  C22 UNL     1      26.861   1.251  52.673  1.00  0.00     0.032 A 
HETATM   13  C23 UNL     1      25.992   0.484  53.309  1.00  0.00     0.095 A 
ENDROOT
BRANCH   9  14
HETATM   14  C14 UNL     1      26.677   4.182  49.300  1.00  0.00     0.072 C 
HETATM   15  C15 UNL     1      26.916   5.413  48.926  1.00  0.00     0.008 C 
BRANCH  15  16
HETATM   16  C16 UNL     1      27.811   6.365  48.273  1.00  0.00     0.300 C 
BRANCH  16  17
HETATM   17  N4  UNL     1      27.213   7.706  48.258  1.00  0.00     0.096 N 
HETATM   18  C17 UNL     1      28.263   8.672  48.316  1.00  0.00     0.299 C 
HETATM   19  C18 UNL     1      28.413   9.334  49.671  1.00  0.00     0.198 C 
HETATM   20  O2  UNL     1      27.203   9.935  49.972  1.00  0.00    -0.388 OA
HETATM   21  C19 UNL     1      26.146   9.074  50.027  1.00  0.00     0.198 C 
HETATM   22  C20 UNL     1      26.314   7.750  49.377  1.00  0.00     0.299 C 
ENDBRANCH  16  17
ENDBRANCH  15  16
ENDBRANCH   9  14
BRANCH   1  23
HETATM   23  N1  UNL     1      21.626   1.481  51.115  1.00  0.00    -0.323 N 
HETATM   24  C2  UNL     1      20.905   2.680  51.378  1.00  0.00     0.029 A 
HETATM   25  C1  UNL     1      21.046   3.261  52.563  1.00  0.00     0.043 C 
HETATM   26  C3  UNL     1      20.046   3.200  50.319  1.00  0.00     0.029 A 
HETATM   27  C4  UNL     1      20.014   2.504  49.196  1.00  0.00     0.004 A 
HETATM   28  C5  UNL     1      20.745   1.280  48.915  1.00  0.00     0.018 A 
HETATM   29  C6  UNL     1      21.524   0.802  49.865  1.00  0.00     0.097 A 
ENDBRANCH   1  23
BRANCH  13  30
HETATM   30  O3  UNL     1      26.486  -0.337  54.324  1.00  0.00    -0.354 OA
HETATM   31  C24 UNL     1      27.731   0.098  54.888  1.00  0.00     0.210 C 
ENDBRANCH  13  30
TORSDOF 5
ENDMDL
MODEL 4
REMARK VINA RESULT:      -8.6      1.840      4.955
REMARK  5 active torsions:
REMARK  status: ('A' for Active; 'I' for Inactive)
REMARK    1  A    between atoms: N1_7  and  C7_8 
REMARK       I    between atoms: N3_15  and  C13_16 
REMARK    2  A    between atoms: C13_16  and  C14_18 
REMARK    3  A    between atoms: C15_19  and  C16_20 
REMARK    4  A    between atoms: C16_20  and  N4_21 
REMARK    5  A    between atoms: C23_29  and  O3_30 
ROOT
HETATM    1  C7  UNL     1      22.253   1.292  51.963  1.00  0.00     0.050 A 
HETATM    2  C8  UNL     1      21.584   0.356  52.759  1.00  0.00     0.050 A 
HETATM    3  C9  UNL     1      22.393  -0.523  53.466  1.00  0.00     0.119 A 
HETATM    4  N2  UNL     1      23.743  -0.465  53.380  1.00  0.00    -0.258 NA
HETATM    5  C10 UNL     1      24.321   0.453  52.602  1.00  0.00     0.099 A 
HETATM    6  C11 UNL     1      23.624   1.373  51.858  1.00  0.00     0.018 A 
HETATM    7  C12 UNL     1      24.028   2.445  50.951  1.00  0.00     0.169 A 
HETATM    8  N3  UNL     1      25.443   2.610  50.829  1.00  0.00    -0.341 N 
HETATM    9  C13 UNL     1      25.555   3.692  49.929  1.00  0.00     0.243 C 
HETATM   10  O1  UNL     1      24.381   4.013  49.634  1.00  0.00    -0.268 OA
HETATM   11  C21 UNL     1      26.753   2.180  51.197  1.00  0.00     0.156 A 
HETATM   12  C22 UNL     1      26.664   1.025  52.104  1.00  0.00     0.032 A 
HETATM   13  C23 UNL     1      25.763   0.274  52.713  1.00  0.00     0.095 A 
ENDROOT
BRANCH   9  14
HETATM   14  C14 UNL     1      26.564   4.495  49.284  1.00  0.00     0.072 C 
HETATM   15  C15 UNL     1      26.794   5.692  48.805  1.00  0.00     0.008 C 
BRANCH  15  16
HETATM   16  C16 UNL     1      27.719   6.615  48.153  1.00  0.00     0.300 C 
BRANCH  16  17
HETATM   17  N4  UNL     1      27.148   7.967  48.108  1.00  0.00     0.096 N 
HETATM   18  C17 UNL     1      28.014   8.849  48.826  1.00  0.00     0.299 C 
HETATM   19  C18 UNL     1      27.489   9.248  50.190  1.00  0.00     0.198 C 
HETATM   20  O2  UNL     1      26.257   9.849  49.998  1.00  0.00    -0.388 OA
HETATM   21  C19 UNL     1      25.329   9.051  49.395  1.00  0.00     0.198 C 
HETATM   22  C20 UNL     1      25.831   7.858  48.667  1.00  0.00     0.299 C 
ENDBRANCH  16  17
ENDBRANCH  15  16
ENDBRANCH   9  14
BRANCH   1  23
HETATM   23  N1  UNL     1      21.386   2.173  51.259  1.00  0.00    -0.323 N 
HETATM   24  C2  UNL     1      20.912   1.941  49.937  1.00  0.00     0.029 A 
HETATM   25  C1  UNL     1      21.299   0.837  49.308  1.00  0.00     0.043 C 
HETATM   26  C3  UNL     1      20.024   2.939  49.350  1.00  0.00     0.029 A 
HETATM   27  C4  UNL     1      19.736   3.983  50.107  1.00  0.00     0.004 A 
HETATM   28  C5  UNL     1      20.212   4.232  51.457  1.00  0.00     0.018 A 
HETATM   29  C6  UNL     1      21.015   3.336  51.996  1.00  0.00     0.097 A 
ENDBRANCH   1  23
BRANCH  13  30
HETATM   30  O3  UNL     1      26.234  -0.765  53.516  1.00  0.00    -0.354 OA
HETATM   31  C24 UNL     1      27.209  -1.608  52.888  1.00  0.00     0.210 C 
ENDBRANCH  13  30
TORSDOF 5
ENDMDL
MODEL 5
REMARK VINA RESULT:      -8.3      2.846      5.602
REMARK  5 active torsions:
REMARK  status: ('A' for Active; 'I' for Inactive)
REMARK    1  A    between atoms: N1_7  and  C7_8 
REMARK       I    between atoms: N3_15  and  C13_16 
REMARK    2  A    between atoms: C13_16  and  C14_18 
REMARK    3  A    between atoms: C15_19  and  C16_20 
REMARK    4  A    between atoms: C16_20  and  N4_21 
REMARK    5  A    between atoms: C23_29  and  O3_30 
ROOT
HETATM    1  C7  UNL     1      22.698   1.094  51.635  1.00  0.00     0.050 A 
HETATM    2  C8  UNL     1      22.129   0.091  52.427  1.00  0.00     0.050 A 
HETATM    3  C9  UNL     1      22.994  -0.547  53.306  1.00  0.00     0.119 A 
HETATM    4  N2  UNL     1      24.302  -0.209  53.380  1.00  0.00    -0.258 NA
HETATM    5  C10 UNL     1      24.784   0.759  52.596  1.00  0.00     0.099 A 
HETATM    6  C11 UNL     1      24.025   1.458  51.690  1.00  0.00     0.018 A 
HETATM    7  C12 UNL     1      24.325   2.529  50.742  1.00  0.00     0.169 A 
HETATM    8  N3  UNL     1      25.679   2.984  50.778  1.00  0.00    -0.341 N 
HETATM    9  C13 UNL     1      25.693   4.003  49.802  1.00  0.00     0.243 C 
HETATM   10  O1  UNL     1      24.531   4.046  49.338  1.00  0.00    -0.268 OA
HETATM   11  C21 UNL     1      26.986   2.867  51.341  1.00  0.00     0.156 A 
HETATM   12  C22 UNL     1      27.009   1.783  52.334  1.00  0.00     0.032 A 
HETATM   13  C23 UNL     1      26.203   0.898  52.897  1.00  0.00     0.095 A 
ENDROOT
BRANCH   9  14
HETATM   14  C14 UNL     1      26.599   4.958  49.212  1.00  0.00     0.072 C 
HETATM   15  C15 UNL     1      27.735   5.056  48.570  1.00  0.00     0.008 C 
BRANCH  15  16
HETATM   16  C16 UNL     1      28.736   5.909  47.934  1.00  0.00     0.300 C 
BRANCH  16  17
HETATM   17  N4  UNL     1      30.035   5.764  48.604  1.00  0.00     0.096 N 
HETATM   18  C17 UNL     1      30.543   7.067  48.895  1.00  0.00     0.299 C 
HETATM   19  C18 UNL     1      31.664   7.508  47.977  1.00  0.00     0.198 C 
HETATM   20  O2  UNL     1      32.678   6.572  48.087  1.00  0.00    -0.388 OA
HETATM   21  C19 UNL     1      32.311   5.303  47.743  1.00  0.00     0.198 C 
HETATM   22  C20 UNL     1      30.858   5.002  47.709  1.00  0.00     0.299 C 
ENDBRANCH  16  17
ENDBRANCH  15  16
ENDBRANCH   9  14
BRANCH   1  23
HETATM   23  N1  UNL     1      21.776   1.722  50.752  1.00  0.00    -0.323 N 
HETATM   24  C2  UNL     1      20.992   2.860  51.091  1.00  0.00     0.029 A 
HETATM   25  C1  UNL     1      21.115   3.377  52.308  1.00  0.00     0.043 C 
HETATM   26  C3  UNL     1      20.093   3.392  50.073  1.00  0.00     0.029 A 
HETATM   27  C4  UNL     1      20.086   2.761  48.911  1.00  0.00     0.004 A 
HETATM   28  C5  UNL     1      20.881   1.600  48.551  1.00  0.00     0.018 A 
HETATM   29  C6  UNL     1      21.697   1.112  49.465  1.00  0.00     0.097 A 
ENDBRANCH   1  23
BRANCH  13  30
HETATM   30  O3  UNL     1      26.759   0.039  53.845  1.00  0.00    -0.354 OA
HETATM   31  C24 UNL     1      28.133   0.304  54.156  1.00  0.00     0.210 C 
ENDBRANCH  13  30
TORSDOF 5
ENDMDL
MODEL 6
REMARK VINA RESULT:      -8.2      4.970     10.386
REMARK  5 active torsions:
REMARK  status: ('A' for Active; 'I' for Inactive)
REMARK    1  A    between atoms: N1_7  and  C7_8 
REMARK       I    between atoms: N3_15  and  C13_16 
REMARK    2  A    between atoms: C13_16  and  C14_18 
REMARK    3  A    between atoms: C15_19  and  C16_20 
REMARK    4  A    between atoms: C16_20  and  N4_21 
REMARK    5  A    between atoms: C23_29  and  O3_30 
ROOT
HETATM    1  C7  UNL     1      33.333   7.289  47.034  1.00  0.00     0.050 A 
HETATM    2  C8  UNL     1      34.424   8.119  46.754  1.00  0.00     0.050 A 
HETATM    3  C9  UNL     1      34.196   9.482  46.893  1.00  0.00     0.119 A 
HETATM    4  N2  UNL     1      32.989   9.961  47.275  1.00  0.00    -0.258 NA
HETATM    5  C10 UNL     1      31.988   9.115  47.527  1.00  0.00     0.099 A 
HETATM    6  C11 UNL     1      32.095   7.750  47.424  1.00  0.00     0.018 A 
HETATM    7  C12 UNL     1      31.158   6.648  47.638  1.00  0.00     0.169 A 
HETATM    8  N3  UNL     1      29.864   7.057  48.086  1.00  0.00    -0.341 N 
HETATM    9  C13 UNL     1      29.180   5.830  48.225  1.00  0.00     0.243 C 
HETATM   10  O1  UNL     1      29.998   4.944  47.888  1.00  0.00    -0.268 OA
HETATM   11  C21 UNL     1      28.980   8.120  48.441  1.00  0.00     0.156 A 
HETATM   12  C22 UNL     1      29.656   9.414  48.266  1.00  0.00     0.032 A 
HETATM   13  C23 UNL     1      30.829   9.911  47.913  1.00  0.00     0.095 A 
ENDROOT
BRANCH   9  14
HETATM   14  C14 UNL     1      27.890   5.320  48.620  1.00  0.00     0.072 C 
HETATM   15  C15 UNL     1      27.274   4.232  49.008  1.00  0.00     0.008 C 
BRANCH  15  16
HETATM   16  C16 UNL     1      26.033   3.586  49.426  1.00  0.00     0.300 C 
BRANCH  16  17
HETATM   17  N4  UNL     1      25.905   3.616  50.889  1.00  0.00     0.096 N 
HETATM   18  C17 UNL     1      26.547   2.458  51.424  1.00  0.00     0.299 C 
HETATM   19  C18 UNL     1      25.585   1.385  51.894  1.00  0.00     0.198 C 
HETATM   20  O2  UNL     1      24.768   1.957  52.853  1.00  0.00    -0.388 OA
HETATM   21  C19 UNL     1      24.042   3.025  52.411  1.00  0.00     0.198 C 
HETATM   22  C20 UNL     1      24.497   3.683  51.161  1.00  0.00     0.299 C 
ENDBRANCH  16  17
ENDBRANCH  15  16
ENDBRANCH   9  14
BRANCH   1  23
HETATM   23  N1  UNL     1      33.611   5.902  46.881  1.00  0.00    -0.323 N 
HETATM   24  C2  UNL     1      34.319   5.119  47.836  1.00  0.00     0.029 A 
HETATM   25  C1  UNL     1      34.757   5.708  48.942  1.00  0.00     0.043 C 
HETATM   26  C3  UNL     1      34.523   3.706  47.536  1.00  0.00     0.029 A 
HETATM   27  C4  UNL     1      34.026   3.273  46.390  1.00  0.00     0.004 A 
HETATM   28  C5  UNL     1      33.301   4.061  45.408  1.00  0.00     0.018 A 
HETATM   29  C6  UNL     1      33.112   5.339  45.670  1.00  0.00     0.097 A 
ENDBRANCH   1  23
BRANCH  13  30
HETATM   30  O3  UNL     1      30.960  11.300  47.910  1.00  0.00    -0.354 OA
HETATM   31  C24 UNL     1      30.670  11.928  49.166  1.00  0.00     0.210 C 
ENDBRANCH  13  30
TORSDOF 5
ENDMDL
MODEL 7
REMARK VINA RESULT:      -8.1      5.334     10.115
REMARK  5 active torsions:
REMARK  status: ('A' for Active; 'I' for Inactive)
REMARK    1  A    between atoms: N1_7  and  C7_8 
REMARK       I    between atoms: N3_15  and  C13_16 
REMARK    2  A    between atoms: C13_16  and  C14_18 
REMARK    3  A    between atoms: C15_19  and  C16_20 
REMARK    4  A    between atoms: C16_20  and  N4_21 
REMARK    5  A    between atoms: C23_29  and  O3_30 
ROOT
HETATM    1  C7  UNL     1      33.630   7.316  47.068  1.00  0.00     0.050 A 
HETATM    2  C8  UNL     1      34.697   8.192  46.838  1.00  0.00     0.050 A 
HETATM    3  C9  UNL     1      34.420   9.540  47.019  1.00  0.00     0.119 A 
HETATM    4  N2  UNL     1      33.192   9.965  47.393  1.00  0.00    -0.258 NA
HETATM    5  C10 UNL     1      32.214   9.078  47.596  1.00  0.00     0.099 A 
HETATM    6  C11 UNL     1      32.370   7.722  47.448  1.00  0.00     0.018 A 
HETATM    7  C12 UNL     1      31.467   6.583  47.607  1.00  0.00     0.169 A 
HETATM    8  N3  UNL     1      30.152   6.933  48.043  1.00  0.00    -0.341 N 
HETATM    9  C13 UNL     1      29.507   5.679  48.127  1.00  0.00     0.243 C 
HETATM   10  O1  UNL     1      30.361   4.834  47.775  1.00  0.00    -0.268 OA
HETATM   11  C21 UNL     1      29.226   7.953  48.416  1.00  0.00     0.156 A 
HETATM   12  C22 UNL     1      29.861   9.274  48.298  1.00  0.00     0.032 A 
HETATM   13  C23 UNL     1      31.023   9.822  47.986  1.00  0.00     0.095 A 
ENDROOT
BRANCH   9  14
HETATM   14  C14 UNL     1      28.228   5.114  48.478  1.00  0.00     0.072 C 
HETATM   15  C15 UNL     1      27.010   5.436  48.834  1.00  0.00     0.008 C 
BRANCH  15  16
HETATM   16  C16 UNL     1      25.666   5.002  49.206  1.00  0.00     0.300 C 
BRANCH  16  17
HETATM   17  N4  UNL     1      25.173   5.778  50.351  1.00  0.00     0.096 N 
HETATM   18  C17 UNL     1      23.859   5.323  50.676  1.00  0.00     0.299 C 
HETATM   19  C18 UNL     1      22.757   6.268  50.241  1.00  0.00     0.198 C 
HETATM   20  O2  UNL     1      22.997   7.488  50.848  1.00  0.00    -0.388 OA
HETATM   21  C19 UNL     1      24.199   8.049  50.528  1.00  0.00     0.198 C 
HETATM   22  C20 UNL     1      25.233   7.155  49.948  1.00  0.00     0.299 C 
ENDBRANCH  16  17
ENDBRANCH  15  16
ENDBRANCH   9  14
BRANCH   1  23
HETATM   23  N1  UNL     1      33.958   5.946  46.873  1.00  0.00    -0.323 N 
HETATM   24  C2  UNL     1      34.565   5.121  47.862  1.00  0.00     0.029 A 
HETATM   25  C1  UNL     1      34.853   5.652  49.044  1.00  0.00     0.043 C 
HETATM   26  C3  UNL     1      34.837   3.731  47.511  1.00  0.00     0.029 A 
HETATM   27  C4  UNL     1      34.491   3.357  46.292  1.00  0.00     0.004 A 
HETATM   28  C5  UNL     1      33.871   4.187  45.274  1.00  0.00     0.018 A 
HETATM   29  C6  UNL     1      33.621   5.445  45.581  1.00  0.00     0.097 A 
ENDBRANCH   1  23
BRANCH  13  30
HETATM   30  O3  UNL     1      31.107  11.214  48.033  1.00  0.00    -0.354 OA
HETATM   31  C24 UNL     1      29.996  11.855  48.674  1.00  0.00     0.210 C 
ENDBRANCH  13  30
TORSDOF 5
ENDMDL
MODEL 8
REMARK VINA RESULT:      -8.0      3.566      9.840
REMARK  5 active torsions:
REMARK  status: ('A' for Active; 'I' for Inactive)
REMARK    1  A    between atoms: N1_7  and  C7_8 
REMARK       I    between atoms: N3_15  and  C13_16 
REMARK    2  A    between atoms: C13_16  and  C14_18 
REMARK    3  A    between atoms: C15_19  and  C16_20 
REMARK    4  A    between atoms: C16_20  and  N4_21 
REMARK    5  A    between atoms: C23_29  and  O3_30 
ROOT
HETATM    1  C7  UNL     1      31.348   8.564  47.868  1.00  0.00     0.050 A 
HETATM    2  C8  UNL     1      32.044   9.773  47.761  1.00  0.00     0.050 A 
HETATM    3  C9  UNL     1      31.308  10.919  48.034  1.00  0.00     0.119 A 
HETATM    4  N2  UNL     1      30.001  10.853  48.380  1.00  0.00    -0.258 NA
HETATM    5  C10 UNL     1      29.395   9.667  48.465  1.00  0.00     0.099 A 
HETATM    6  C11 UNL     1      30.019   8.469  48.218  1.00  0.00     0.018 A 
HETATM    7  C12 UNL     1      29.571   7.078  48.242  1.00  0.00     0.169 A 
HETATM    8  N3  UNL     1      28.209   6.906  48.639  1.00  0.00    -0.341 N 
HETATM    9  C13 UNL     1      28.044   5.505  48.592  1.00  0.00     0.243 C 
HETATM   10  O1  UNL     1      29.147   5.045  48.217  1.00  0.00    -0.268 OA
HETATM   11  C21 UNL     1      26.977   7.501  49.047  1.00  0.00     0.156 A 
HETATM   12  C22 UNL     1      27.110   8.966  49.065  1.00  0.00     0.032 A 
HETATM   13  C23 UNL     1      28.011   9.910  48.854  1.00  0.00     0.095 A 
ENDROOT
BRANCH   9  14
HETATM   14  C14 UNL     1      27.038   4.500  48.835  1.00  0.00     0.072 C 
HETATM   15  C15 UNL     1      26.331   3.943  49.785  1.00  0.00     0.008 C 
BRANCH  15  16
HETATM   16  C16 UNL     1      25.320   2.963  50.173  1.00  0.00     0.300 C 
BRANCH  16  17
HETATM   17  N4  UNL     1      25.462   2.613  51.592  1.00  0.00     0.096 N 
HETATM   18  C17 UNL     1      26.738   1.999  51.783  1.00  0.00     0.299 C 
HETATM   19  C18 UNL     1      26.675   0.497  51.966  1.00  0.00     0.198 C 
HETATM   20  O2  UNL     1      25.865   0.249  53.061  1.00  0.00    -0.388 OA
HETATM   21  C19 UNL     1      24.591   0.723  52.937  1.00  0.00     0.198 C 
HETATM   22  C20 UNL     1      24.350   1.759  51.901  1.00  0.00     0.299 C 
ENDBRANCH  16  17
ENDBRANCH  15  16
ENDBRANCH   9  14
BRANCH   1  23
HETATM   23  N1  UNL     1      32.139   7.417  47.582  1.00  0.00    -0.323 N 
HETATM   24  C2  UNL     1      32.319   6.875  46.279  1.00  0.00     0.029 A 
HETATM   25  C1  UNL     1      31.711   7.463  45.255  1.00  0.00     0.043 C 
HETATM   26  C3  UNL     1      33.166   5.694  46.147  1.00  0.00     0.029 A 
HETATM   27  C4  UNL     1      33.698   5.227  47.263  1.00  0.00     0.004 A 
HETATM   28  C5  UNL     1      33.523   5.771  48.599  1.00  0.00     0.018 A 
HETATM   29  C6  UNL     1      32.760   6.838  48.729  1.00  0.00     0.097 A 
ENDBRANCH   1  23
BRANCH  13  30
HETATM   30  O3  UNL     1      27.600  11.234  49.015  1.00  0.00    -0.354 OA
HETATM   31  C24 UNL     1      26.416  11.582  48.284  1.00  0.00     0.210 C 
ENDBRANCH  13  30
TORSDOF 5
ENDMDL
MODEL 9
REMARK VINA RESULT:      -7.7      2.734      9.919
REMARK  5 active torsions:
REMARK  status: ('A' for Active; 'I' for Inactive)
REMARK    1  A    between atoms: N1_7  and  C7_8 
REMARK       I    between atoms: N3_15  and  C13_16 
REMARK    2  A    between atoms: C13_16  and  C14_18 
REMARK    3  A    between atoms: C15_19  and  C16_20 
REMARK    4  A    between atoms: C16_20  and  N4_21 
REMARK    5  A    between atoms: C23_29  and  O3_30 
ROOT
HETATM    1  C7  UNL     1      25.320   8.561  47.544  1.00  0.00     0.050 A 
HETATM    2  C8  UNL     1      25.480   9.805  46.925  1.00  0.00     0.050 A 
HETATM    3  C9  UNL     1      26.772  10.118  46.525  1.00  0.00     0.119 A 
HETATM    4  N2  UNL     1      27.801   9.263  46.729  1.00  0.00    -0.258 NA
HETATM    5  C10 UNL     1      27.582   8.089  47.326  1.00  0.00     0.099 A 
HETATM    6  C11 UNL     1      26.349   7.672  47.764  1.00  0.00     0.018 A 
HETATM    7  C12 UNL     1      25.877   6.462  48.433  1.00  0.00     0.169 A 
HETATM    8  N3  UNL     1      26.890   5.478  48.653  1.00  0.00    -0.341 N 
HETATM    9  C13 UNL     1      26.180   4.434  49.284  1.00  0.00     0.243 C 
HETATM   10  O1  UNL     1      24.998   4.835  49.379  1.00  0.00    -0.268 OA
HETATM   11  C21 UNL     1      28.259   5.094  48.527  1.00  0.00     0.156 A 
HETATM   12  C22 UNL     1      29.030   6.183  47.909  1.00  0.00     0.032 A 
HETATM   13  C23 UNL     1      28.860   7.393  47.404  1.00  0.00     0.095 A 
ENDROOT
BRANCH   9  14
HETATM   14  C14 UNL     1      26.399   3.114  49.823  1.00  0.00     0.072 C 
HETATM   15  C15 UNL     1      26.512   2.454  50.948  1.00  0.00     0.008 C 
BRANCH  15  16
HETATM   16  C16 UNL     1      26.724   1.178  51.627  1.00  0.00     0.300 C 
BRANCH  16  17
HETATM   17  N4  UNL     1      26.032   1.165  52.922  1.00  0.00     0.096 N 
HETATM   18  C17 UNL     1      26.987   1.440  53.949  1.00  0.00     0.299 C 
HETATM   19  C18 UNL     1      27.392   0.221  54.752  1.00  0.00     0.198 C 
HETATM   20  O2  UNL     1      26.239  -0.306  55.309  1.00  0.00    -0.388 OA
HETATM   21  C19 UNL     1      25.296  -0.683  54.398  1.00  0.00     0.198 C 
HETATM   22  C20 UNL     1      25.416  -0.127  53.027  1.00  0.00     0.299 C 
ENDBRANCH  16  17
ENDBRANCH  15  16
ENDBRANCH   9  14
BRANCH   1  23
HETATM   23  N1  UNL     1      23.981   8.281  47.936  1.00  0.00    -0.323 N 
HETATM   24  C2  UNL     1      22.996   7.722  47.073  1.00  0.00     0.029 A 
HETATM   25  C1  UNL     1      23.333   7.444  45.819  1.00  0.00     0.043 C 
HETATM   26  C3  UNL     1      21.666   7.490  47.624  1.00  0.00     0.029 A 
HETATM   27  C4  UNL     1      21.491   7.823  48.891  1.00  0.00     0.004 A 
HETATM   28  C5  UNL     1      22.486   8.392  49.783  1.00  0.00     0.018 A 
HETATM   29  C6  UNL     1      23.692   8.606  49.294  1.00  0.00     0.097 A 
ENDBRANCH   1  23
BRANCH  13  30
HETATM   30  O3  UNL     1      29.992   8.046  46.914  1.00  0.00    -0.354 OA
HETATM   31  C24 UNL     1      31.219   7.668  47.551  1.00  0.00     0.210 C 
ENDBRANCH  13  30
TORSDOF 5
ENDMDL
