MODEL 1
REMARK VINA RESULT:      -9.0      0.000      0.000
REMARK  4 active torsions:
REMARK  status: ('A' for Active; 'I' for Inactive)
REMARK    1  A    between atoms: C7_7  and  C8_8 
REMARK    2  A    between atoms: C8_8  and  C9_9 
REMARK    3  A    between atoms: N1_11  and  C11_12 
REMARK    4  A    between atoms: C14_15  and  C15_16 
ROOT
HETATM    1  C9  UNL     1      24.941   2.242  52.988  1.00  0.00     0.101 C 
HETATM    2  C10 UNL     1      24.670   0.841  52.607  1.00  0.00     0.150 C 
HETATM    3  N1  UNL     1      24.472  -0.001  53.771  1.00  0.00    -0.360 N 
HETATM    4  C16 UNL     1      25.501  -0.359  54.726  1.00  0.00     0.274 C 
HETATM    5  N2  UNL     1      26.623  -1.046  54.109  1.00  0.00    -0.263 NA
HETATM    6  C17 UNL     1      27.470  -0.328  53.456  1.00  0.00     0.229 C 
HETATM    7  N3  UNL     1      27.944   0.929  52.961  1.00  0.00    -0.238 NA
HETATM    8  C18 UNL     1      27.306   2.032  53.189  1.00  0.00     0.204 C 
HETATM    9  N4  UNL     1      26.108   2.353  53.891  1.00  0.00    -0.378 N 
HETATM   10  H19 UNL     1      26.807   2.489  54.681  1.00  0.00     0.160 HD
ENDROOT
BRANCH   1  11
HETATM   11  C8  UNL     1      25.195   3.222  51.908  1.00  0.00     0.039 C 
BRANCH  11  12
HETATM   12  C7  UNL     1      25.253   2.782  50.502  1.00  0.00     0.039 C 
HETATM   13  C2  UNL     1      24.182   3.568  49.740  1.00  0.00    -0.065 C 
HETATM   14  C1  UNL     1      22.811   2.952  49.848  1.00  0.00     0.045 C 
HETATM   15  C3  UNL     1      24.268   4.683  49.029  1.00  0.00    -0.023 C 
HETATM   16  C4  UNL     1      25.447   5.278  49.186  1.00  0.00     0.012 C 
HETATM   17  C5  UNL     1      26.620   4.359  49.187  1.00  0.00    -0.002 C 
HETATM   18  C6  UNL     1      26.524   3.166  49.816  1.00  0.00    -0.018 C 
ENDBRANCH  11  12
ENDBRANCH   1  11
BRANCH   3  19
HETATM   19  C11 UNL     1      23.161  -0.556  54.051  1.00  0.00     0.046 A 
HETATM   20  C12 UNL     1      22.721  -1.434  54.957  1.00  0.00     0.031 A 
HETATM   21  C13 UNL     1      21.358  -1.328  54.447  1.00  0.00     0.021 A 
HETATM   22  C14 UNL     1      21.781  -0.456  53.543  1.00  0.00     0.074 A 
BRANCH  22  23
HETATM   23  C15 UNL     1      21.293   0.389  52.419  1.00  0.00     0.419 C 
HETATM   24  F1  UNL     1      21.846   0.014  51.208  1.00  0.00    -0.166 F 
HETATM   25  F2  UNL     1      21.501   1.730  52.686  1.00  0.00    -0.166 F 
HETATM   26  F3  UNL     1      19.926   0.191  52.285  1.00  0.00    -0.166 F 
ENDBRANCH  22  23
ENDBRANCH   3  19
TORSDOF 4
ENDMDL
MODEL 2
REMARK VINA RESULT:      -8.6      2.616      5.769
REMARK  4 active torsions:
REMARK  status: ('A' for Active; 'I' for Inactive)
REMARK    1  A    between atoms: C7_7  and  C8_8 
REMARK    2  A    between atoms: C8_8  and  C9_9 
REMARK    3  A    between atoms: N1_11  and  C11_12 
REMARK    4  A    between atoms: C14_15  and  C15_16 
ROOT
HETATM    1  C9  UNL     1      24.352   1.789  53.043  1.00  0.00     0.101 C 
HETATM    2  C10 UNL     1      25.261   1.018  52.172  1.00  0.00     0.150 C 
HETATM    3  N1  UNL     1      26.623   1.513  52.249  1.00  0.00    -0.360 N 
HETATM    4  C16 UNL     1      27.073   2.794  51.746  1.00  0.00     0.274 C 
HETATM    5  N2  UNL     1      26.829   2.956  50.324  1.00  0.00    -0.263 NA
HETATM    6  C17 UNL     1      25.625   3.229  49.957  1.00  0.00     0.229 C 
HETATM    7  N3  UNL     1      24.245   3.486  50.241  1.00  0.00    -0.238 NA
HETATM    8  C18 UNL     1      23.788   3.471  51.452  1.00  0.00     0.204 C 
HETATM    9  N4  UNL     1      24.378   3.234  52.727  1.00  0.00    -0.378 N 
HETATM   10  H19 UNL     1      24.486   4.292  52.686  1.00  0.00     0.160 HD
ENDROOT
BRANCH   1  11
HETATM   11  C8  UNL     1      22.918   1.423  53.053  1.00  0.00     0.039 C 
BRANCH  11  12
HETATM   12  C7  UNL     1      22.480   0.115  52.530  1.00  0.00     0.039 C 
HETATM   13  C2  UNL     1      21.597  -0.525  53.604  1.00  0.00    -0.065 C 
HETATM   14  C1  UNL     1      22.389  -1.245  54.665  1.00  0.00     0.045 C 
HETATM   15  C3  UNL     1      20.280  -0.537  53.751  1.00  0.00    -0.023 C 
HETATM   16  C4  UNL     1      19.685   0.313  52.917  1.00  0.00     0.012 C 
HETATM   17  C5  UNL     1      20.234   0.322  51.532  1.00  0.00    -0.002 C 
HETATM   18  C6  UNL     1      21.570   0.227  51.350  1.00  0.00    -0.018 C 
ENDBRANCH  11  12
ENDBRANCH   1  11
BRANCH   3  19
HETATM   19  C11 UNL     1      27.656   0.703  52.866  1.00  0.00     0.046 A 
HETATM   20  C12 UNL     1      28.793   1.008  53.498  1.00  0.00     0.031 A 
HETATM   21  C13 UNL     1      29.086  -0.403  53.721  1.00  0.00     0.021 A 
HETATM   22  C14 UNL     1      27.962  -0.721  53.097  1.00  0.00     0.074 A 
BRANCH  22  23
HETATM   23  C15 UNL     1      27.146  -1.896  52.686  1.00  0.00     0.419 C 
HETATM   24  F1  UNL     1      25.960  -1.980  53.393  1.00  0.00    -0.166 F 
HETATM   25  F2  UNL     1      27.884  -3.062  52.779  1.00  0.00    -0.166 F 
HETATM   26  F3  UNL     1      26.781  -1.732  51.358  1.00  0.00    -0.166 F 
ENDBRANCH  22  23
ENDBRANCH   3  19
TORSDOF 4
ENDMDL
MODEL 3
REMARK VINA RESULT:      -8.5      3.389      5.982
REMARK  4 active torsions:
REMARK  status: ('A' for Active; 'I' for Inactive)
REMARK    1  A    between atoms: C7_7  and  C8_8 
REMARK    2  A    between atoms: C8_8  and  C9_9 
REMARK    3  A    between atoms: N1_11  and  C11_12 
REMARK    4  A    between atoms: C14_15  and  C15_16 
ROOT
HETATM    1  C9  UNL     1      24.129   0.937  53.124  1.00  0.00     0.101 C 
HETATM    2  C10 UNL     1      24.966   0.395  52.036  1.00  0.00     0.150 C 
HETATM    3  N1  UNL     1      26.377   0.453  52.367  1.00  0.00    -0.360 N 
HETATM    4  C16 UNL     1      27.155   1.668  52.489  1.00  0.00     0.274 C 
HETATM    5  N2  UNL     1      27.152   2.461  51.273  1.00  0.00    -0.263 NA
HETATM    6  C17 UNL     1      26.097   3.155  51.021  1.00  0.00     0.229 C 
HETATM    7  N3  UNL     1      24.777   3.610  51.342  1.00  0.00    -0.238 NA
HETATM    8  C18 UNL     1      24.162   3.210  52.409  1.00  0.00     0.204 C 
HETATM    9  N4  UNL     1      24.505   2.325  53.473  1.00  0.00    -0.378 N 
HETATM   10  H19 UNL     1      24.840   3.240  53.901  1.00  0.00     0.160 HD
ENDROOT
BRANCH   1  11
HETATM   11  C8  UNL     1      22.663   0.974  52.925  1.00  0.00     0.039 C 
BRANCH  11  12
HETATM   12  C7  UNL     1      21.969  -0.162  52.290  1.00  0.00     0.039 C 
HETATM   13  C2  UNL     1      20.828  -0.571  53.226  1.00  0.00    -0.065 C 
HETATM   14  C1  UNL     1      21.274  -1.495  54.330  1.00  0.00     0.045 C 
HETATM   15  C3  UNL     1      19.544  -0.240  53.225  1.00  0.00    -0.023 C 
HETATM   16  C4  UNL     1      19.293   0.753  52.375  1.00  0.00     0.012 C 
HETATM   17  C5  UNL     1      19.989   0.647  51.062  1.00  0.00    -0.002 C 
HETATM   18  C6  UNL     1      21.267   0.208  51.024  1.00  0.00    -0.018 C 
ENDBRANCH  11  12
ENDBRANCH   1  11
BRANCH   3  19
HETATM   19  C11 UNL     1      27.118  -0.771  52.603  1.00  0.00     0.046 A 
HETATM   20  C12 UNL     1      26.889  -2.048  52.285  1.00  0.00     0.031 A 
HETATM   21  C13 UNL     1      28.132  -2.466  52.924  1.00  0.00     0.021 A 
HETATM   22  C14 UNL     1      28.373  -1.204  53.247  1.00  0.00     0.074 A 
BRANCH  22  23
HETATM   23  C15 UNL     1      29.375  -0.345  53.936  1.00  0.00     0.419 C 
HETATM   24  F1  UNL     1      30.521  -1.045  54.265  1.00  0.00    -0.166 F 
HETATM   25  F2  UNL     1      28.815   0.274  55.039  1.00  0.00    -0.166 F 
HETATM   26  F3  UNL     1      29.780   0.647  53.055  1.00  0.00    -0.166 F 
ENDBRANCH  22  23
ENDBRANCH   3  19
TORSDOF 4
ENDMDL
MODEL 4
REMARK VINA RESULT:      -8.3      2.445      4.939
REMARK  4 active torsions:
REMARK  status: ('A' for Active; 'I' for Inactive)
REMARK    1  A    between atoms: C7_7  and  C8_8 
REMARK    2  A    between atoms: C8_8  and  C9_9 
REMARK    3  A    between atoms: N1_11  and  C11_12 
REMARK    4  A    between atoms: C14_15  and  C15_16 
ROOT
HETATM    1  C9  UNL     1      24.279   1.950  51.912  1.00  0.00     0.101 C 
HETATM    2  C10 UNL     1      23.085   2.367  52.675  1.00  0.00     0.150 C 
HETATM    3  N1  UNL     1      21.861   2.067  51.958  1.00  0.00    -0.360 N 
HETATM    4  C16 UNL     1      21.427   2.720  50.739  1.00  0.00     0.274 C 
HETATM    5  N2  UNL     1      21.281   4.156  50.894  1.00  0.00    -0.263 NA
HETATM    6  C17 UNL     1      22.356   4.864  50.897  1.00  0.00     0.229 C 
HETATM    7  N3  UNL     1      23.780   5.001  50.821  1.00  0.00    -0.238 NA
HETATM    8  C18 UNL     1      24.553   3.972  50.680  1.00  0.00     0.204 C 
HETATM    9  N4  UNL     1      24.321   2.570  50.569  1.00  0.00    -0.378 N 
HETATM   10  H19 UNL     1      24.319   2.822  49.535  1.00  0.00     0.160 HD
ENDROOT
BRANCH   1  11
HETATM   11  C8  UNL     1      25.611   2.216  52.500  1.00  0.00     0.039 C 
BRANCH  11  12
HETATM   12  C7  UNL     1      26.717   1.260  52.300  1.00  0.00     0.039 C 
HETATM   13  C2  UNL     1      27.575   1.295  53.568  1.00  0.00    -0.065 C 
HETATM   14  C1  UNL     1      28.580   2.418  53.568  1.00  0.00     0.045 C 
HETATM   15  C3  UNL     1      27.565   0.519  54.642  1.00  0.00    -0.023 C 
HETATM   16  C4  UNL     1      26.502  -0.282  54.661  1.00  0.00     0.012 C 
HETATM   17  C5  UNL     1      26.157  -0.900  53.350  1.00  0.00    -0.002 C 
HETATM   18  C6  UNL     1      26.262  -0.161  52.224  1.00  0.00    -0.018 C 
ENDBRANCH  11  12
ENDBRANCH   1  11
BRANCH   3  19
HETATM   19  C11 UNL     1      20.960   1.044  52.454  1.00  0.00     0.046 A 
HETATM   20  C12 UNL     1      19.631   0.915  52.432  1.00  0.00     0.031 A 
HETATM   21  C13 UNL     1      19.710  -0.362  53.133  1.00  0.00     0.021 A 
HETATM   22  C14 UNL     1      21.029  -0.248  53.162  1.00  0.00     0.074 A 
BRANCH  22  23
HETATM   23  C15 UNL     1      22.253  -0.956  53.628  1.00  0.00     0.419 C 
HETATM   24  F1  UNL     1      22.951  -0.224  54.571  1.00  0.00    -0.166 F 
HETATM   25  F2  UNL     1      23.053  -1.312  52.557  1.00  0.00    -0.166 F 
HETATM   26  F3  UNL     1      21.864  -2.122  54.271  1.00  0.00    -0.166 F 
ENDBRANCH  22  23
ENDBRANCH   3  19
TORSDOF 4
ENDMDL
MODEL 5
REMARK VINA RESULT:      -8.1      1.614      2.184
REMARK  4 active torsions:
REMARK  status: ('A' for Active; 'I' for Inactive)
REMARK    1  A    between atoms: C7_7  and  C8_8 
REMARK    2  A    between atoms: C8_8  and  C9_9 
REMARK    3  A    between atoms: N1_11  and  C11_12 
REMARK    4  A    between atoms: C14_15  and  C15_16 
ROOT
HETATM    1  C9  UNL     1      24.509   2.894  52.049  1.00  0.00     0.101 C 
HETATM    2  C10 UNL     1      24.045   1.630  51.445  1.00  0.00     0.150 C 
HETATM    3  N1  UNL     1      23.389   0.779  52.419  1.00  0.00    -0.360 N 
HETATM    4  C16 UNL     1      24.048   0.119  53.527  1.00  0.00     0.274 C 
HETATM    5  N2  UNL     1      25.112  -0.771  53.097  1.00  0.00    -0.263 NA
HETATM    6  C17 UNL     1      26.229  -0.233  52.745  1.00  0.00     0.229 C 
HETATM    7  N3  UNL     1      27.070   0.906  52.531  1.00  0.00    -0.238 NA
HETATM    8  C18 UNL     1      26.649   2.111  52.747  1.00  0.00     0.204 C 
HETATM    9  N4  UNL     1      25.413   2.659  53.197  1.00  0.00    -0.378 N 
HETATM   10  H19 UNL     1      25.907   2.568  54.135  1.00  0.00     0.160 HD
ENDROOT
BRANCH   1  11
HETATM   11  C8  UNL     1      25.227   3.858  51.186  1.00  0.00     0.039 C 
BRANCH  11  12
HETATM   12  C7  UNL     1      25.333   3.622  49.734  1.00  0.00     0.039 C 
HETATM   13  C2  UNL     1      24.711   4.835  49.036  1.00  0.00    -0.065 C 
HETATM   14  C1  UNL     1      23.212   4.741  48.915  1.00  0.00     0.045 C 
HETATM   15  C3  UNL     1      25.269   5.932  48.543  1.00  0.00    -0.023 C 
HETATM   16  C4  UNL     1      26.545   6.039  48.904  1.00  0.00     0.012 C 
HETATM   17  C5  UNL     1      27.325   4.771  48.842  1.00  0.00    -0.002 C 
HETATM   18  C6  UNL     1      26.742   3.618  49.239  1.00  0.00    -0.018 C 
ENDBRANCH  11  12
ENDBRANCH   1  11
BRANCH   3  19
HETATM   19  C11 UNL     1      21.962   0.536  52.327  1.00  0.00     0.046 A 
HETATM   20  C12 UNL     1      21.002   1.046  51.551  1.00  0.00     0.031 A 
HETATM   21  C13 UNL     1      19.993   0.207  52.191  1.00  0.00     0.021 A 
HETATM   22  C14 UNL     1      20.936  -0.308  52.967  1.00  0.00     0.074 A 
BRANCH  22  23
HETATM   23  C15 UNL     1      21.136  -1.298  54.060  1.00  0.00     0.419 C 
HETATM   24  F1  UNL     1      21.484  -0.693  55.254  1.00  0.00    -0.166 F 
HETATM   25  F2  UNL     1      22.052  -2.264  53.686  1.00  0.00    -0.166 F 
HETATM   26  F3  UNL     1      19.926  -1.934  54.300  1.00  0.00    -0.166 F 
ENDBRANCH  22  23
ENDBRANCH   3  19
TORSDOF 4
ENDMDL
MODEL 6
REMARK VINA RESULT:      -7.9      2.774      4.530
REMARK  4 active torsions:
REMARK  status: ('A' for Active; 'I' for Inactive)
REMARK    1  A    between atoms: C7_7  and  C8_8 
REMARK    2  A    between atoms: C8_8  and  C9_9 
REMARK    3  A    between atoms: N1_11  and  C11_12 
REMARK    4  A    between atoms: C14_15  and  C15_16 
ROOT
HETATM    1  C9  UNL     1      22.917   1.625  50.762  1.00  0.00     0.101 C 
HETATM    2  C10 UNL     1      22.339   1.824  52.106  1.00  0.00     0.150 C 
HETATM    3  N1  UNL     1      21.576   0.669  52.537  1.00  0.00    -0.360 N 
HETATM    4  C16 UNL     1      20.322   0.235  51.957  1.00  0.00     0.274 C 
HETATM    5  N2  UNL     1      19.290   1.255  52.027  1.00  0.00    -0.263 NA
HETATM    6  C17 UNL     1      19.354   2.221  51.178  1.00  0.00     0.229 C 
HETATM    7  N3  UNL     1      19.974   2.898  50.078  1.00  0.00    -0.238 NA
HETATM    8  C18 UNL     1      21.052   2.444  49.523  1.00  0.00     0.204 C 
HETATM    9  N4  UNL     1      21.879   1.307  49.756  1.00  0.00    -0.378 N 
HETATM   10  H19 UNL     1      21.223   0.891  49.028  1.00  0.00     0.160 HD
ENDROOT
BRANCH   1  11
HETATM   11  C8  UNL     1      23.701   2.731  50.168  1.00  0.00     0.039 C 
BRANCH  11  12
HETATM   12  C7  UNL     1      24.604   3.539  51.010  1.00  0.00     0.039 C 
HETATM   13  C2  UNL     1      26.033   3.247  50.543  1.00  0.00    -0.065 C 
HETATM   14  C1  UNL     1      26.612   2.002  51.163  1.00  0.00     0.045 C 
HETATM   15  C3  UNL     1      26.817   3.895  49.693  1.00  0.00    -0.023 C 
HETATM   16  C4  UNL     1      26.148   4.830  49.022  1.00  0.00     0.012 C 
HETATM   17  C5  UNL     1      25.192   5.629  49.840  1.00  0.00    -0.002 C 
HETATM   18  C6  UNL     1      24.457   5.009  50.789  1.00  0.00    -0.018 C 
ENDBRANCH  11  12
ENDBRANCH   1  11
BRANCH   3  19
HETATM   19  C11 UNL     1      22.059  -0.154  53.629  1.00  0.00     0.046 A 
HETATM   20  C12 UNL     1      21.439  -0.884  54.560  1.00  0.00     0.031 A 
HETATM   21  C13 UNL     1      22.714  -1.291  55.139  1.00  0.00     0.021 A 
HETATM   22  C14 UNL     1      23.343  -0.571  54.222  1.00  0.00     0.074 A 
BRANCH  22  23
HETATM   23  C15 UNL     1      24.710  -0.191  53.772  1.00  0.00     0.419 C 
HETATM   24  F1  UNL     1      24.938   1.168  53.890  1.00  0.00    -0.166 F 
HETATM   25  F2  UNL     1      24.947  -0.642  52.486  1.00  0.00    -0.166 F 
HETATM   26  F3  UNL     1      25.632  -0.801  54.610  1.00  0.00    -0.166 F 
ENDBRANCH  22  23
ENDBRANCH   3  19
TORSDOF 4
ENDMDL
MODEL 7
REMARK VINA RESULT:      -7.8      2.641      4.402
REMARK  4 active torsions:
REMARK  status: ('A' for Active; 'I' for Inactive)
REMARK    1  A    between atoms: C7_7  and  C8_8 
REMARK    2  A    between atoms: C8_8  and  C9_9 
REMARK    3  A    between atoms: N1_11  and  C11_12 
REMARK    4  A    between atoms: C14_15  and  C15_16 
ROOT
HETATM    1  C9  UNL     1      23.364   1.842  51.089  1.00  0.00     0.101 C 
HETATM    2  C10 UNL     1      23.550   1.939  52.551  1.00  0.00     0.150 C 
HETATM    3  N1  UNL     1      23.667   0.629  53.163  1.00  0.00    -0.360 N 
HETATM    4  C16 UNL     1      22.596  -0.341  53.267  1.00  0.00     0.274 C 
HETATM    5  N2  UNL     1      21.445   0.169  53.990  1.00  0.00    -0.263 NA
HETATM    6  C17 UNL     1      20.661   0.976  53.362  1.00  0.00     0.229 C 
HETATM    7  N3  UNL     1      20.281   1.718  52.197  1.00  0.00    -0.238 NA
HETATM    8  C18 UNL     1      20.986   1.684  51.111  1.00  0.00     0.204 C 
HETATM    9  N4  UNL     1      22.188   1.017  50.735  1.00  0.00    -0.378 N 
HETATM   10  H19 UNL     1      21.483   0.291  50.406  1.00  0.00     0.160 HD
ENDROOT
BRANCH   1  11
HETATM   11  C8  UNL     1      23.199   3.097  50.322  1.00  0.00     0.039 C 
BRANCH  11  12
HETATM   12  C7  UNL     1      24.034   3.360  49.135  1.00  0.00     0.039 C 
HETATM   13  C2  UNL     1      23.794   4.817  48.730  1.00  0.00    -0.065 C 
HETATM   14  C1  UNL     1      22.567   4.995  47.873  1.00  0.00     0.045 C 
HETATM   15  C3  UNL     1      24.471   5.919  49.017  1.00  0.00    -0.023 C 
HETATM   16  C4  UNL     1      25.384   5.704  49.961  1.00  0.00     0.012 C 
HETATM   17  C5  UNL     1      26.147   4.433  49.820  1.00  0.00    -0.002 C 
HETATM   18  C6  UNL     1      25.499   3.314  49.424  1.00  0.00    -0.018 C 
ENDBRANCH  11  12
ENDBRANCH   1  11
BRANCH   3  19
HETATM   19  C11 UNL     1      24.931   0.204  53.732  1.00  0.00     0.046 A 
HETATM   20  C12 UNL     1      25.244  -0.613  54.741  1.00  0.00     0.031 A 
HETATM   21  C13 UNL     1      26.670  -0.390  54.525  1.00  0.00     0.021 A 
HETATM   22  C14 UNL     1      26.374   0.423  53.521  1.00  0.00     0.074 A 
BRANCH  22  23
HETATM   23  C15 UNL     1      27.014   1.286  52.490  1.00  0.00     0.419 C 
HETATM   24  F1  UNL     1      26.657   2.615  52.629  1.00  0.00    -0.166 F 
HETATM   25  F2  UNL     1      26.746   0.812  51.219  1.00  0.00    -0.166 F 
HETATM   26  F3  UNL     1      28.388   1.244  52.677  1.00  0.00    -0.166 F 
ENDBRANCH  22  23
ENDBRANCH   3  19
TORSDOF 4
ENDMDL
MODEL 8
REMARK VINA RESULT:      -7.8      4.147      7.532
REMARK  4 active torsions:
REMARK  status: ('A' for Active; 'I' for Inactive)
REMARK    1  A    between atoms: C7_7  and  C8_8 
REMARK    2  A    between atoms: C8_8  and  C9_9 
REMARK    3  A    between atoms: N1_11  and  C11_12 
REMARK    4  A    between atoms: C14_15  and  C15_16 
ROOT
HETATM    1  C9  UNL     1      24.217   3.811  52.005  1.00  0.00     0.101 C 
HETATM    2  C10 UNL     1      24.225   3.969  50.538  1.00  0.00     0.150 C 
HETATM    3  N1  UNL     1      24.903   5.186  50.134  1.00  0.00    -0.360 N 
HETATM    4  C16 UNL     1      24.418   6.529  50.372  1.00  0.00     0.274 C 
HETATM    5  N2  UNL     1      23.111   6.766  49.783  1.00  0.00    -0.263 NA
HETATM    6  C17 UNL     1      22.088   6.281  50.397  1.00  0.00     0.229 C 
HETATM    7  N3  UNL     1      21.490   5.551  51.474  1.00  0.00    -0.238 NA
HETATM    8  C18 UNL     1      22.206   5.022  52.415  1.00  0.00     0.204 C 
HETATM    9  N4  UNL     1      23.605   4.975  52.684  1.00  0.00    -0.378 N 
HETATM   10  H19 UNL     1      23.356   5.847  53.240  1.00  0.00     0.160 HD
ENDROOT
BRANCH   1  11
HETATM   11  C8  UNL     1      23.534   2.629  52.577  1.00  0.00     0.039 C 
BRANCH  11  12
HETATM   12  C7  UNL     1      23.537   1.344  51.852  1.00  0.00     0.039 C 
HETATM   13  C2  UNL     1      24.375   0.365  52.678  1.00  0.00    -0.065 C 
HETATM   14  C1  UNL     1      25.854   0.487  52.413  1.00  0.00     0.045 C 
HETATM   15  C3  UNL     1      24.015  -0.543  53.574  1.00  0.00    -0.023 C 
HETATM   16  C4  UNL     1      22.736  -0.416  53.916  1.00  0.00     0.012 C 
HETATM   17  C5  UNL     1      21.806  -0.146  52.783  1.00  0.00    -0.002 C 
HETATM   18  C6  UNL     1      22.192   0.695  51.798  1.00  0.00    -0.018 C 
ENDBRANCH  11  12
ENDBRANCH   1  11
BRANCH   3  19
HETATM   19  C11 UNL     1      26.171   5.111  49.433  1.00  0.00     0.046 A 
HETATM   20  C12 UNL     1      27.134   4.186  49.392  1.00  0.00     0.031 A 
HETATM   21  C13 UNL     1      27.922   4.998  48.471  1.00  0.00     0.021 A 
HETATM   22  C14 UNL     1      26.975   5.925  48.502  1.00  0.00     0.074 A 
BRANCH  22  23
HETATM   23  C15 UNL     1      26.631   7.261  47.944  1.00  0.00     0.419 C 
HETATM   24  F1  UNL     1      25.342   7.300  47.442  1.00  0.00    -0.166 F 
HETATM   25  F2  UNL     1      27.562   7.655  47.001  1.00  0.00    -0.166 F 
HETATM   26  F3  UNL     1      26.659   8.186  48.978  1.00  0.00    -0.166 F 
ENDBRANCH  22  23
ENDBRANCH   3  19
TORSDOF 4
ENDMDL
MODEL 9
REMARK VINA RESULT:      -7.6      8.150     10.840
REMARK  4 active torsions:
REMARK  status: ('A' for Active; 'I' for Inactive)
REMARK    1  A    between atoms: C7_7  and  C8_8 
REMARK    2  A    between atoms: C8_8  and  C9_9 
REMARK    3  A    between atoms: N1_11  and  C11_12 
REMARK    4  A    between atoms: C14_15  and  C15_16 
ROOT
HETATM    1  C9  UNL     1      31.159   7.159  48.791  1.00  0.00     0.101 C 
HETATM    2  C10 UNL     1      31.924   6.727  47.605  1.00  0.00     0.150 C 
HETATM    3  N1  UNL     1      33.324   6.516  47.918  1.00  0.00    -0.360 N 
HETATM    4  C16 UNL     1      34.267   7.559  48.265  1.00  0.00     0.274 C 
HETATM    5  N2  UNL     1      34.394   8.567  47.228  1.00  0.00    -0.263 NA
HETATM    6  C17 UNL     1      33.453   9.441  47.134  1.00  0.00     0.229 C 
HETATM    7  N3  UNL     1      32.208  10.009  47.558  1.00  0.00    -0.238 NA
HETATM    8  C18 UNL     1      31.528   9.499  48.535  1.00  0.00     0.204 C 
HETATM    9  N4  UNL     1      31.726   8.383  49.399  1.00  0.00    -0.378 N 
HETATM   10  H19 UNL     1      32.183   9.138  49.993  1.00  0.00     0.160 HD
ENDROOT
BRANCH   1  11
HETATM   11  C8  UNL     1      29.716   7.444  48.625  1.00  0.00     0.039 C 
BRANCH  11  12
HETATM   12  C7  UNL     1      28.965   6.857  47.500  1.00  0.00     0.039 C 
HETATM   13  C2  UNL     1      27.669   6.281  48.077  1.00  0.00    -0.065 C 
HETATM   14  C1  UNL     1      27.842   4.898  48.650  1.00  0.00     0.045 C 
HETATM   15  C3  UNL     1      26.452   6.799  48.161  1.00  0.00    -0.023 C 
HETATM   16  C4  UNL     1      26.447   8.094  47.855  1.00  0.00     0.012 C 
HETATM   17  C5  UNL     1      27.286   8.467  46.682  1.00  0.00    -0.002 C 
HETATM   18  C6  UNL     1      28.488   7.873  46.514  1.00  0.00    -0.018 C 
ENDBRANCH  11  12
ENDBRANCH   1  11
BRANCH   3  19
HETATM   19  C11 UNL     1      33.878   5.175  47.899  1.00  0.00     0.046 A 
HETATM   20  C12 UNL     1      34.988   4.644  48.419  1.00  0.00     0.031 A 
HETATM   21  C13 UNL     1      34.652   3.330  47.879  1.00  0.00     0.021 A 
HETATM   22  C14 UNL     1      33.547   3.844  47.358  1.00  0.00     0.074 A 
BRANCH  22  23
HETATM   23  C15 UNL     1      32.351   3.469  46.555  1.00  0.00     0.419 C 
HETATM   24  F1  UNL     1      32.401   3.986  45.274  1.00  0.00    -0.166 F 
HETATM   25  F2  UNL     1      31.187   3.829  47.211  1.00  0.00    -0.166 F 
HETATM   26  F3  UNL     1      32.342   2.090  46.404  1.00  0.00    -0.166 F 
ENDBRANCH  22  23
ENDBRANCH   3  19
TORSDOF 4
ENDMDL
