MODEL 1
REMARK VINA RESULT:      -7.3      0.000      0.000
REMARK  6 active torsions:
REMARK  status: ('A' for Active; 'I' for Inactive)
REMARK    1  A    between atoms: O1_2  and  C2_3 
REMARK    2  A    between atoms: C2_3  and  O2_4 
REMARK    3  A    between atoms: C8_11  and  N2_12 
REMARK    4  A    between atoms: N2_12  and  C9_13 
REMARK    5  A    between atoms: C13_17  and  C14_18 
REMARK    6  A    between atoms: C14_18  and  S1_19 
ROOT
HETATM    1  C2  UNL     1      27.633   0.267  53.927  1.00  0.00     0.205 A 
HETATM    2  C4  UNL     1      27.946   0.965  52.654  1.00  0.00     0.077 A 
HETATM    3  C5  UNL     1      26.858   1.522  52.146  1.00  0.00     0.070 A 
HETATM    4  N1  UNL     1      26.799   2.230  51.000  1.00  0.00    -0.260 NA
HETATM    5  C6  UNL     1      25.605   2.730  50.629  1.00  0.00     0.119 A 
HETATM    6  C7  UNL     1      24.523   2.487  51.443  1.00  0.00     0.049 A 
HETATM    7  C8  UNL     1      24.530   1.775  52.619  1.00  0.00     0.046 A 
HETATM    8  C16 UNL     1      25.773   1.283  52.956  1.00  0.00     0.021 A 
HETATM    9  C17 UNL     1      26.172   0.554  54.013  1.00  0.00     0.061 A 
ENDROOT
BRANCH   7  10
HETATM   10  N2  UNL     1      23.442   1.536  53.458  1.00  0.00    -0.355 N 
HETATM   11  H10 UNL     1      23.226   2.271  54.194  1.00  0.00     0.166 HD
BRANCH  10  12
HETATM   12  C9  UNL     1      22.499   0.513  53.583  1.00  0.00     0.033 A 
HETATM   13  C10 UNL     1      22.682  -0.666  54.303  1.00  0.00     0.029 A 
HETATM   14  C11 UNL     1      21.751  -1.664  54.451  1.00  0.00     0.003 A 
HETATM   15  C12 UNL     1      20.535  -1.494  53.842  1.00  0.00     0.008 A 
HETATM   16  C13 UNL     1      20.247  -0.368  53.106  1.00  0.00    -0.047 A 
HETATM   17  C15 UNL     1      21.238   0.573  53.014  1.00  0.00     0.037 A 
BRANCH  16  18
HETATM   18  C14 UNL     1      18.934  -0.189  52.449  1.00  0.00     0.109 C 
BRANCH  18  19
HETATM   19  S1  UNL     1      17.721  -1.322  53.184  1.00  0.00    -0.178 SA
HETATM   20  H16 UNL     1      18.356  -2.400  53.782  1.00  0.00     0.101 HD
ENDBRANCH  18  19
ENDBRANCH  16  18
ENDBRANCH  10  12
ENDBRANCH   7  10
BRANCH   1  21
HETATM   21  O1  UNL     1      28.324   0.784  55.016  1.00  0.00    -0.353 OA
HETATM   22  C1  UNL     1      29.203   1.739  54.566  1.00  0.00     0.206 C 
ENDBRANCH   1  21
BRANCH   1  23
HETATM   23  O2  UNL     1      27.861  -1.080  53.762  1.00  0.00    -0.353 OA
HETATM   24  C3  UNL     1      29.151  -1.320  53.358  1.00  0.00     0.206 C 
ENDBRANCH   1  23
TORSDOF 6
ENDMDL
MODEL 2
REMARK VINA RESULT:      -7.3      4.525      7.529
REMARK  6 active torsions:
REMARK  status: ('A' for Active; 'I' for Inactive)
REMARK    1  A    between atoms: O1_2  and  C2_3 
REMARK    2  A    between atoms: C2_3  and  O2_4 
REMARK    3  A    between atoms: C8_11  and  N2_12 
REMARK    4  A    between atoms: N2_12  and  C9_13 
REMARK    5  A    between atoms: C13_17  and  C14_18 
REMARK    6  A    between atoms: C14_18  and  S1_19 
ROOT
HETATM    1  C2  UNL     1      26.701   1.533  53.173  1.00  0.00     0.205 A 
HETATM    2  C4  UNL     1      25.260   1.689  53.491  1.00  0.00     0.077 A 
HETATM    3  C5  UNL     1      24.629   2.323  52.515  1.00  0.00     0.070 A 
HETATM    4  N1  UNL     1      23.316   2.624  52.491  1.00  0.00    -0.260 NA
HETATM    5  C6  UNL     1      22.837   3.275  51.414  1.00  0.00     0.119 A 
HETATM    6  C7  UNL     1      23.719   3.591  50.408  1.00  0.00     0.049 A 
HETATM    7  C8  UNL     1      25.064   3.308  50.382  1.00  0.00     0.046 A 
HETATM    8  C16 UNL     1      25.506   2.642  51.506  1.00  0.00     0.021 A 
HETATM    9  C17 UNL     1      26.733   2.201  51.839  1.00  0.00     0.061 A 
ENDROOT
BRANCH   7  10
HETATM   10  N2  UNL     1      25.963   3.611  49.360  1.00  0.00    -0.355 N 
HETATM   11  H10 UNL     1      26.244   2.820  48.710  1.00  0.00     0.166 HD
BRANCH  10  12
HETATM   12  C9  UNL     1      26.628   4.767  48.943  1.00  0.00     0.033 A 
HETATM   13  C10 UNL     1      26.045   6.024  48.805  1.00  0.00     0.029 A 
HETATM   14  C11 UNL     1      26.698   7.169  48.421  1.00  0.00     0.003 A 
HETATM   15  C12 UNL     1      28.038   7.077  48.150  1.00  0.00     0.008 A 
HETATM   16  C13 UNL     1      28.715   5.884  48.255  1.00  0.00    -0.047 A 
HETATM   17  C15 UNL     1      27.980   4.795  48.644  1.00  0.00     0.037 A 
BRANCH  16  18
HETATM   18  C14 UNL     1      30.161   5.787  47.961  1.00  0.00     0.109 C 
BRANCH  18  19
HETATM   19  S1  UNL     1      31.053   7.108  48.829  1.00  0.00    -0.178 SA
HETATM   20  H16 UNL     1      30.197   7.812  49.663  1.00  0.00     0.101 HD
ENDBRANCH  18  19
ENDBRANCH  16  18
ENDBRANCH  10  12
ENDBRANCH   7  10
BRANCH   1  21
HETATM   21  O1  UNL     1      27.101   0.205  53.093  1.00  0.00    -0.353 OA
HETATM   22  C1  UNL     1      26.148  -0.578  53.694  1.00  0.00     0.206 C 
ENDBRANCH   1  21
BRANCH   1  23
HETATM   23  O2  UNL     1      27.439   2.241  54.094  1.00  0.00    -0.353 OA
HETATM   24  C3  UNL     1      28.725   2.438  53.656  1.00  0.00     0.206 C 
ENDBRANCH   1  23
TORSDOF 6
ENDMDL
MODEL 3
REMARK VINA RESULT:      -7.3      3.198      5.753
REMARK  6 active torsions:
REMARK  status: ('A' for Active; 'I' for Inactive)
REMARK    1  A    between atoms: O1_2  and  C2_3 
REMARK    2  A    between atoms: C2_3  and  O2_4 
REMARK    3  A    between atoms: C8_11  and  N2_12 
REMARK    4  A    between atoms: N2_12  and  C9_13 
REMARK    5  A    between atoms: C13_17  and  C14_18 
REMARK    6  A    between atoms: C14_18  and  S1_19 
ROOT
HETATM    1  C2  UNL     1      26.701  -0.244  53.691  1.00  0.00     0.205 A 
HETATM    2  C4  UNL     1      25.369  -0.900  53.733  1.00  0.00     0.077 A 
HETATM    3  C5  UNL     1      24.418  -0.056  53.367  1.00  0.00     0.070 A 
HETATM    4  N1  UNL     1      23.102  -0.335  53.296  1.00  0.00    -0.260 NA
HETATM    5  C6  UNL     1      22.269   0.646  52.901  1.00  0.00     0.119 A 
HETATM    6  C7  UNL     1      22.815   1.870  52.594  1.00  0.00     0.049 A 
HETATM    7  C8  UNL     1      24.147   2.207  52.648  1.00  0.00     0.046 A 
HETATM    8  C16 UNL     1      24.959   1.170  53.058  1.00  0.00     0.021 A 
HETATM    9  C17 UNL     1      26.291   1.115  53.230  1.00  0.00     0.061 A 
ENDROOT
BRANCH   7  10
HETATM   10  N2  UNL     1      24.712   3.440  52.325  1.00  0.00    -0.355 N 
HETATM   11  H10 UNL     1      24.761   4.169  53.095  1.00  0.00     0.166 HD
BRANCH  10  12
HETATM   12  C9  UNL     1      25.270   3.996  51.171  1.00  0.00     0.033 A 
HETATM   13  C10 UNL     1      26.296   3.427  50.420  1.00  0.00     0.029 A 
HETATM   14  C11 UNL     1      26.831   3.955  49.271  1.00  0.00     0.003 A 
HETATM   15  C12 UNL     1      26.318   5.142  48.816  1.00  0.00     0.008 A 
HETATM   16  C13 UNL     1      25.303   5.790  49.480  1.00  0.00    -0.047 A 
HETATM   17  C15 UNL     1      24.832   5.188  50.618  1.00  0.00     0.037 A 
BRANCH  16  18
HETATM   18  C14 UNL     1      24.752   7.071  48.988  1.00  0.00     0.109 C 
BRANCH  18  19
HETATM   19  S1  UNL     1      24.033   8.001  50.372  1.00  0.00    -0.178 SA
HETATM   20  H16 UNL     1      24.442   9.326  50.338  1.00  0.00     0.101 HD
ENDBRANCH  18  19
ENDBRANCH  16  18
ENDBRANCH  10  12
ENDBRANCH   7  10
BRANCH   1  21
HETATM   21  O1  UNL     1      27.577  -0.848  52.799  1.00  0.00    -0.353 OA
HETATM   22  C1  UNL     1      27.126  -2.116  52.529  1.00  0.00     0.206 C 
ENDBRANCH   1  21
BRANCH   1  23
HETATM   23  O2  UNL     1      27.213  -0.196  54.967  1.00  0.00    -0.353 OA
HETATM   24  C3  UNL     1      28.533   0.182  54.959  1.00  0.00     0.206 C 
ENDBRANCH   1  23
TORSDOF 6
ENDMDL
MODEL 4
REMARK VINA RESULT:      -7.1      3.167      5.415
REMARK  6 active torsions:
REMARK  status: ('A' for Active; 'I' for Inactive)
REMARK    1  A    between atoms: O1_2  and  C2_3 
REMARK    2  A    between atoms: C2_3  and  O2_4 
REMARK    3  A    between atoms: C8_11  and  N2_12 
REMARK    4  A    between atoms: N2_12  and  C9_13 
REMARK    5  A    between atoms: C13_17  and  C14_18 
REMARK    6  A    between atoms: C14_18  and  S1_19 
ROOT
HETATM    1  C2  UNL     1      27.603   0.524  53.650  1.00  0.00     0.205 A 
HETATM    2  C4  UNL     1      26.722  -0.318  54.497  1.00  0.00     0.077 A 
HETATM    3  C5  UNL     1      25.462  -0.225  54.103  1.00  0.00     0.070 A 
HETATM    4  N1  UNL     1      24.413  -0.863  54.660  1.00  0.00    -0.260 NA
HETATM    5  C6  UNL     1      23.193  -0.653  54.129  1.00  0.00     0.119 A 
HETATM    6  C7  UNL     1      23.096   0.198  53.054  1.00  0.00     0.049 A 
HETATM    7  C8  UNL     1      24.131   0.872  52.449  1.00  0.00     0.046 A 
HETATM    8  C16 UNL     1      25.358   0.625  53.027  1.00  0.00     0.021 A 
HETATM    9  C17 UNL     1      26.582   1.091  52.721  1.00  0.00     0.061 A 
ENDROOT
BRANCH   7  10
HETATM   10  N2  UNL     1      24.044   1.725  51.349  1.00  0.00    -0.355 N 
HETATM   11  H10 UNL     1      23.905   1.277  50.397  1.00  0.00     0.166 HD
BRANCH  10  12
HETATM   12  C9  UNL     1      24.091   3.110  51.170  1.00  0.00     0.033 A 
HETATM   13  C10 UNL     1      23.456   4.048  51.983  1.00  0.00     0.029 A 
HETATM   14  C11 UNL     1      23.520   5.410  51.828  1.00  0.00     0.003 A 
HETATM   15  C12 UNL     1      24.269   5.899  50.789  1.00  0.00     0.008 A 
HETATM   16  C13 UNL     1      24.937   5.062  49.926  1.00  0.00    -0.047 A 
HETATM   17  C15 UNL     1      24.815   3.717  50.158  1.00  0.00     0.037 A 
BRANCH  16  18
HETATM   18  C14 UNL     1      25.745   5.592  48.805  1.00  0.00     0.109 C 
BRANCH  18  19
HETATM   19  S1  UNL     1      27.413   4.881  48.862  1.00  0.00    -0.178 SA
HETATM   20  H16 UNL     1      27.397   3.641  49.484  1.00  0.00     0.101 HD
ENDBRANCH  18  19
ENDBRANCH  16  18
ENDBRANCH  10  12
ENDBRANCH   7  10
BRANCH   1  21
HETATM   21  O1  UNL     1      28.567  -0.208  52.970  1.00  0.00    -0.353 OA
HETATM   22  C1  UNL     1      29.303  -0.922  53.883  1.00  0.00     0.206 C 
ENDBRANCH   1  21
BRANCH   1  23
HETATM   23  O2  UNL     1      28.158   1.512  54.431  1.00  0.00    -0.353 OA
HETATM   24  C3  UNL     1      28.679   2.521  53.659  1.00  0.00     0.206 C 
ENDBRANCH   1  23
TORSDOF 6
ENDMDL
MODEL 5
REMARK VINA RESULT:      -7.1      1.709      1.915
REMARK  6 active torsions:
REMARK  status: ('A' for Active; 'I' for Inactive)
REMARK    1  A    between atoms: O1_2  and  C2_3 
REMARK    2  A    between atoms: C2_3  and  O2_4 
REMARK    3  A    between atoms: C8_11  and  N2_12 
REMARK    4  A    between atoms: N2_12  and  C9_13 
REMARK    5  A    between atoms: C13_17  and  C14_18 
REMARK    6  A    between atoms: C14_18  and  S1_19 
ROOT
HETATM    1  C2  UNL     1      26.570  -0.388  53.833  1.00  0.00     0.205 A 
HETATM    2  C4  UNL     1      27.297   0.299  52.736  1.00  0.00     0.077 A 
HETATM    3  C5  UNL     1      26.517   1.189  52.142  1.00  0.00     0.070 A 
HETATM    4  N1  UNL     1      26.871   1.981  51.110  1.00  0.00    -0.260 NA
HETATM    5  C6  UNL     1      25.949   2.835  50.626  1.00  0.00     0.119 A 
HETATM    6  C7  UNL     1      24.706   2.844  51.215  1.00  0.00     0.049 A 
HETATM    7  C8  UNL     1      24.296   2.059  52.266  1.00  0.00     0.046 A 
HETATM    8  C16 UNL     1      25.273   1.203  52.727  1.00  0.00     0.021 A 
HETATM    9  C17 UNL     1      25.250   0.299  53.723  1.00  0.00     0.061 A 
ENDROOT
BRANCH   7  10
HETATM   10  N2  UNL     1      23.043   2.072  52.879  1.00  0.00    -0.355 N 
HETATM   11  H10 UNL     1      22.883   2.794  53.641  1.00  0.00     0.166 HD
BRANCH  10  12
HETATM   12  C9  UNL     1      21.867   1.331  52.734  1.00  0.00     0.033 A 
HETATM   13  C10 UNL     1      21.344   0.457  53.684  1.00  0.00     0.029 A 
HETATM   14  C11 UNL     1      20.176  -0.253  53.558  1.00  0.00     0.003 A 
HETATM   15  C12 UNL     1      19.457  -0.095  52.403  1.00  0.00     0.008 A 
HETATM   16  C13 UNL     1      19.880   0.744  51.398  1.00  0.00    -0.047 A 
HETATM   17  C15 UNL     1      21.058   1.411  51.613  1.00  0.00     0.037 A 
BRANCH  16  18
HETATM   18  C14 UNL     1      19.102   0.912  50.151  1.00  0.00     0.109 C 
BRANCH  18  19
HETATM   19  S1  UNL     1      19.767   2.306  49.198  1.00  0.00    -0.178 SA
HETATM   20  H16 UNL     1      19.682   2.054  47.836  1.00  0.00     0.101 HD
ENDBRANCH  18  19
ENDBRANCH  16  18
ENDBRANCH  10  12
ENDBRANCH   7  10
BRANCH   1  21
HETATM   21  O1  UNL     1      27.151  -0.189  55.079  1.00  0.00    -0.353 OA
HETATM   22  C1  UNL     1      28.467   0.157  54.901  1.00  0.00     0.206 C 
ENDBRANCH   1  21
BRANCH   1  23
HETATM   23  O2  UNL     1      26.456  -1.723  53.522  1.00  0.00    -0.353 OA
HETATM   24  C3  UNL     1      27.264  -2.058  52.464  1.00  0.00     0.206 C 
ENDBRANCH   1  23
TORSDOF 6
ENDMDL
MODEL 6
REMARK VINA RESULT:      -7.1      3.144      4.993
REMARK  6 active torsions:
REMARK  status: ('A' for Active; 'I' for Inactive)
REMARK    1  A    between atoms: O1_2  and  C2_3 
REMARK    2  A    between atoms: C2_3  and  O2_4 
REMARK    3  A    between atoms: C8_11  and  N2_12 
REMARK    4  A    between atoms: N2_12  and  C9_13 
REMARK    5  A    between atoms: C13_17  and  C14_18 
REMARK    6  A    between atoms: C14_18  and  S1_19 
ROOT
HETATM    1  C2  UNL     1      25.927   0.283  53.304  1.00  0.00     0.205 A 
HETATM    2  C4  UNL     1      25.322  -0.675  54.263  1.00  0.00     0.077 A 
HETATM    3  C5  UNL     1      24.003  -0.567  54.265  1.00  0.00     0.070 A 
HETATM    4  N1  UNL     1      23.155  -1.292  55.021  1.00  0.00    -0.260 NA
HETATM    5  C6  UNL     1      21.836  -1.052  54.897  1.00  0.00     0.119 A 
HETATM    6  C7  UNL     1      21.439  -0.082  54.006  1.00  0.00     0.049 A 
HETATM    7  C8  UNL     1      22.260   0.683  53.213  1.00  0.00     0.046 A 
HETATM    8  C16 UNL     1      23.600   0.401  53.376  1.00  0.00     0.021 A 
HETATM    9  C17 UNL     1      24.686   0.930  52.786  1.00  0.00     0.061 A 
ENDROOT
BRANCH   7  10
HETATM   10  N2  UNL     1      21.866   1.658  52.296  1.00  0.00    -0.355 N 
HETATM   11  H10 UNL     1      21.341   2.498  52.677  1.00  0.00     0.166 HD
BRANCH  10  12
HETATM   12  C9  UNL     1      21.999   1.823  50.915  1.00  0.00     0.033 A 
HETATM   13  C10 UNL     1      21.517   0.941  49.950  1.00  0.00     0.029 A 
HETATM   14  C11 UNL     1      21.622   1.110  48.591  1.00  0.00     0.003 A 
HETATM   15  C12 UNL     1      22.252   2.240  48.137  1.00  0.00     0.008 A 
HETATM   16  C13 UNL     1      22.765   3.177  49.003  1.00  0.00    -0.047 A 
HETATM   17  C15 UNL     1      22.614   2.923  50.341  1.00  0.00     0.037 A 
BRANCH  16  18
HETATM   18  C14 UNL     1      23.445   4.395  48.510  1.00  0.00     0.109 C 
BRANCH  18  19
HETATM   19  S1  UNL     1      24.931   4.711  49.504  1.00  0.00    -0.178 SA
HETATM   20  H16 UNL     1      26.022   4.966  48.687  1.00  0.00     0.101 HD
ENDBRANCH  18  19
ENDBRANCH  16  18
ENDBRANCH  10  12
ENDBRANCH   7  10
BRANCH   1  21
HETATM   21  O1  UNL     1      26.645  -0.340  52.291  1.00  0.00    -0.353 OA
HETATM   22  C1  UNL     1      26.960  -1.614  52.694  1.00  0.00     0.206 C 
ENDBRANCH   1  21
BRANCH   1  23
HETATM   23  O2  UNL     1      26.696   1.185  54.003  1.00  0.00    -0.353 OA
HETATM   24  C3  UNL     1      27.394   2.007  53.153  1.00  0.00     0.206 C 
ENDBRANCH   1  23
TORSDOF 6
ENDMDL
MODEL 7
REMARK VINA RESULT:      -7.0      3.098      5.374
REMARK  6 active torsions:
REMARK  status: ('A' for Active; 'I' for Inactive)
REMARK    1  A    between atoms: O1_2  and  C2_3 
REMARK    2  A    between atoms: C2_3  and  O2_4 
REMARK    3  A    between atoms: C8_11  and  N2_12 
REMARK    4  A    between atoms: N2_12  and  C9_13 
REMARK    5  A    between atoms: C13_17  and  C14_18 
REMARK    6  A    between atoms: C14_18  and  S1_19 
ROOT
HETATM    1  C2  UNL     1      25.806  -0.368  54.306  1.00  0.00     0.205 A 
HETATM    2  C4  UNL     1      24.819  -1.035  55.192  1.00  0.00     0.077 A 
HETATM    3  C5  UNL     1      23.597  -0.927  54.697  1.00  0.00     0.070 A 
HETATM    4  N1  UNL     1      22.474  -1.423  55.255  1.00  0.00    -0.260 NA
HETATM    5  C6  UNL     1      21.308  -1.221  54.614  1.00  0.00     0.119 A 
HETATM    6  C7  UNL     1      21.336  -0.523  53.429  1.00  0.00     0.049 A 
HETATM    7  C8  UNL     1      22.450   0.002  52.817  1.00  0.00     0.046 A 
HETATM    8  C16 UNL     1      23.619  -0.230  53.512  1.00  0.00     0.021 A 
HETATM    9  C17 UNL     1      24.888   0.120  53.236  1.00  0.00     0.061 A 
ENDROOT
BRANCH   7  10
HETATM   10  N2  UNL     1      22.491   0.698  51.609  1.00  0.00    -0.355 N 
HETATM   11  H10 UNL     1      22.295   0.145  50.724  1.00  0.00     0.166 HD
BRANCH  10  12
HETATM   12  C9  UNL     1      22.735   2.024  51.244  1.00  0.00     0.033 A 
HETATM   13  C10 UNL     1      21.885   3.098  51.501  1.00  0.00     0.029 A 
HETATM   14  C11 UNL     1      22.130   4.407  51.169  1.00  0.00     0.003 A 
HETATM   15  C12 UNL     1      23.309   4.691  50.529  1.00  0.00     0.008 A 
HETATM   16  C13 UNL     1      24.221   3.707  50.226  1.00  0.00    -0.047 A 
HETATM   17  C15 UNL     1      23.890   2.430  50.597  1.00  0.00     0.037 A 
BRANCH  16  18
HETATM   18  C14 UNL     1      25.492   4.016  49.536  1.00  0.00     0.109 C 
BRANCH  18  19
HETATM   19  S1  UNL     1      25.709   5.815  49.427  1.00  0.00    -0.178 SA
HETATM   20  H16 UNL     1      26.217   6.174  48.188  1.00  0.00     0.101 HD
ENDBRANCH  18  19
ENDBRANCH  16  18
ENDBRANCH  10  12
ENDBRANCH   7  10
BRANCH   1  21
HETATM   21  O1  UNL     1      26.764  -1.240  53.803  1.00  0.00    -0.353 OA
HETATM   22  C1  UNL     1      26.629  -1.303  52.438  1.00  0.00     0.206 C 
ENDBRANCH   1  21
BRANCH   1  23
HETATM   23  O2  UNL     1      26.372   0.686  54.985  1.00  0.00    -0.353 OA
HETATM   24  C3  UNL     1      26.526   1.779  54.169  1.00  0.00     0.206 C 
ENDBRANCH   1  23
TORSDOF 6
ENDMDL
MODEL 8
REMARK VINA RESULT:      -6.9      4.669      7.785
REMARK  6 active torsions:
REMARK  status: ('A' for Active; 'I' for Inactive)
REMARK    1  A    between atoms: O1_2  and  C2_3 
REMARK    2  A    between atoms: C2_3  and  O2_4 
REMARK    3  A    between atoms: C8_11  and  N2_12 
REMARK    4  A    between atoms: N2_12  and  C9_13 
REMARK    5  A    between atoms: C13_17  and  C14_18 
REMARK    6  A    between atoms: C14_18  and  S1_19 
ROOT
HETATM    1  C2  UNL     1      22.782   1.796  51.851  1.00  0.00     0.205 A 
HETATM    2  C4  UNL     1      23.570   1.482  53.069  1.00  0.00     0.077 A 
HETATM    3  C5  UNL     1      24.855   1.729  52.874  1.00  0.00     0.070 A 
HETATM    4  N1  UNL     1      25.838   1.551  53.779  1.00  0.00    -0.260 NA
HETATM    5  C6  UNL     1      27.097   1.855  53.411  1.00  0.00     0.119 A 
HETATM    6  C7  UNL     1      27.299   2.329  52.136  1.00  0.00     0.049 A 
HETATM    7  C8  UNL     1      26.335   2.529  51.177  1.00  0.00     0.046 A 
HETATM    8  C16 UNL     1      25.064   2.203  51.600  1.00  0.00     0.021 A 
HETATM    9  C17 UNL     1      23.883   2.263  50.959  1.00  0.00     0.061 A 
ENDROOT
BRANCH   7  10
HETATM   10  N2  UNL     1      26.528   3.022  49.887  1.00  0.00    -0.355 N 
HETATM   11  H10 UNL     1      26.731   2.315  49.121  1.00  0.00     0.166 HD
BRANCH  10  12
HETATM   12  C9  UNL     1      26.518   4.293  49.306  1.00  0.00     0.033 A 
HETATM   13  C10 UNL     1      25.403   5.123  49.208  1.00  0.00     0.029 A 
HETATM   14  C11 UNL     1      25.392   6.383  48.662  1.00  0.00     0.003 A 
HETATM   15  C12 UNL     1      26.574   6.874  48.170  1.00  0.00     0.008 A 
HETATM   16  C13 UNL     1      27.735   6.139  48.216  1.00  0.00    -0.047 A 
HETATM   17  C15 UNL     1      27.650   4.892  48.779  1.00  0.00     0.037 A 
BRANCH  16  18
HETATM   18  C14 UNL     1      29.009   6.671  47.684  1.00  0.00     0.109 C 
BRANCH  18  19
HETATM   19  S1  UNL     1      30.350   5.493  48.014  1.00  0.00    -0.178 SA
HETATM   20  H16 UNL     1      30.710   4.823  46.854  1.00  0.00     0.101 HD
ENDBRANCH  18  19
ENDBRANCH  16  18
ENDBRANCH  10  12
ENDBRANCH   7  10
BRANCH   1  21
HETATM   21  O1  UNL     1      21.832   2.789  52.058  1.00  0.00    -0.353 OA
HETATM   22  C1  UNL     1      21.602   3.433  50.868  1.00  0.00     0.206 C 
ENDBRANCH   1  21
BRANCH   1  23
HETATM   23  O2  UNL     1      22.221   0.635  51.373  1.00  0.00    -0.353 OA
HETATM   24  C3  UNL     1      21.544  -0.035  52.362  1.00  0.00     0.206 C 
ENDBRANCH   1  23
TORSDOF 6
ENDMDL
MODEL 9
REMARK VINA RESULT:      -6.9      4.386      7.311
REMARK  6 active torsions:
REMARK  status: ('A' for Active; 'I' for Inactive)
REMARK    1  A    between atoms: O1_2  and  C2_3 
REMARK    2  A    between atoms: C2_3  and  O2_4 
REMARK    3  A    between atoms: C8_11  and  N2_12 
REMARK    4  A    between atoms: N2_12  and  C9_13 
REMARK    5  A    between atoms: C13_17  and  C14_18 
REMARK    6  A    between atoms: C14_18  and  S1_19 
ROOT
HETATM    1  C2  UNL     1      22.272   0.457  52.761  1.00  0.00     0.205 A 
HETATM    2  C4  UNL     1      23.448  -0.326  53.214  1.00  0.00     0.077 A 
HETATM    3  C5  UNL     1      24.574   0.261  52.841  1.00  0.00     0.070 A 
HETATM    4  N1  UNL     1      25.819  -0.191  53.094  1.00  0.00    -0.260 NA
HETATM    5  C6  UNL     1      26.858   0.534  52.639  1.00  0.00     0.119 A 
HETATM    6  C7  UNL     1      26.583   1.690  51.946  1.00  0.00     0.049 A 
HETATM    7  C8  UNL     1      25.336   2.194  51.662  1.00  0.00     0.046 A 
HETATM    8  C16 UNL     1      24.306   1.417  52.147  1.00  0.00     0.021 A 
HETATM    9  C17 UNL     1      22.973   1.580  52.072  1.00  0.00     0.061 A 
ENDROOT
BRANCH   7  10
HETATM   10  N2  UNL     1      25.047   3.372  50.973  1.00  0.00    -0.355 N 
HETATM   11  H10 UNL     1      24.054   3.740  51.036  1.00  0.00     0.166 HD
BRANCH  10  12
HETATM   12  C9  UNL     1      25.782   4.251  50.172  1.00  0.00     0.033 A 
HETATM   13  C10 UNL     1      26.908   3.909  49.427  1.00  0.00     0.029 A 
HETATM   14  C11 UNL     1      27.619   4.761  48.619  1.00  0.00     0.003 A 
HETATM   15  C12 UNL     1      27.191   6.060  48.531  1.00  0.00     0.008 A 
HETATM   16  C13 UNL     1      26.090   6.505  49.224  1.00  0.00    -0.047 A 
HETATM   17  C15 UNL     1      25.444   5.583  50.006  1.00  0.00     0.037 A 
BRANCH  16  18
HETATM   18  C14 UNL     1      25.630   7.908  49.128  1.00  0.00     0.109 C 
BRANCH  18  19
HETATM   19  S1  UNL     1      27.031   8.984  48.712  1.00  0.00    -0.178 SA
HETATM   20  H16 UNL     1      26.602  10.284  48.488  1.00  0.00     0.101 HD
ENDBRANCH  18  19
ENDBRANCH  16  18
ENDBRANCH  10  12
ENDBRANCH   7  10
BRANCH   1  21
HETATM   21  O1  UNL     1      21.481   0.910  53.809  1.00  0.00    -0.353 OA
HETATM   22  C1  UNL     1      21.195  -0.150  54.634  1.00  0.00     0.206 C 
ENDBRANCH   1  21
BRANCH   1  23
HETATM   23  O2  UNL     1      21.555  -0.299  51.862  1.00  0.00    -0.353 OA
HETATM   24  C3  UNL     1      20.928   0.495  50.933  1.00  0.00     0.206 C 
ENDBRANCH   1  23
TORSDOF 6
ENDMDL
