MODEL 1
REMARK VINA RESULT:      -8.9      0.000      0.000
REMARK  5 active torsions:
REMARK  status: ('A' for Active; 'I' for Inactive)
REMARK    1  A    between atoms: C2_2  and  C3_3 
REMARK       I    between atoms: C3_3  and  N1_5 
REMARK    2  A    between atoms: N1_5  and  C4_6 
REMARK    3  A    between atoms: C7_9  and  C8_10 
REMARK    4  A    between atoms: C8_10  and  C9_11 
REMARK    5  A    between atoms: C10_12  and  C11_13 
ROOT
HETATM    1  C4  UNL     1      31.607   6.132  47.737  1.00  0.00     0.029 C 
HETATM    2  C5  UNL     1      30.552   6.918  47.528  1.00  0.00     0.077 C 
HETATM    3  C6  UNL     1      29.119   7.059  47.603  1.00  0.00    -0.063 C 
HETATM    4  C7  UNL     1      28.015   6.378  47.990  1.00  0.00    -0.071 C 
HETATM    5  C12 UNL     1      26.679   6.923  47.938  1.00  0.00     0.056 C 
HETATM    6  C13 UNL     1      26.372   7.778  49.187  1.00  0.00     0.154 C 
HETATM    7  N2  UNL     1      27.217   8.896  49.263  1.00  0.00    -0.284 NA
HETATM    8  C14 UNL     1      27.848   9.412  50.195  1.00  0.00     0.202 C 
HETATM    9  N3  UNL     1      28.492  10.530  49.506  1.00  0.00    -0.332 N 
HETATM   10  C15 UNL     1      29.794  10.302  48.888  1.00  0.00     0.139 C 
HETATM   11  C16 UNL     1      29.479   9.373  47.956  1.00  0.00     0.034 C 
HETATM   12  C17 UNL     1      28.880   8.386  47.035  1.00  0.00     0.066 C 
HETATM   13  O2  UNL     1      31.210  10.639  48.851  1.00  0.00    -0.336 OA
HETATM   14  C18 UNL     1      31.576  11.628  47.906  1.00  0.00     0.179 C 
HETATM   15  C19 UNL     1      32.053  11.195  46.589  1.00  0.00     0.057 C 
HETATM   16  C20 UNL     1      33.323  10.445  46.459  1.00  0.00     0.274 C 
HETATM   17  N4  UNL     1      33.372   9.246  47.185  1.00  0.00     0.093 N 
HETATM   18  C21 UNL     1      34.752   8.823  47.443  1.00  0.00     0.298 C 
HETATM   19  C22 UNL     1      34.815   7.547  48.173  1.00  0.00     0.199 C 
HETATM   20  O3  UNL     1      34.004   6.520  47.703  1.00  0.00    -0.377 OA
HETATM   21  C23 UNL     1      32.712   7.075  47.661  1.00  0.00     0.196 C 
HETATM   22  C24 UNL     1      32.790   8.056  46.528  1.00  0.00     0.310 C 
HETATM   23  H19 UNL     1      28.616  11.498  49.141  1.00  0.00     0.168 HD
ENDROOT
BRANCH   1  24
HETATM   24  N1  UNL     1      32.242   4.871  48.153  1.00  0.00    -0.331 N 
HETATM   25  C3  UNL     1      32.465   3.877  47.164  1.00  0.00     0.221 C 
HETATM   26  O1  UNL     1      32.122   4.102  45.981  1.00  0.00    -0.273 OA
HETATM   27  H6  UNL     1      32.453   4.881  49.179  1.00  0.00     0.168 HD
BRANCH  25  28
HETATM   28  C2  UNL     1      33.115   2.691  47.832  1.00  0.00     0.098 C 
HETATM   29  C1  UNL     1      32.678   1.407  47.140  1.00  0.00     0.014 C 
ENDBRANCH  25  28
ENDBRANCH   1  24
BRANCH   4  30
HETATM   30  C8  UNL     1      28.170   5.023  48.538  1.00  0.00     0.061 C 
BRANCH  30  31
HETATM   31  C9  UNL     1      26.830   4.572  49.021  1.00  0.00    -0.024 C 
HETATM   32  C10 UNL     1      26.485   3.561  49.808  1.00  0.00     0.000 C 
BRANCH  32  33
HETATM   33  C11 UNL     1      25.228   2.994  50.367  1.00  0.00     0.249 C 
HETATM   34  F1  UNL     1      24.262   2.879  49.371  1.00  0.00    -0.251 F 
ENDBRANCH  32  33
ENDBRANCH  30  31
ENDBRANCH   4  30
TORSDOF 5
ENDMDL
MODEL 2
REMARK VINA RESULT:      -8.7      8.968     12.274
REMARK  5 active torsions:
REMARK  status: ('A' for Active; 'I' for Inactive)
REMARK    1  A    between atoms: C2_2  and  C3_3 
REMARK       I    between atoms: C3_3  and  N1_5 
REMARK    2  A    between atoms: N1_5  and  C4_6 
REMARK    3  A    between atoms: C7_9  and  C8_10 
REMARK    4  A    between atoms: C8_10  and  C9_11 
REMARK    5  A    between atoms: C10_12  and  C11_13 
ROOT
HETATM    1  C4  UNL     1      21.946   0.678  52.666  1.00  0.00     0.029 C 
HETATM    2  C5  UNL     1      20.985   0.799  51.751  1.00  0.00     0.077 C 
HETATM    3  C6  UNL     1      19.630   0.479  51.376  1.00  0.00    -0.063 C 
HETATM    4  C7  UNL     1      18.535  -0.167  51.842  1.00  0.00    -0.071 C 
HETATM    5  C12 UNL     1      17.279  -0.227  51.134  1.00  0.00     0.056 C 
HETATM    6  C13 UNL     1      16.427   1.034  51.393  1.00  0.00     0.154 C 
HETATM    7  N2  UNL     1      17.060   2.190  50.911  1.00  0.00    -0.284 NA
HETATM    8  C14 UNL     1      17.223   3.321  51.387  1.00  0.00     0.202 C 
HETATM    9  N3  UNL     1      17.971   3.968  50.309  1.00  0.00    -0.332 N 
HETATM   10  C15 UNL     1      19.427   3.866  50.323  1.00  0.00     0.139 C 
HETATM   11  C16 UNL     1      19.594   2.529  50.193  1.00  0.00     0.034 C 
HETATM   12  C17 UNL     1      19.503   1.063  50.041  1.00  0.00     0.066 C 
HETATM   13  O2  UNL     1      20.704   4.559  50.407  1.00  0.00    -0.336 OA
HETATM   14  C18 UNL     1      21.311   4.872  49.166  1.00  0.00     0.179 C 
HETATM   15  C19 UNL     1      22.305   3.942  48.620  1.00  0.00     0.057 C 
HETATM   16  C20 UNL     1      23.591   3.722  49.318  1.00  0.00     0.274 C 
HETATM   17  N4  UNL     1      23.471   3.262  50.638  1.00  0.00     0.093 N 
HETATM   18  C21 UNL     1      24.675   3.548  51.425  1.00  0.00     0.298 C 
HETATM   19  C22 UNL     1      24.573   3.037  52.801  1.00  0.00     0.199 C 
HETATM   20  O3  UNL     1      24.116   1.733  52.949  1.00  0.00    -0.377 OA
HETATM   21  C23 UNL     1      22.894   1.700  52.251  1.00  0.00     0.196 C 
HETATM   22  C24 UNL     1      23.311   1.803  50.813  1.00  0.00     0.310 C 
HETATM   23  H19 UNL     1      18.132   4.521  49.441  1.00  0.00     0.168 HD
ENDROOT
BRANCH   1  24
HETATM   24  N1  UNL     1      22.489   0.184  53.942  1.00  0.00    -0.331 N 
HETATM   25  C3  UNL     1      22.406  -1.208  54.210  1.00  0.00     0.221 C 
HETATM   26  O1  UNL     1      21.882  -1.965  53.360  1.00  0.00    -0.273 OA
HETATM   27  H6  UNL     1      22.884   0.971  54.509  1.00  0.00     0.168 HD
BRANCH  25  28
HETATM   28  C2  UNL     1      23.018  -1.461  55.564  1.00  0.00     0.098 C 
HETATM   29  C1  UNL     1      24.505  -1.138  55.525  1.00  0.00     0.014 C 
ENDBRANCH  25  28
ENDBRANCH   1  24
BRANCH   4  30
HETATM   30  C8  UNL     1      18.596  -0.811  53.162  1.00  0.00     0.061 C 
BRANCH  30  31
HETATM   31  C9  UNL     1      17.618  -1.940  53.163  1.00  0.00    -0.024 C 
HETATM   32  C10 UNL     1      17.659  -3.125  53.759  1.00  0.00     0.000 C 
BRANCH  32  33
HETATM   33  C11 UNL     1      16.787  -4.327  53.856  1.00  0.00     0.249 C 
HETATM   34  F1  UNL     1      17.377  -5.408  53.205  1.00  0.00    -0.251 F 
ENDBRANCH  32  33
ENDBRANCH  30  31
ENDBRANCH   4  30
TORSDOF 5
ENDMDL
MODEL 3
REMARK VINA RESULT:      -8.6      7.434     12.003
REMARK  5 active torsions:
REMARK  status: ('A' for Active; 'I' for Inactive)
REMARK    1  A    between atoms: C2_2  and  C3_3 
REMARK       I    between atoms: C3_3  and  N1_5 
REMARK    2  A    between atoms: N1_5  and  C4_6 
REMARK    3  A    between atoms: C7_9  and  C8_10 
REMARK    4  A    between atoms: C8_10  and  C9_11 
REMARK    5  A    between atoms: C10_12  and  C11_13 
ROOT
HETATM    1  C4  UNL     1      22.795   3.651  51.229  1.00  0.00     0.029 C 
HETATM    2  C5  UNL     1      22.715   2.339  51.447  1.00  0.00     0.077 C 
HETATM    3  C6  UNL     1      23.295   1.186  52.090  1.00  0.00    -0.063 C 
HETATM    4  C7  UNL     1      24.322   0.841  52.902  1.00  0.00    -0.071 C 
HETATM    5  C12 UNL     1      24.546  -0.501  53.382  1.00  0.00     0.056 C 
HETATM    6  C13 UNL     1      23.690  -0.802  54.632  1.00  0.00     0.154 C 
HETATM    7  N2  UNL     1      22.319  -0.746  54.340  1.00  0.00    -0.284 NA
HETATM    8  C14 UNL     1      21.353  -0.243  54.929  1.00  0.00     0.202 C 
HETATM    9  N3  UNL     1      20.263  -0.591  54.018  1.00  0.00    -0.332 N 
HETATM   10  C15 UNL     1      19.950   0.333  52.932  1.00  0.00     0.139 C 
HETATM   11  C16 UNL     1      21.103   0.300  52.224  1.00  0.00     0.034 C 
HETATM   12  C17 UNL     1      22.443   0.085  51.641  1.00  0.00     0.066 C 
HETATM   13  O2  UNL     1      18.972   1.221  52.321  1.00  0.00    -0.336 OA
HETATM   14  C18 UNL     1      18.188   0.648  51.290  1.00  0.00     0.179 C 
HETATM   15  C19 UNL     1      18.623   0.824  49.901  1.00  0.00     0.057 C 
HETATM   16  C20 UNL     1      18.646   2.170  49.286  1.00  0.00     0.274 C 
HETATM   17  N4  UNL     1      19.450   3.106  49.954  1.00  0.00     0.093 N 
HETATM   18  C21 UNL     1      19.052   4.483  49.642  1.00  0.00     0.298 C 
HETATM   19  C22 UNL     1      19.911   5.474  50.309  1.00  0.00     0.199 C 
HETATM   20  O3  UNL     1      21.283   5.265  50.225  1.00  0.00    -0.377 OA
HETATM   21  C23 UNL     1      21.475   3.953  50.696  1.00  0.00     0.196 C 
HETATM   22  C24 UNL     1      20.887   3.102  49.610  1.00  0.00     0.310 C 
HETATM   23  H19 UNL     1      19.481  -1.149  53.615  1.00  0.00     0.168 HD
ENDROOT
BRANCH   1  24
HETATM   24  N1  UNL     1      23.431   4.970  51.378  1.00  0.00    -0.331 N 
HETATM   25  C3  UNL     1      24.459   5.323  50.465  1.00  0.00     0.221 C 
HETATM   26  O1  UNL     1      24.788   4.512  49.569  1.00  0.00    -0.273 OA
HETATM   27  H6  UNL     1      23.014   5.495  52.182  1.00  0.00     0.168 HD
BRANCH  25  28
HETATM   28  C2  UNL     1      24.949   6.703  50.824  1.00  0.00     0.098 C 
HETATM   29  C1  UNL     1      23.787   7.687  50.791  1.00  0.00     0.014 C 
ENDBRANCH  25  28
ENDBRANCH   1  24
BRANCH   4  30
HETATM   30  C8  UNL     1      25.244   1.887  53.367  1.00  0.00     0.061 C 
BRANCH  30  31
HETATM   31  C9  UNL     1      26.468   1.212  53.895  1.00  0.00    -0.024 C 
HETATM   32  C10 UNL     1      27.754   1.421  53.640  1.00  0.00     0.000 C 
BRANCH  32  33
HETATM   33  C11 UNL     1      29.058   0.849  54.072  1.00  0.00     0.249 C 
HETATM   34  F1  UNL     1      28.867  -0.077  55.094  1.00  0.00    -0.251 F 
ENDBRANCH  32  33
ENDBRANCH  30  31
ENDBRANCH   4  30
TORSDOF 5
ENDMDL
MODEL 4
REMARK VINA RESULT:      -8.6      7.541     11.319
REMARK  5 active torsions:
REMARK  status: ('A' for Active; 'I' for Inactive)
REMARK    1  A    between atoms: C2_2  and  C3_3 
REMARK       I    between atoms: C3_3  and  N1_5 
REMARK    2  A    between atoms: N1_5  and  C4_6 
REMARK    3  A    between atoms: C7_9  and  C8_10 
REMARK    4  A    between atoms: C8_10  and  C9_11 
REMARK    5  A    between atoms: C10_12  and  C11_13 
ROOT
HETATM    1  C4  UNL     1      21.370   1.620  52.223  1.00  0.00     0.029 C 
HETATM    2  C5  UNL     1      22.468   2.365  52.351  1.00  0.00     0.077 C 
HETATM    3  C6  UNL     1      23.853   2.415  52.749  1.00  0.00    -0.063 C 
HETATM    4  C7  UNL     1      24.837   1.620  53.230  1.00  0.00    -0.071 C 
HETATM    5  C12 UNL     1      26.186   2.073  53.471  1.00  0.00     0.056 C 
HETATM    6  C13 UNL     1      27.031   2.036  52.179  1.00  0.00     0.154 C 
HETATM    7  N2  UNL     1      26.522   2.912  51.208  1.00  0.00    -0.284 NA
HETATM    8  C14 UNL     1      26.326   2.797  49.991  1.00  0.00     0.202 C 
HETATM    9  N3  UNL     1      25.781   4.116  49.674  1.00  0.00    -0.332 N 
HETATM   10  C15 UNL     1      24.338   4.310  49.783  1.00  0.00     0.139 C 
HETATM   11  C16 UNL     1      24.147   4.094  51.105  1.00  0.00     0.034 C 
HETATM   12  C17 UNL     1      24.209   3.820  52.555  1.00  0.00     0.066 C 
HETATM   13  O2  UNL     1      23.089   4.626  49.105  1.00  0.00    -0.336 OA
HETATM   14  C18 UNL     1      22.696   5.986  49.154  1.00  0.00     0.179 C 
HETATM   15  C19 UNL     1      21.769   6.409  50.208  1.00  0.00     0.057 C 
HETATM   16  C20 UNL     1      20.382   5.893  50.239  1.00  0.00     0.274 C 
HETATM   17  N4  UNL     1      20.277   4.496  50.315  1.00  0.00     0.093 N 
HETATM   18  C21 UNL     1      18.974   4.023  49.835  1.00  0.00     0.298 C 
HETATM   19  C22 UNL     1      18.840   2.561  49.944  1.00  0.00     0.199 C 
HETATM   20  O3  UNL     1      19.222   1.990  51.153  1.00  0.00    -0.377 OA
HETATM   21  C23 UNL     1      20.536   2.446  51.365  1.00  0.00     0.196 C 
HETATM   22  C24 UNL     1      20.355   3.905  51.668  1.00  0.00     0.310 C 
HETATM   23  H19 UNL     1      25.778   5.117  49.385  1.00  0.00     0.168 HD
ENDROOT
BRANCH   1  24
HETATM   24  N1  UNL     1      20.617   0.362  52.351  1.00  0.00    -0.331 N 
HETATM   25  C3  UNL     1      20.332  -0.118  53.656  1.00  0.00     0.221 C 
HETATM   26  O1  UNL     1      20.724   0.539  54.649  1.00  0.00    -0.273 OA
HETATM   27  H6  UNL     1      20.381  -0.028  51.408  1.00  0.00     0.168 HD
BRANCH  25  28
HETATM   28  C2  UNL     1      19.564  -1.408  53.523  1.00  0.00     0.098 C 
HETATM   29  C1  UNL     1      18.142  -1.115  53.063  1.00  0.00     0.014 C 
ENDBRANCH  25  28
ENDBRANCH   1  24
BRANCH   4  30
HETATM   30  C8  UNL     1      24.546   0.202  53.485  1.00  0.00     0.061 C 
BRANCH  30  31
HETATM   31  C9  UNL     1      25.849  -0.524  53.557  1.00  0.00    -0.024 C 
HETATM   32  C10 UNL     1      26.359  -1.475  52.784  1.00  0.00     0.000 C 
BRANCH  32  33
HETATM   33  C11 UNL     1      27.610  -2.279  52.725  1.00  0.00     0.249 C 
HETATM   34  F1  UNL     1      28.710  -1.490  53.051  1.00  0.00    -0.251 F 
ENDBRANCH  32  33
ENDBRANCH  30  31
ENDBRANCH   4  30
TORSDOF 5
ENDMDL
MODEL 5
REMARK VINA RESULT:      -8.6      7.708     13.115
REMARK  5 active torsions:
REMARK  status: ('A' for Active; 'I' for Inactive)
REMARK    1  A    between atoms: C2_2  and  C3_3 
REMARK       I    between atoms: C3_3  and  N1_5 
REMARK    2  A    between atoms: N1_5  and  C4_6 
REMARK    3  A    between atoms: C7_9  and  C8_10 
REMARK    4  A    between atoms: C8_10  and  C9_11 
REMARK    5  A    between atoms: C10_12  and  C11_13 
ROOT
HETATM    1  C4  UNL     1      20.961   3.455  51.383  1.00  0.00     0.029 C 
HETATM    2  C5  UNL     1      21.319   2.178  51.510  1.00  0.00     0.077 C 
HETATM    3  C6  UNL     1      22.350   1.246  51.895  1.00  0.00    -0.063 C 
HETATM    4  C7  UNL     1      23.609   1.219  52.392  1.00  0.00    -0.071 C 
HETATM    5  C12 UNL     1      24.324   0.002  52.694  1.00  0.00     0.056 C 
HETATM    6  C13 UNL     1      23.950  -0.538  54.092  1.00  0.00     0.154 C 
HETATM    7  N2  UNL     1      22.592  -0.889  54.159  1.00  0.00    -0.284 NA
HETATM    8  C14 UNL     1      21.715  -0.693  55.010  1.00  0.00     0.202 C 
HETATM    9  N3  UNL     1      20.569  -1.347  54.378  1.00  0.00    -0.332 N 
HETATM   10  C15 UNL     1      19.731  -0.555  53.482  1.00  0.00     0.139 C 
HETATM   11  C16 UNL     1      20.617  -0.246  52.506  1.00  0.00     0.034 C 
HETATM   12  C17 UNL     1      21.759  -0.056  51.590  1.00  0.00     0.066 C 
HETATM   13  O2  UNL     1      18.416   0.006  53.209  1.00  0.00    -0.336 OA
HETATM   14  C18 UNL     1      17.585  -0.772  52.366  1.00  0.00     0.179 C 
HETATM   15  C19 UNL     1      17.569  -0.475  50.931  1.00  0.00     0.057 C 
HETATM   16  C20 UNL     1      17.046   0.818  50.437  1.00  0.00     0.274 C 
HETATM   17  N4  UNL     1      17.696   1.950  50.952  1.00  0.00     0.093 N 
HETATM   18  C21 UNL     1      16.856   3.148  50.859  1.00  0.00     0.298 C 
HETATM   19  C22 UNL     1      17.543   4.348  51.364  1.00  0.00     0.199 C 
HETATM   20  O3  UNL     1      18.845   4.552  50.921  1.00  0.00    -0.377 OA
HETATM   21  C23 UNL     1      19.519   3.356  51.225  1.00  0.00     0.196 C 
HETATM   22  C24 UNL     1      18.932   2.370  50.258  1.00  0.00     0.310 C 
HETATM   23  H19 UNL     1      19.900  -2.110  54.143  1.00  0.00     0.168 HD
ENDROOT
BRANCH   1  24
HETATM   24  N1  UNL     1      21.213   4.903  51.470  1.00  0.00    -0.331 N 
HETATM   25  C3  UNL     1      21.815   5.545  50.357  1.00  0.00     0.221 C 
HETATM   26  O1  UNL     1      22.109   4.868  49.344  1.00  0.00    -0.273 OA
HETATM   27  H6  UNL     1      20.894   5.281  52.393  1.00  0.00     0.168 HD
BRANCH  25  28
HETATM   28  C2  UNL     1      21.970   7.008  50.688  1.00  0.00     0.098 C 
HETATM   29  C1  UNL     1      23.446   7.379  50.703  1.00  0.00     0.014 C 
ENDBRANCH  25  28
ENDBRANCH   1  24
BRANCH   4  30
HETATM   30  C8  UNL     1      24.284   2.489  52.691  1.00  0.00     0.061 C 
BRANCH  30  31
HETATM   31  C9  UNL     1      25.186   2.806  51.543  1.00  0.00    -0.024 C 
HETATM   32  C10 UNL     1      25.133   3.775  50.638  1.00  0.00     0.000 C 
BRANCH  32  33
HETATM   33  C11 UNL     1      25.934   4.214  49.463  1.00  0.00     0.249 C 
HETATM   34  F1  UNL     1      26.874   3.244  49.125  1.00  0.00    -0.251 F 
ENDBRANCH  32  33
ENDBRANCH  30  31
ENDBRANCH   4  30
TORSDOF 5
ENDMDL
MODEL 6
REMARK VINA RESULT:      -8.6      6.149     10.893
REMARK  5 active torsions:
REMARK  status: ('A' for Active; 'I' for Inactive)
REMARK    1  A    between atoms: C2_2  and  C3_3 
REMARK       I    between atoms: C3_3  and  N1_5 
REMARK    2  A    between atoms: N1_5  and  C4_6 
REMARK    3  A    between atoms: C7_9  and  C8_10 
REMARK    4  A    between atoms: C8_10  and  C9_11 
REMARK    5  A    between atoms: C10_12  and  C11_13 
ROOT
HETATM    1  C4  UNL     1      25.396   1.264  52.509  1.00  0.00     0.029 C 
HETATM    2  C5  UNL     1      24.432   1.988  51.941  1.00  0.00     0.077 C 
HETATM    3  C6  UNL     1      24.078   2.922  50.902  1.00  0.00    -0.063 C 
HETATM    4  C7  UNL     1      24.622   3.586  49.855  1.00  0.00    -0.071 C 
HETATM    5  C12 UNL     1      23.872   4.453  48.979  1.00  0.00     0.056 C 
HETATM    6  C13 UNL     1      23.160   3.649  47.869  1.00  0.00     0.154 C 
HETATM    7  N2  UNL     1      22.211   2.764  48.404  1.00  0.00    -0.284 NA
HETATM    8  C14 UNL     1      21.936   1.581  48.167  1.00  0.00     0.202 C 
HETATM    9  N3  UNL     1      20.848   1.355  49.119  1.00  0.00    -0.332 N 
HETATM   10  C15 UNL     1      21.192   0.897  50.461  1.00  0.00     0.139 C 
HETATM   11  C16 UNL     1      21.921   1.943  50.913  1.00  0.00     0.034 C 
HETATM   12  C17 UNL     1      22.664   3.196  51.161  1.00  0.00     0.066 C 
HETATM   13  O2  UNL     1      21.081  -0.151  51.465  1.00  0.00    -0.336 OA
HETATM   14  C18 UNL     1      20.041   0.018  52.411  1.00  0.00     0.179 C 
HETATM   15  C19 UNL     1      20.357   0.659  53.691  1.00  0.00     0.057 C 
HETATM   16  C20 UNL     1      21.274   0.005  54.652  1.00  0.00     0.274 C 
HETATM   17  N4  UNL     1      22.555  -0.268  54.149  1.00  0.00     0.093 N 
HETATM   18  C21 UNL     1      23.222  -1.330  54.908  1.00  0.00     0.298 C 
HETATM   19  C22 UNL     1      24.581  -1.599  54.411  1.00  0.00     0.199 C 
HETATM   20  O3  UNL     1      25.391  -0.492  54.186  1.00  0.00    -0.377 OA
HETATM   21  C23 UNL     1      24.638   0.335  53.332  1.00  0.00     0.196 C 
HETATM   22  C24 UNL     1      23.535   0.837  54.215  1.00  0.00     0.310 C 
HETATM   23  H19 UNL     1      19.871   1.310  49.478  1.00  0.00     0.168 HD
ENDROOT
BRANCH   1  24
HETATM   24  N1  UNL     1      26.787   0.799  52.632  1.00  0.00    -0.331 N 
HETATM   25  C3  UNL     1      27.654   1.509  53.504  1.00  0.00     0.221 C 
HETATM   26  O1  UNL     1      27.213   2.497  54.136  1.00  0.00    -0.273 OA
HETATM   27  H6  UNL     1      26.955  -0.038  52.027  1.00  0.00     0.168 HD
BRANCH  25  28
HETATM   28  C2  UNL     1      29.009   0.850  53.455  1.00  0.00     0.098 C 
HETATM   29  C1  UNL     1      28.847  -0.663  53.504  1.00  0.00     0.014 C 
ENDBRANCH  25  28
ENDBRANCH   1  24
BRANCH   4  30
HETATM   30  C8  UNL     1      26.047   3.391  49.553  1.00  0.00     0.061 C 
BRANCH  30  31
HETATM   31  C9  UNL     1      26.603   4.706  49.112  1.00  0.00    -0.024 C 
HETATM   32  C10 UNL     1      27.780   5.020  48.586  1.00  0.00     0.000 C 
BRANCH  32  33
HETATM   33  C11 UNL     1      28.467   6.250  48.106  1.00  0.00     0.249 C 
HETATM   34  F1  UNL     1      29.675   5.924  47.495  1.00  0.00    -0.251 F 
ENDBRANCH  32  33
ENDBRANCH  30  31
ENDBRANCH   4  30
TORSDOF 5
ENDMDL
MODEL 7
REMARK VINA RESULT:      -8.5      6.639     10.519
REMARK  5 active torsions:
REMARK  status: ('A' for Active; 'I' for Inactive)
REMARK    1  A    between atoms: C2_2  and  C3_3 
REMARK       I    between atoms: C3_3  and  N1_5 
REMARK    2  A    between atoms: N1_5  and  C4_6 
REMARK    3  A    between atoms: C7_9  and  C8_10 
REMARK    4  A    between atoms: C8_10  and  C9_11 
REMARK    5  A    between atoms: C10_12  and  C11_13 
ROOT
HETATM    1  C4  UNL     1      21.315   2.938  50.772  1.00  0.00     0.029 C 
HETATM    2  C5  UNL     1      22.490   3.405  51.193  1.00  0.00     0.077 C 
HETATM    3  C6  UNL     1      23.778   3.094  51.760  1.00  0.00    -0.063 C 
HETATM    4  C7  UNL     1      24.518   2.039  52.173  1.00  0.00    -0.071 C 
HETATM    5  C12 UNL     1      25.867   2.153  52.672  1.00  0.00     0.056 C 
HETATM    6  C13 UNL     1      26.892   2.190  51.516  1.00  0.00     0.154 C 
HETATM    7  N2  UNL     1      26.708   3.321  50.705  1.00  0.00    -0.284 NA
HETATM    8  C14 UNL     1      26.696   3.482  49.478  1.00  0.00     0.202 C 
HETATM    9  N3  UNL     1      26.447   4.921  49.392  1.00  0.00    -0.332 N 
HETATM   10  C15 UNL     1      25.062   5.380  49.362  1.00  0.00     0.139 C 
HETATM   11  C16 UNL     1      24.624   4.960  50.571  1.00  0.00     0.034 C 
HETATM   12  C17 UNL     1      24.401   4.408  51.923  1.00  0.00     0.066 C 
HETATM   13  O2  UNL     1      24.014   6.067  48.621  1.00  0.00    -0.336 OA
HETATM   14  C18 UNL     1      23.862   7.444  48.917  1.00  0.00     0.179 C 
HETATM   15  C19 UNL     1      22.863   7.839  49.915  1.00  0.00     0.057 C 
HETATM   16  C20 UNL     1      21.421   7.621  49.662  1.00  0.00     0.274 C 
HETATM   17  N4  UNL     1      21.064   6.286  49.418  1.00  0.00     0.093 N 
HETATM   18  C21 UNL     1      19.795   6.189  48.690  1.00  0.00     0.298 C 
HETATM   19  C22 UNL     1      19.392   4.792  48.460  1.00  0.00     0.199 C 
HETATM   20  O3  UNL     1      19.467   3.935  49.552  1.00  0.00    -0.377 OA
HETATM   21  C23 UNL     1      20.788   4.065  50.019  1.00  0.00     0.196 C 
HETATM   22  C24 UNL     1      20.816   5.444  50.608  1.00  0.00     0.310 C 
HETATM   23  H19 UNL     1      26.666   5.937  49.330  1.00  0.00     0.168 HD
ENDROOT
BRANCH   1  24
HETATM   24  N1  UNL     1      20.343   1.859  50.528  1.00  0.00    -0.331 N 
HETATM   25  C3  UNL     1      19.636   1.331  51.641  1.00  0.00     0.221 C 
HETATM   26  O1  UNL     1      19.857   1.797  52.783  1.00  0.00    -0.273 OA
HETATM   27  H6  UNL     1      20.305   1.615  49.510  1.00  0.00     0.168 HD
BRANCH  25  28
HETATM   28  C2  UNL     1      18.715   0.249  51.139  1.00  0.00     0.098 C 
HETATM   29  C1  UNL     1      18.186  -0.562  52.313  1.00  0.00     0.014 C 
ENDBRANCH  25  28
ENDBRANCH   1  24
BRANCH   4  30
HETATM   30  C8  UNL     1      23.947   0.688  52.075  1.00  0.00     0.061 C 
BRANCH  30  31
HETATM   31  C9  UNL     1      23.088   0.468  53.276  1.00  0.00    -0.024 C 
HETATM   32  C10 UNL     1      22.244  -0.512  53.575  1.00  0.00     0.000 C 
BRANCH  32  33
HETATM   33  C11 UNL     1      21.338  -0.867  54.701  1.00  0.00     0.249 C 
HETATM   34  F1  UNL     1      20.868   0.285  55.326  1.00  0.00    -0.251 F 
ENDBRANCH  32  33
ENDBRANCH  30  31
ENDBRANCH   4  30
TORSDOF 5
ENDMDL
MODEL 8
REMARK VINA RESULT:      -8.4      6.054     10.733
REMARK  5 active torsions:
REMARK  status: ('A' for Active; 'I' for Inactive)
REMARK    1  A    between atoms: C2_2  and  C3_3 
REMARK       I    between atoms: C3_3  and  N1_5 
REMARK    2  A    between atoms: N1_5  and  C4_6 
REMARK    3  A    between atoms: C7_9  and  C8_10 
REMARK    4  A    between atoms: C8_10  and  C9_11 
REMARK    5  A    between atoms: C10_12  and  C11_13 
ROOT
HETATM    1  C4  UNL     1      24.807   2.622  51.177  1.00  0.00     0.029 C 
HETATM    2  C5  UNL     1      23.555   2.726  51.619  1.00  0.00     0.077 C 
HETATM    3  C6  UNL     1      22.266   3.353  51.458  1.00  0.00    -0.063 C 
HETATM    4  C7  UNL     1      21.621   4.239  50.664  1.00  0.00    -0.071 C 
HETATM    5  C12 UNL     1      20.230   4.589  50.821  1.00  0.00     0.056 C 
HETATM    6  C13 UNL     1      19.311   3.564  50.121  1.00  0.00     0.154 C 
HETATM    7  N2  UNL     1      19.432   2.290  50.697  1.00  0.00    -0.284 NA
HETATM    8  C14 UNL     1      19.530   1.154  50.214  1.00  0.00     0.202 C 
HETATM    9  N3  UNL     1      19.618   0.345  51.430  1.00  0.00    -0.332 N 
HETATM   10  C15 UNL     1      20.938   0.103  52.003  1.00  0.00     0.139 C 
HETATM   11  C16 UNL     1      21.317   1.363  52.321  1.00  0.00     0.034 C 
HETATM   12  C17 UNL     1      21.485   2.809  52.569  1.00  0.00     0.066 C 
HETATM   13  O2  UNL     1      21.960  -0.870  52.362  1.00  0.00    -0.336 OA
HETATM   14  C18 UNL     1      21.926  -1.321  53.704  1.00  0.00     0.179 C 
HETATM   15  C19 UNL     1      22.783  -0.653  54.688  1.00  0.00     0.057 C 
HETATM   16  C20 UNL     1      24.257  -0.737  54.581  1.00  0.00     0.274 C 
HETATM   17  N4  UNL     1      24.786  -0.256  53.374  1.00  0.00     0.093 N 
HETATM   18  C21 UNL     1      26.115  -0.812  53.103  1.00  0.00     0.298 C 
HETATM   19  C22 UNL     1      26.695  -0.286  51.857  1.00  0.00     0.199 C 
HETATM   20  O3  UNL     1      26.625   1.090  51.671  1.00  0.00    -0.377 OA
HETATM   21  C23 UNL     1      25.263   1.405  51.829  1.00  0.00     0.196 C 
HETATM   22  C24 UNL     1      25.026   1.200  53.296  1.00  0.00     0.310 C 
HETATM   23  H19 UNL     1      19.290  -0.234  52.231  1.00  0.00     0.168 HD
ENDROOT
BRANCH   1  24
HETATM   24  N1  UNL     1      25.914   2.981  50.274  1.00  0.00    -0.331 N 
HETATM   25  C3  UNL     1      26.089   4.350  49.943  1.00  0.00     0.221 C 
HETATM   26  O1  UNL     1      25.307   5.202  50.426  1.00  0.00    -0.273 OA
HETATM   27  H6  UNL     1      26.450   2.129  49.985  1.00  0.00     0.168 HD
BRANCH  25  28
HETATM   28  C2  UNL     1      27.271   4.459  49.014  1.00  0.00     0.098 C 
HETATM   29  C1  UNL     1      27.380   5.881  48.482  1.00  0.00     0.014 C 
ENDBRANCH  25  28
ENDBRANCH   1  24
BRANCH   4  30
HETATM   30  C8  UNL     1      22.350   4.857  49.548  1.00  0.00     0.061 C 
BRANCH  30  31
HETATM   31  C9  UNL     1      22.144   4.001  48.341  1.00  0.00    -0.024 C 
HETATM   32  C10 UNL     1      21.572   4.268  47.173  1.00  0.00     0.000 C 
BRANCH  32  33
HETATM   33  C11 UNL     1      21.295   3.543  45.904  1.00  0.00     0.249 C 
HETATM   34  F1  UNL     1      22.258   3.854  44.947  1.00  0.00    -0.251 F 
ENDBRANCH  32  33
ENDBRANCH  30  31
ENDBRANCH   4  30
TORSDOF 5
ENDMDL
MODEL 9
REMARK VINA RESULT:      -8.3      6.110     10.851
REMARK  5 active torsions:
REMARK  status: ('A' for Active; 'I' for Inactive)
REMARK    1  A    between atoms: C2_2  and  C3_3 
REMARK       I    between atoms: C3_3  and  N1_5 
REMARK    2  A    between atoms: N1_5  and  C4_6 
REMARK    3  A    between atoms: C7_9  and  C8_10 
REMARK    4  A    between atoms: C8_10  and  C9_11 
REMARK    5  A    between atoms: C10_12  and  C11_13 
ROOT
HETATM    1  C4  UNL     1      24.748   2.510  51.176  1.00  0.00     0.029 C 
HETATM    2  C5  UNL     1      23.497   2.612  51.622  1.00  0.00     0.077 C 
HETATM    3  C6  UNL     1      22.200   3.218  51.449  1.00  0.00    -0.063 C 
HETATM    4  C7  UNL     1      21.540   4.071  50.632  1.00  0.00    -0.071 C 
HETATM    5  C12 UNL     1      20.145   4.408  50.786  1.00  0.00     0.056 C 
HETATM    6  C13 UNL     1      19.235   3.351  50.123  1.00  0.00     0.154 C 
HETATM    7  N2  UNL     1      19.375   2.097  50.737  1.00  0.00    -0.284 NA
HETATM    8  C14 UNL     1      19.485   0.949  50.289  1.00  0.00     0.202 C 
HETATM    9  N3  UNL     1      19.589   0.178  51.528  1.00  0.00    -0.332 N 
HETATM   10  C15 UNL     1      20.915  -0.030  52.101  1.00  0.00     0.139 C 
HETATM   11  C16 UNL     1      21.280   1.243  52.378  1.00  0.00     0.034 C 
HETATM   12  C17 UNL     1      21.432   2.699  52.580  1.00  0.00     0.066 C 
HETATM   13  O2  UNL     1      21.951  -0.979  52.484  1.00  0.00    -0.336 OA
HETATM   14  C18 UNL     1      21.930  -1.389  53.839  1.00  0.00     0.179 C 
HETATM   15  C19 UNL     1      22.784  -0.680  54.797  1.00  0.00     0.057 C 
HETATM   16  C20 UNL     1      24.258  -0.750  54.684  1.00  0.00     0.274 C 
HETATM   17  N4  UNL     1      24.774  -0.300  53.460  1.00  0.00     0.093 N 
HETATM   18  C21 UNL     1      26.109  -0.847  53.200  1.00  0.00     0.298 C 
HETATM   19  C22 UNL     1      26.676  -0.353  51.934  1.00  0.00     0.199 C 
HETATM   20  O3  UNL     1      26.588   1.016  51.707  1.00  0.00    -0.377 OA
HETATM   21  C23 UNL     1      25.223   1.319  51.863  1.00  0.00     0.196 C 
HETATM   22  C24 UNL     1      24.996   1.157  53.337  1.00  0.00     0.310 C 
HETATM   23  H19 UNL     1      19.272  -0.380  52.349  1.00  0.00     0.168 HD
ENDROOT
BRANCH   1  24
HETATM   24  N1  UNL     1      25.846   2.854  50.257  1.00  0.00    -0.331 N 
HETATM   25  C3  UNL     1      26.044   4.223  49.936  1.00  0.00     0.221 C 
HETATM   26  O1  UNL     1      25.289   5.086  50.441  1.00  0.00    -0.273 OA
HETATM   27  H6  UNL     1      26.358   1.995  49.950  1.00  0.00     0.168 HD
BRANCH  25  28
HETATM   28  C2  UNL     1      27.211   4.316  48.987  1.00  0.00     0.098 C 
HETATM   29  C1  UNL     1      27.418   5.764  48.565  1.00  0.00     0.014 C 
ENDBRANCH  25  28
ENDBRANCH   1  24
BRANCH   4  30
HETATM   30  C8  UNL     1      22.255   4.663  49.493  1.00  0.00     0.061 C 
BRANCH  30  31
HETATM   31  C9  UNL     1      21.875   6.106  49.417  1.00  0.00    -0.024 C 
HETATM   32  C10 UNL     1      22.624   7.201  49.362  1.00  0.00     0.000 C 
BRANCH  32  33
HETATM   33  C11 UNL     1      22.403   8.670  49.285  1.00  0.00     0.249 C 
HETATM   34  F1  UNL     1      23.615   9.335  49.118  1.00  0.00    -0.251 F 
ENDBRANCH  32  33
ENDBRANCH  30  31
ENDBRANCH   4  30
TORSDOF 5
ENDMDL
