MODEL 1
REMARK VINA RESULT:      -8.9      0.000      0.000
REMARK  6 active torsions:
REMARK  status: ('A' for Active; 'I' for Inactive)
REMARK    1  A    between atoms: N1_1  and  C1_2 
REMARK    2  A    between atoms: C1_2  and  C7_9 
REMARK    3  A    between atoms: C2_3  and  C3_4 
REMARK    4  A    between atoms: C7_9  and  N2_10 
REMARK    5  A    between atoms: C7_9  and  C14_19 
REMARK    6  A    between atoms: N2_10  and  C8_11 
ROOT
HETATM    1  C7  UNL     1      24.364   0.931  52.954  1.00  0.00     0.171 C 
ENDROOT
BRANCH   1   2
HETATM    2  C1  UNL     1      24.931   1.919  52.046  1.00  0.00     0.029 C 
HETATM    3  C2  UNL     1      25.415   2.260  50.868  1.00  0.00     0.036 C 
BRANCH   2   4
HETATM    4  N1  UNL     1      24.983   3.118  52.849  1.00  0.00    -0.401 N 
HETATM    5  H1  UNL     1      25.967   3.519  52.828  1.00  0.00     0.156 HD
HETATM    6  H2  UNL     1      24.019   3.262  53.239  1.00  0.00     0.156 HD
ENDBRANCH   2   4
BRANCH   3   7
HETATM    7  C3  UNL     1      25.892   3.594  50.502  1.00  0.00     0.176 C 
HETATM    8  C4  UNL     1      25.010   4.175  49.437  1.00  0.00     0.023 C 
HETATM    9  C5  UNL     1      25.891   5.095  49.122  1.00  0.00    -0.003 C 
HETATM   10  C6  UNL     1      27.113   4.681  48.947  1.00  0.00     0.148 C 
HETATM   11  O1  UNL     1      27.151   3.651  49.896  1.00  0.00    -0.349 OA
ENDBRANCH   3   7
ENDBRANCH   1   2
BRANCH   1  12
HETATM   12  N2  UNL     1      25.127  -0.313  52.918  1.00  0.00    -0.375 N 
HETATM   13  H8  UNL     1      24.634  -1.231  52.700  1.00  0.00     0.160 HD
BRANCH  12  14
HETATM   14  C8  UNL     1      26.514  -0.421  53.155  1.00  0.00     0.030 A 
HETATM   15  C9  UNL     1      27.252  -1.567  52.835  1.00  0.00     0.032 A 
HETATM   16  C10 UNL     1      28.606  -1.648  53.072  1.00  0.00     0.046 A 
HETATM   17  C11 UNL     1      29.309  -0.606  53.635  1.00  0.00     0.138 A 
HETATM   18  F1  UNL     1      30.637  -0.772  53.832  1.00  0.00    -0.204 F 
HETATM   19  C12 UNL     1      28.625   0.544  53.967  1.00  0.00     0.074 A 
HETATM   20 CL1  UNL     1      29.494   1.882  54.684  1.00  0.00    -0.081 Cl
HETATM   21  C13 UNL     1      27.271   0.586  53.715  1.00  0.00     0.056 A 
ENDBRANCH  12  14
ENDBRANCH   1  12
BRANCH   1  22
HETATM   22  C14 UNL     1      22.919   0.651  52.650  1.00  0.00     0.014 A 
HETATM   23  C15 UNL     1      21.904   0.821  51.670  1.00  0.00     0.033 A 
HETATM   24  C16 UNL     1      20.703   0.301  52.012  1.00  0.00     0.018 A 
HETATM   25  C17 UNL     1      19.619   0.386  51.167  1.00  0.00     0.132 A 
HETATM   26  C19 UNL     1      20.470  -0.345  53.212  1.00  0.00     0.111 A 
HETATM   27  N3  UNL     1      18.451  -0.145  51.552  1.00  0.00    -0.253 NA
HETATM   28  C18 UNL     1      18.235  -0.771  52.719  1.00  0.00     0.233 A 
HETATM   29  N4  UNL     1      19.303  -0.843  53.530  1.00  0.00    -0.234 NA
HETATM   30  S1  UNL     1      22.047  -0.262  54.013  1.00  0.00    -0.072 SA
ENDBRANCH   1  22
TORSDOF 6
ENDMDL
MODEL 2
REMARK VINA RESULT:      -8.9      3.560      7.305
REMARK  6 active torsions:
REMARK  status: ('A' for Active; 'I' for Inactive)
REMARK    1  A    between atoms: N1_1  and  C1_2 
REMARK    2  A    between atoms: C1_2  and  C7_9 
REMARK    3  A    between atoms: C2_3  and  C3_4 
REMARK    4  A    between atoms: C7_9  and  N2_10 
REMARK    5  A    between atoms: C7_9  and  C14_19 
REMARK    6  A    between atoms: N2_10  and  C8_11 
ROOT
HETATM    1  C7  UNL     1      24.555   2.005  52.169  1.00  0.00     0.171 C 
ENDROOT
BRANCH   1   2
HETATM    2  C1  UNL     1      23.264   1.443  52.545  1.00  0.00     0.029 C 
HETATM    3  C2  UNL     1      22.527   0.448  52.997  1.00  0.00     0.036 C 
BRANCH   2   4
HETATM    4  N1  UNL     1      22.343   2.527  52.293  1.00  0.00    -0.401 N 
HETATM    5  H1  UNL     1      21.776   2.316  51.419  1.00  0.00     0.156 HD
HETATM    6  H2  UNL     1      22.493   3.233  53.055  1.00  0.00     0.156 HD
ENDBRANCH   2   4
BRANCH   3   7
HETATM    7  C3  UNL     1      21.076   0.487  53.185  1.00  0.00     0.176 C 
HETATM    8  C4  UNL     1      20.598  -0.826  53.729  1.00  0.00     0.023 C 
HETATM    9  C5  UNL     1      19.349  -0.573  53.417  1.00  0.00    -0.003 C 
HETATM   10  C6  UNL     1      19.139  -0.136  52.208  1.00  0.00     0.148 C 
HETATM   11  O1  UNL     1      20.309   0.612  52.022  1.00  0.00    -0.349 OA
ENDBRANCH   3   7
ENDBRANCH   1   2
BRANCH   1  12
HETATM   12  N2  UNL     1      24.578   2.366  50.756  1.00  0.00    -0.375 N 
HETATM   13  H8  UNL     1      24.034   1.782  50.051  1.00  0.00     0.160 HD
BRANCH  12  14
HETATM   14  C8  UNL     1      25.282   3.460  50.209  1.00  0.00     0.030 A 
HETATM   15  C9  UNL     1      26.485   3.315  49.508  1.00  0.00     0.032 A 
HETATM   16  C10 UNL     1      27.152   4.398  48.980  1.00  0.00     0.046 A 
HETATM   17  C11 UNL     1      26.671   5.682  49.110  1.00  0.00     0.138 A 
HETATM   18  F1  UNL     1      27.391   6.686  48.560  1.00  0.00    -0.204 F 
HETATM   19  C12 UNL     1      25.489   5.875  49.792  1.00  0.00     0.074 A 
HETATM   20 CL1  UNL     1      24.856   7.495  49.973  1.00  0.00    -0.081 Cl
HETATM   21  C13 UNL     1      24.852   4.766  50.306  1.00  0.00     0.056 A 
ENDBRANCH  12  14
ENDBRANCH   1  12
BRANCH   1  22
HETATM   22  C14 UNL     1      25.688   1.067  52.475  1.00  0.00     0.014 A 
HETATM   23  C15 UNL     1      26.074  -0.301  52.459  1.00  0.00     0.033 A 
HETATM   24  C16 UNL     1      27.336  -0.531  52.889  1.00  0.00     0.018 A 
HETATM   25  C17 UNL     1      27.857  -1.806  52.933  1.00  0.00     0.132 A 
HETATM   26  C19 UNL     1      28.188   0.472  53.311  1.00  0.00     0.111 A 
HETATM   27  N3  UNL     1      29.112  -1.981  53.366  1.00  0.00    -0.253 NA
HETATM   28  C18 UNL     1      29.932  -1.000  53.774  1.00  0.00     0.233 A 
HETATM   29  N4  UNL     1      29.407   0.235  53.725  1.00  0.00    -0.234 NA
HETATM   30  S1  UNL     1      27.201   1.930  53.120  1.00  0.00    -0.072 SA
ENDBRANCH   1  22
TORSDOF 6
ENDMDL
MODEL 3
REMARK VINA RESULT:      -8.8      3.722      6.690
REMARK  6 active torsions:
REMARK  status: ('A' for Active; 'I' for Inactive)
REMARK    1  A    between atoms: N1_1  and  C1_2 
REMARK    2  A    between atoms: C1_2  and  C7_9 
REMARK    3  A    between atoms: C2_3  and  C3_4 
REMARK    4  A    between atoms: C7_9  and  N2_10 
REMARK    5  A    between atoms: C7_9  and  C14_19 
REMARK    6  A    between atoms: N2_10  and  C8_11 
ROOT
HETATM    1  C7  UNL     1      24.457   1.380  51.951  1.00  0.00     0.171 C 
ENDROOT
BRANCH   1   2
HETATM    2  C1  UNL     1      24.460   2.645  51.229  1.00  0.00     0.029 C 
HETATM    3  C2  UNL     1      24.480   3.331  50.103  1.00  0.00     0.036 C 
BRANCH   2   4
HETATM    4  N1  UNL     1      24.417   3.630  52.284  1.00  0.00    -0.401 N 
HETATM    5  H1  UNL     1      23.438   4.040  52.349  1.00  0.00     0.156 HD
HETATM    6  H2  UNL     1      25.380   3.670  52.699  1.00  0.00     0.156 HD
ENDBRANCH   2   4
BRANCH   3   7
HETATM    7  C3  UNL     1      24.461   4.791  50.001  1.00  0.00     0.176 C 
HETATM    8  C4  UNL     1      23.938   5.199  48.655  1.00  0.00     0.023 C 
HETATM    9  C5  UNL     1      24.399   6.422  48.778  1.00  0.00    -0.003 C 
HETATM   10  C6  UNL     1      25.636   6.530  49.170  1.00  0.00     0.148 C 
HETATM   11  O1  UNL     1      25.708   5.424  50.028  1.00  0.00    -0.349 OA
ENDBRANCH   3   7
ENDBRANCH   1   2
BRANCH   1  12
HETATM   12  N2  UNL     1      23.557   1.432  53.097  1.00  0.00    -0.375 N 
HETATM   13  H8  UNL     1      23.688   2.183  53.841  1.00  0.00     0.160 HD
BRANCH  12  14
HETATM   14  C8  UNL     1      22.481   0.547  53.326  1.00  0.00     0.030 A 
HETATM   15  C9  UNL     1      22.555  -0.519  54.232  1.00  0.00     0.032 A 
HETATM   16  C10 UNL     1      21.492  -1.368  54.442  1.00  0.00     0.046 A 
HETATM   17  C11 UNL     1      20.297  -1.215  53.772  1.00  0.00     0.138 A 
HETATM   18  F1  UNL     1      19.305  -2.095  54.040  1.00  0.00    -0.204 F 
HETATM   19  C12 UNL     1      20.177  -0.180  52.870  1.00  0.00     0.074 A 
HETATM   20 CL1  UNL     1      18.672   0.036  52.007  1.00  0.00    -0.081 Cl
HETATM   21  C13 UNL     1      21.264   0.647  52.689  1.00  0.00     0.056 A 
ENDBRANCH  12  14
ENDBRANCH   1  12
BRANCH   1  22
HETATM   22  C14 UNL     1      25.836   0.988  52.403  1.00  0.00     0.014 A 
HETATM   23  C15 UNL     1      27.106   1.505  52.774  1.00  0.00     0.033 A 
HETATM   24  C16 UNL     1      28.017   0.564  53.112  1.00  0.00     0.018 A 
HETATM   25  C17 UNL     1      29.295   0.908  53.494  1.00  0.00     0.132 A 
HETATM   26  C19 UNL     1      27.747  -0.792  53.102  1.00  0.00     0.111 A 
HETATM   27  N3  UNL     1      30.160  -0.062  53.820  1.00  0.00    -0.253 NA
HETATM   28  C18 UNL     1      29.887  -1.376  53.807  1.00  0.00     0.233 A 
HETATM   29  N4  UNL     1      28.637  -1.692  53.431  1.00  0.00    -0.234 NA
HETATM   30  S1  UNL     1      26.057  -0.849  52.574  1.00  0.00    -0.072 SA
ENDBRANCH   1  22
TORSDOF 6
ENDMDL
MODEL 4
REMARK VINA RESULT:      -8.8      3.819      6.602
REMARK  6 active torsions:
REMARK  status: ('A' for Active; 'I' for Inactive)
REMARK    1  A    between atoms: N1_1  and  C1_2 
REMARK    2  A    between atoms: C1_2  and  C7_9 
REMARK    3  A    between atoms: C2_3  and  C3_4 
REMARK    4  A    between atoms: C7_9  and  N2_10 
REMARK    5  A    between atoms: C7_9  and  C14_19 
REMARK    6  A    between atoms: N2_10  and  C8_11 
ROOT
HETATM    1  C7  UNL     1      24.119   2.019  51.247  1.00  0.00     0.171 C 
ENDROOT
BRANCH   1   2
HETATM    2  C1  UNL     1      24.565   3.251  50.609  1.00  0.00     0.029 C 
HETATM    3  C2  UNL     1      25.498   3.973  50.021  1.00  0.00     0.036 C 
BRANCH   2   4
HETATM    4  N1  UNL     1      23.390   4.089  50.647  1.00  0.00    -0.401 N 
HETATM    5  H1  UNL     1      23.679   5.103  50.786  1.00  0.00     0.156 HD
HETATM    6  H2  UNL     1      22.562   3.455  50.526  1.00  0.00     0.156 HD
ENDBRANCH   2   4
BRANCH   3   7
HETATM    7  C3  UNL     1      25.324   5.339  49.526  1.00  0.00     0.176 C 
HETATM    8  C4  UNL     1      26.549   5.767  48.774  1.00  0.00     0.023 C 
HETATM    9  C5  UNL     1      26.216   7.035  48.829  1.00  0.00    -0.003 C 
HETATM   10  C6  UNL     1      25.853   7.482  49.998  1.00  0.00     0.148 C 
HETATM   11  O1  UNL     1      25.221   6.337  50.501  1.00  0.00    -0.349 OA
ENDBRANCH   3   7
ENDBRANCH   1   2
BRANCH   1  12
HETATM   12  N2  UNL     1      23.027   2.277  52.180  1.00  0.00    -0.375 N 
HETATM   13  H8  UNL     1      22.936   3.234  52.638  1.00  0.00     0.160 HD
BRANCH  12  14
HETATM   14  C8  UNL     1      22.038   1.341  52.551  1.00  0.00     0.030 A 
HETATM   15  C9  UNL     1      22.130   0.559  53.709  1.00  0.00     0.032 A 
HETATM   16  C10 UNL     1      21.150  -0.345  54.053  1.00  0.00     0.046 A 
HETATM   17  C11 UNL     1      20.026  -0.529  53.278  1.00  0.00     0.138 A 
HETATM   18  F1  UNL     1      19.114  -1.438  53.691  1.00  0.00    -0.204 F 
HETATM   19  C12 UNL     1      19.891   0.219  52.128  1.00  0.00     0.074 A 
HETATM   20 CL1  UNL     1      18.474   0.006  51.125  1.00  0.00    -0.081 Cl
HETATM   21  C13 UNL     1      20.893   1.113  51.818  1.00  0.00     0.056 A 
ENDBRANCH  12  14
ENDBRANCH   1  12
BRANCH   1  22
HETATM   22  C14 UNL     1      25.241   1.314  51.957  1.00  0.00     0.014 A 
HETATM   23  C15 UNL     1      26.071   0.162  51.919  1.00  0.00     0.033 A 
HETATM   24  C16 UNL     1      26.972   0.088  52.925  1.00  0.00     0.018 A 
HETATM   25  C17 UNL     1      27.849  -0.970  53.025  1.00  0.00     0.132 A 
HETATM   26  C19 UNL     1      27.086   1.048  53.914  1.00  0.00     0.111 A 
HETATM   27  N3  UNL     1      28.723  -0.996  54.040  1.00  0.00    -0.253 NA
HETATM   28  C18 UNL     1      28.825  -0.059  54.995  1.00  0.00     0.233 A 
HETATM   29  N4  UNL     1      27.963   0.964  54.881  1.00  0.00    -0.234 NA
HETATM   30  S1  UNL     1      25.834   2.218  53.468  1.00  0.00    -0.072 SA
ENDBRANCH   1  22
TORSDOF 6
ENDMDL
MODEL 5
REMARK VINA RESULT:      -8.6      4.098      6.942
REMARK  6 active torsions:
REMARK  status: ('A' for Active; 'I' for Inactive)
REMARK    1  A    between atoms: N1_1  and  C1_2 
REMARK    2  A    between atoms: C1_2  and  C7_9 
REMARK    3  A    between atoms: C2_3  and  C3_4 
REMARK    4  A    between atoms: C7_9  and  N2_10 
REMARK    5  A    between atoms: C7_9  and  C14_19 
REMARK    6  A    between atoms: N2_10  and  C8_11 
ROOT
HETATM    1  C7  UNL     1      24.268   0.867  53.495  1.00  0.00     0.171 C 
ENDROOT
BRANCH   1   2
HETATM    2  C1  UNL     1      25.658   0.462  53.659  1.00  0.00     0.029 C 
HETATM    3  C2  UNL     1      26.944   0.633  53.427  1.00  0.00     0.036 C 
BRANCH   2   4
HETATM    4  N1  UNL     1      25.565  -0.714  54.492  1.00  0.00    -0.401 N 
HETATM    5  H1  UNL     1      26.479  -0.852  55.018  1.00  0.00     0.156 HD
HETATM    6  H2  UNL     1      24.605  -1.114  54.345  1.00  0.00     0.156 HD
ENDBRANCH   2   4
BRANCH   3   7
HETATM    7  C3  UNL     1      28.017  -0.223  53.936  1.00  0.00     0.176 C 
HETATM    8  C4  UNL     1      29.347   0.323  53.511  1.00  0.00     0.023 C 
HETATM    9  C5  UNL     1      29.966  -0.803  53.779  1.00  0.00    -0.003 C 
HETATM   10  C6  UNL     1      29.411  -1.886  53.314  1.00  0.00     0.148 C 
HETATM   11  O1  UNL     1      28.062  -1.523  53.421  1.00  0.00    -0.349 OA
ENDBRANCH   3   7
ENDBRANCH   1   2
BRANCH   1  12
HETATM   12  N2  UNL     1      23.498  -0.165  52.809  1.00  0.00    -0.375 N 
HETATM   13  H8  UNL     1      23.975  -0.799  52.098  1.00  0.00     0.160 HD
BRANCH  12  14
HETATM   14  C8  UNL     1      22.122  -0.416  53.003  1.00  0.00     0.030 A 
HETATM   15  C9  UNL     1      21.640  -1.265  54.007  1.00  0.00     0.032 A 
HETATM   16  C10 UNL     1      20.293  -1.492  54.180  1.00  0.00     0.046 A 
HETATM   17  C11 UNL     1      19.346  -0.895  53.376  1.00  0.00     0.138 A 
HETATM   18  F1  UNL     1      18.045  -1.174  53.617  1.00  0.00    -0.204 F 
HETATM   19  C12 UNL     1      19.774  -0.050  52.374  1.00  0.00     0.074 A 
HETATM   20 CL1  UNL     1      18.593   0.721  51.340  1.00  0.00    -0.081 Cl
HETATM   21  C13 UNL     1      21.130   0.151  52.234  1.00  0.00     0.056 A 
ENDBRANCH  12  14
ENDBRANCH   1  12
BRANCH   1  22
HETATM   22  C14 UNL     1      24.145   2.170  52.757  1.00  0.00     0.014 A 
HETATM   23  C15 UNL     1      23.940   3.566  52.930  1.00  0.00     0.033 A 
HETATM   24  C16 UNL     1      23.932   4.277  51.779  1.00  0.00     0.018 A 
HETATM   25  C17 UNL     1      23.745   5.642  51.782  1.00  0.00     0.132 A 
HETATM   26  C19 UNL     1      24.108   3.706  50.533  1.00  0.00     0.111 A 
HETATM   27  N3  UNL     1      23.746   6.300  50.616  1.00  0.00    -0.253 NA
HETATM   28  C18 UNL     1      23.918   5.736  49.410  1.00  0.00     0.233 A 
HETATM   29  N4  UNL     1      24.098   4.405  49.428  1.00  0.00    -0.234 NA
HETATM   30  S1  UNL     1      24.313   1.989  50.916  1.00  0.00    -0.072 SA
ENDBRANCH   1  22
TORSDOF 6
ENDMDL
MODEL 6
REMARK VINA RESULT:      -8.2      4.259      7.268
REMARK  6 active torsions:
REMARK  status: ('A' for Active; 'I' for Inactive)
REMARK    1  A    between atoms: N1_1  and  C1_2 
REMARK    2  A    between atoms: C1_2  and  C7_9 
REMARK    3  A    between atoms: C2_3  and  C3_4 
REMARK    4  A    between atoms: C7_9  and  N2_10 
REMARK    5  A    between atoms: C7_9  and  C14_19 
REMARK    6  A    between atoms: N2_10  and  C8_11 
ROOT
HETATM    1  C7  UNL     1      23.695   2.124  52.591  1.00  0.00     0.171 C 
ENDROOT
BRANCH   1   2
HETATM    2  C1  UNL     1      25.032   1.604  52.844  1.00  0.00     0.029 C 
HETATM    3  C2  UNL     1      25.927   0.638  52.776  1.00  0.00     0.036 C 
BRANCH   2   4
HETATM    4  N1  UNL     1      25.701   2.708  53.494  1.00  0.00    -0.401 N 
HETATM    5  H1  UNL     1      24.985   3.307  54.004  1.00  0.00     0.156 HD
HETATM    6  H2  UNL     1      26.723   2.611  53.279  1.00  0.00     0.156 HD
ENDBRANCH   2   4
BRANCH   3   7
HETATM    7  C3  UNL     1      27.301   0.721  53.272  1.00  0.00     0.176 C 
HETATM    8  C4  UNL     1      28.016  -0.571  53.006  1.00  0.00     0.023 C 
HETATM    9  C5  UNL     1      28.976  -0.287  53.855  1.00  0.00    -0.003 C 
HETATM   10  C6  UNL     1      28.596   0.138  55.026  1.00  0.00     0.148 C 
HETATM   11  O1  UNL     1      27.448   0.850  54.657  1.00  0.00    -0.349 OA
ENDBRANCH   3   7
ENDBRANCH   1   2
BRANCH   1  12
HETATM   12  N2  UNL     1      22.898   1.171  51.827  1.00  0.00    -0.375 N 
HETATM   13  H8  UNL     1      23.219   0.867  50.857  1.00  0.00     0.160 HD
BRANCH  12  14
HETATM   14  C8  UNL     1      21.691   0.586  52.266  1.00  0.00     0.030 A 
HETATM   15  C9  UNL     1      21.548  -0.004  53.528  1.00  0.00     0.032 A 
HETATM   16  C10 UNL     1      20.359  -0.565  53.936  1.00  0.00     0.046 A 
HETATM   17  C11 UNL     1      19.244  -0.576  53.126  1.00  0.00     0.138 A 
HETATM   18  F1  UNL     1      18.118  -1.148  53.608  1.00  0.00    -0.204 F 
HETATM   19  C12 UNL     1      19.337  -0.006  51.874  1.00  0.00     0.074 A 
HETATM   20 CL1  UNL     1      17.937  -0.007  50.825  1.00  0.00    -0.081 Cl
HETATM   21  C13 UNL     1      20.544   0.544  51.503  1.00  0.00     0.056 A 
ENDBRANCH  12  14
ENDBRANCH   1  12
BRANCH   1  22
HETATM   22  C14 UNL     1      23.731   3.446  51.877  1.00  0.00     0.014 A 
HETATM   23  C15 UNL     1      23.488   4.837  52.036  1.00  0.00     0.033 A 
HETATM   24  C16 UNL     1      23.729   5.577  50.929  1.00  0.00     0.018 A 
HETATM   25  C17 UNL     1      23.541   6.942  50.925  1.00  0.00     0.132 A 
HETATM   26  C19 UNL     1      24.175   5.038  49.738  1.00  0.00     0.111 A 
HETATM   27  N3  UNL     1      23.794   7.630  49.805  1.00  0.00    -0.253 NA
HETATM   28  C18 UNL     1      24.227   7.096  48.652  1.00  0.00     0.233 A 
HETATM   29  N4  UNL     1      24.405   5.765  48.675  1.00  0.00    -0.234 NA
HETATM   30  S1  UNL     1      24.299   3.311  50.113  1.00  0.00    -0.072 SA
ENDBRANCH   1  22
TORSDOF 6
ENDMDL
MODEL 7
REMARK VINA RESULT:      -7.8      4.418      8.094
REMARK  6 active torsions:
REMARK  status: ('A' for Active; 'I' for Inactive)
REMARK    1  A    between atoms: N1_1  and  C1_2 
REMARK    2  A    between atoms: C1_2  and  C7_9 
REMARK    3  A    between atoms: C2_3  and  C3_4 
REMARK    4  A    between atoms: C7_9  and  N2_10 
REMARK    5  A    between atoms: C7_9  and  C14_19 
REMARK    6  A    between atoms: N2_10  and  C8_11 
ROOT
HETATM    1  C7  UNL     1      23.658   2.370  51.719  1.00  0.00     0.171 C 
ENDROOT
BRANCH   1   2
HETATM    2  C1  UNL     1      22.420   1.677  52.050  1.00  0.00     0.029 C 
HETATM    3  C2  UNL     1      21.746   0.570  52.293  1.00  0.00     0.036 C 
BRANCH   2   4
HETATM    4  N1  UNL     1      21.460   2.750  52.170  1.00  0.00    -0.401 N 
HETATM    5  H1  UNL     1      21.963   3.685  52.116  1.00  0.00     0.156 HD
HETATM    6  H2  UNL     1      20.517   2.301  52.279  1.00  0.00     0.156 HD
ENDBRANCH   2   4
BRANCH   3   7
HETATM    7  C3  UNL     1      20.320   0.499  52.613  1.00  0.00     0.176 C 
HETATM    8  C4  UNL     1      20.027  -0.774  53.351  1.00  0.00     0.023 C 
HETATM    9  C5  UNL     1      18.737  -0.677  53.132  1.00  0.00    -0.003 C 
HETATM   10  C6  UNL     1      18.382  -0.417  51.906  1.00  0.00     0.148 C 
HETATM   11  O1  UNL     1      19.450   0.406  51.522  1.00  0.00    -0.349 OA
ENDBRANCH   3   7
ENDBRANCH   1   2
BRANCH   1  12
HETATM   12  N2  UNL     1      23.915   2.327  50.284  1.00  0.00    -0.375 N 
HETATM   13  H8  UNL     1      24.421   1.491  49.860  1.00  0.00     0.160 HD
BRANCH  12  14
HETATM   14  C8  UNL     1      23.543   3.329  49.362  1.00  0.00     0.030 A 
HETATM   15  C9  UNL     1      24.103   4.613  49.369  1.00  0.00     0.032 A 
HETATM   16  C10 UNL     1      23.727   5.573  48.457  1.00  0.00     0.046 A 
HETATM   17  C11 UNL     1      22.779   5.324  47.488  1.00  0.00     0.138 A 
HETATM   18  F1  UNL     1      22.470   6.325  46.633  1.00  0.00    -0.204 F 
HETATM   19  C12 UNL     1      22.200   4.074  47.441  1.00  0.00     0.074 A 
HETATM   20 CL1  UNL     1      20.994   3.732  46.222  1.00  0.00    -0.081 Cl
HETATM   21  C13 UNL     1      22.603   3.141  48.371  1.00  0.00     0.056 A 
ENDBRANCH  12  14
ENDBRANCH   1  12
BRANCH   1  22
HETATM   22  C14 UNL     1      24.835   1.806  52.465  1.00  0.00     0.014 A 
HETATM   23  C15 UNL     1      25.203   0.991  53.569  1.00  0.00     0.033 A 
HETATM   24  C16 UNL     1      26.538   0.846  53.737  1.00  0.00     0.018 A 
HETATM   25  C17 UNL     1      27.052   0.085  54.763  1.00  0.00     0.132 A 
HETATM   26  C19 UNL     1      27.475   1.436  52.910  1.00  0.00     0.111 A 
HETATM   27  N3  UNL     1      28.381  -0.027  54.887  1.00  0.00    -0.253 NA
HETATM   28  C18 UNL     1      29.283   0.550  54.078  1.00  0.00     0.233 A 
HETATM   29  N4  UNL     1      28.763   1.288  53.083  1.00  0.00    -0.234 NA
HETATM   30  S1  UNL     1      26.470   2.309  51.742  1.00  0.00    -0.072 SA
ENDBRANCH   1  22
TORSDOF 6
ENDMDL
MODEL 8
REMARK VINA RESULT:      -7.7      4.526      7.386
REMARK  6 active torsions:
REMARK  status: ('A' for Active; 'I' for Inactive)
REMARK    1  A    between atoms: N1_1  and  C1_2 
REMARK    2  A    between atoms: C1_2  and  C7_9 
REMARK    3  A    between atoms: C2_3  and  C3_4 
REMARK    4  A    between atoms: C7_9  and  N2_10 
REMARK    5  A    between atoms: C7_9  and  C14_19 
REMARK    6  A    between atoms: N2_10  and  C8_11 
ROOT
HETATM    1  C7  UNL     1      22.298   1.006  51.339  1.00  0.00     0.171 C 
ENDROOT
BRANCH   1   2
HETATM    2  C1  UNL     1      22.300   1.952  50.231  1.00  0.00     0.029 C 
HETATM    3  C2  UNL     1      22.552   3.147  49.735  1.00  0.00     0.036 C 
BRANCH   2   4
HETATM    4  N1  UNL     1      21.749   1.185  49.139  1.00  0.00    -0.401 N 
HETATM    5  H1  UNL     1      22.539   0.784  48.550  1.00  0.00     0.156 HD
HETATM    6  H2  UNL     1      20.705   1.237  49.229  1.00  0.00     0.156 HD
ENDBRANCH   2   4
BRANCH   3   7
HETATM    7  C3  UNL     1      22.305   3.558  48.352  1.00  0.00     0.176 C 
HETATM    8  C4  UNL     1      22.958   4.883  48.092  1.00  0.00     0.023 C 
HETATM    9  C5  UNL     1      22.255   5.086  47.002  1.00  0.00    -0.003 C 
HETATM   10  C6  UNL     1      20.972   4.884  47.102  1.00  0.00     0.148 C 
HETATM   11  O1  UNL     1      20.973   3.825  48.019  1.00  0.00    -0.349 OA
ENDBRANCH   3   7
ENDBRANCH   1   2
BRANCH   1  12
HETATM   12  N2  UNL     1      21.176   1.253  52.238  1.00  0.00    -0.375 N 
HETATM   13  H8  UNL     1      21.175   2.118  52.860  1.00  0.00     0.160 HD
BRANCH  12  14
HETATM   14  C8  UNL     1      20.042   0.422  52.369  1.00  0.00     0.030 A 
HETATM   15  C9  UNL     1      19.870  -0.464  53.439  1.00  0.00     0.032 A 
HETATM   16  C10 UNL     1      18.754  -1.263  53.547  1.00  0.00     0.046 A 
HETATM   17  C11 UNL     1      17.745  -1.232  52.610  1.00  0.00     0.138 A 
HETATM   18  F1  UNL     1      16.684  -2.050  52.795  1.00  0.00    -0.204 F 
HETATM   19  C12 UNL     1      17.869  -0.374  51.538  1.00  0.00     0.074 A 
HETATM   20 CL1  UNL     1      16.603  -0.316  50.333  1.00  0.00    -0.081 Cl
HETATM   21  C13 UNL     1      19.001   0.408  51.465  1.00  0.00     0.056 A 
ENDBRANCH  12  14
ENDBRANCH   1  12
BRANCH   1  22
HETATM   22  C14 UNL     1      23.587   1.042  52.112  1.00  0.00     0.014 A 
HETATM   23  C15 UNL     1      24.771   1.798  52.323  1.00  0.00     0.033 A 
HETATM   24  C16 UNL     1      25.625   1.261  53.224  1.00  0.00     0.018 A 
HETATM   25  C17 UNL     1      26.817   1.877  53.537  1.00  0.00     0.132 A 
HETATM   26  C19 UNL     1      25.377   0.077  53.892  1.00  0.00     0.111 A 
HETATM   27  N3  UNL     1      27.627   1.306  54.437  1.00  0.00    -0.253 NA
HETATM   28  C18 UNL     1      27.377   0.155  55.080  1.00  0.00     0.233 A 
HETATM   29  N4  UNL     1      26.211  -0.431  54.762  1.00  0.00    -0.234 NA
HETATM   30  S1  UNL     1      23.800  -0.410  53.250  1.00  0.00    -0.072 SA
ENDBRANCH   1  22
TORSDOF 6
ENDMDL
MODEL 9
REMARK VINA RESULT:      -7.7      2.073      2.497
REMARK  6 active torsions:
REMARK  status: ('A' for Active; 'I' for Inactive)
REMARK    1  A    between atoms: N1_1  and  C1_2 
REMARK    2  A    between atoms: C1_2  and  C7_9 
REMARK    3  A    between atoms: C2_3  and  C3_4 
REMARK    4  A    between atoms: C7_9  and  N2_10 
REMARK    5  A    between atoms: C7_9  and  C14_19 
REMARK    6  A    between atoms: N2_10  and  C8_11 
ROOT
HETATM    1  C7  UNL     1      23.292   2.568  51.953  1.00  0.00     0.171 C 
ENDROOT
BRANCH   1   2
HETATM    2  C1  UNL     1      23.649   3.677  51.078  1.00  0.00     0.029 C 
HETATM    3  C2  UNL     1      23.711   4.229  49.883  1.00  0.00     0.036 C 
BRANCH   2   4
HETATM    4  N1  UNL     1      24.215   4.648  51.985  1.00  0.00    -0.401 N 
HETATM    5  H1  UNL     1      24.368   4.199  52.937  1.00  0.00     0.156 HD
HETATM    6  H2  UNL     1      24.318   5.541  51.445  1.00  0.00     0.156 HD
ENDBRANCH   2   4
BRANCH   3   7
HETATM    7  C3  UNL     1      24.251   5.558  49.591  1.00  0.00     0.176 C 
HETATM    8  C4  UNL     1      23.817   5.995  48.224  1.00  0.00     0.023 C 
HETATM    9  C5  UNL     1      24.725   6.941  48.169  1.00  0.00    -0.003 C 
HETATM   10  C6  UNL     1      25.935   6.592  48.500  1.00  0.00     0.148 C 
HETATM   11  O1  UNL     1      25.644   5.645  49.491  1.00  0.00    -0.349 OA
ENDBRANCH   3   7
ENDBRANCH   1   2
BRANCH   1  12
HETATM   12  N2  UNL     1      24.194   1.437  51.761  1.00  0.00    -0.375 N 
HETATM   13  H8  UNL     1      24.084   0.811  50.907  1.00  0.00     0.160 HD
BRANCH  12  14
HETATM   14  C8  UNL     1      25.243   1.078  52.634  1.00  0.00     0.030 A 
HETATM   15  C9  UNL     1      25.212  -0.081  53.420  1.00  0.00     0.032 A 
HETATM   16  C10 UNL     1      26.250  -0.413  54.263  1.00  0.00     0.046 A 
HETATM   17  C11 UNL     1      27.374   0.376  54.378  1.00  0.00     0.138 A 
HETATM   18  F1  UNL     1      28.344  -0.027  55.230  1.00  0.00    -0.204 F 
HETATM   19  C12 UNL     1      27.449   1.527  53.623  1.00  0.00     0.074 A 
HETATM   20 CL1  UNL     1      28.864   2.546  53.751  1.00  0.00    -0.081 Cl
HETATM   21  C13 UNL     1      26.390   1.824  52.793  1.00  0.00     0.056 A 
ENDBRANCH  12  14
ENDBRANCH   1  12
BRANCH   1  22
HETATM   22  C14 UNL     1      21.870   2.126  51.750  1.00  0.00     0.014 A 
HETATM   23  C15 UNL     1      21.057   1.004  51.435  1.00  0.00     0.033 A 
HETATM   24  C16 UNL     1      19.730   1.266  51.403  1.00  0.00     0.018 A 
HETATM   25  C17 UNL     1      18.812   0.281  51.112  1.00  0.00     0.132 A 
HETATM   26  C19 UNL     1      19.197   2.516  51.654  1.00  0.00     0.111 A 
HETATM   27  N3  UNL     1      17.509   0.591  51.093  1.00  0.00    -0.253 NA
HETATM   28  C18 UNL     1      17.002   1.809  51.339  1.00  0.00     0.233 A 
HETATM   29  N4  UNL     1      17.912   2.756  51.620  1.00  0.00    -0.234 NA
HETATM   30  S1  UNL     1      20.636   3.496  51.979  1.00  0.00    -0.072 SA
ENDBRANCH   1  22
TORSDOF 6
ENDMDL
