MODEL 1
REMARK VINA RESULT:      -6.9      0.000      0.000
REMARK  7 active torsions:
REMARK  status: ('A' for Active; 'I' for Inactive)
REMARK    1  A    between atoms: O1_2  and  C2_3 
REMARK    2  A    between atoms: C2_3  and  C3_4 
REMARK    3  A    between atoms: C3_4  and  C4_6 
REMARK    4  A    between atoms: C4_6  and  N1_7 
REMARK    5  A    between atoms: N1_7  and  C5_8 
REMARK    6  A    between atoms: C7_12  and  N4_13 
REMARK    7  A    between atoms: N5_14  and  C8_15 
ROOT
HETATM    1  C5  UNL     1      23.459  -0.175  53.563  1.00  0.00     0.169 A 
HETATM    2  N2  UNL     1      23.842  -0.783  54.704  1.00  0.00    -0.221 NA
HETATM    3  C6  UNL     1      22.968  -1.452  55.478  1.00  0.00     0.237 A 
HETATM    4  N3  UNL     1      21.667  -1.548  55.153  1.00  0.00    -0.220 NA
HETATM    5  C7  UNL     1      21.235  -0.955  54.019  1.00  0.00     0.182 A 
HETATM    6  C14 UNL     1      22.129  -0.257  53.204  1.00  0.00     0.036 A 
HETATM    7  C15 UNL     1      21.621   0.394  51.947  1.00  0.00     0.056 C 
ENDROOT
BRANCH   5   8
HETATM    8  N4  UNL     1      19.864  -0.998  53.582  1.00  0.00    -0.129 NA
HETATM    9  N5  UNL     1      19.183  -2.060  53.658  1.00  0.00    -0.148 NA
BRANCH   9  10
HETATM   10  C8  UNL     1      17.848  -2.224  53.269  1.00  0.00     0.080 A 
HETATM   11  C9  UNL     1      17.281  -3.477  53.489  1.00  0.00     0.033 A 
HETATM   12  C10 UNL     1      15.969  -3.753  53.145  1.00  0.00     0.004 A 
HETATM   13  C11 UNL     1      15.172  -2.775  52.561  1.00  0.00     0.024 A 
HETATM   14  C12 UNL     1      15.715  -1.535  52.338  1.00  0.00     0.036 A 
HETATM   15 CL1  UNL     1      14.796  -0.219  51.604  1.00  0.00    -0.084 Cl
HETATM   16  C13 UNL     1      17.029  -1.280  52.690  1.00  0.00     0.057 A 
ENDBRANCH   9  10
ENDBRANCH   5   8
BRANCH   1  17
HETATM   17  N1  UNL     1      24.302   0.555  52.677  1.00  0.00    -0.183 NA
BRANCH  17  18
HETATM   18  C4  UNL     1      25.572   0.319  52.704  1.00  0.00     0.026 C 
BRANCH  18  19
HETATM   19  C3  UNL     1      26.767  -0.255  52.702  1.00  0.00     0.181 C 
HETATM   20  F1  UNL     1      26.825  -1.228  51.772  1.00  0.00    -0.198 F 
BRANCH  19  21
HETATM   21  C2  UNL     1      27.783   0.245  53.663  1.00  0.00     0.247 C 
BRANCH  21  22
HETATM   22  O1  UNL     1      28.503  -0.749  54.295  1.00  0.00    -0.389 OA
HETATM   23  C1  UNL     1      29.644  -1.080  53.580  1.00  0.00     0.202 C 
ENDBRANCH  21  22
ENDBRANCH  19  21
ENDBRANCH  18  19
ENDBRANCH  17  18
ENDBRANCH   1  17
TORSDOF 7
ENDMDL
MODEL 2
REMARK VINA RESULT:      -6.9      4.935      8.337
REMARK  7 active torsions:
REMARK  status: ('A' for Active; 'I' for Inactive)
REMARK    1  A    between atoms: O1_2  and  C2_3 
REMARK    2  A    between atoms: C2_3  and  C3_4 
REMARK    3  A    between atoms: C3_4  and  C4_6 
REMARK    4  A    between atoms: C4_6  and  N1_7 
REMARK    5  A    between atoms: N1_7  and  C5_8 
REMARK    6  A    between atoms: C7_12  and  N4_13 
REMARK    7  A    between atoms: N5_14  and  C8_15 
ROOT
HETATM    1  C5  UNL     1      24.068   0.410  52.998  1.00  0.00     0.169 A 
HETATM    2  N2  UNL     1      22.855   0.036  52.544  1.00  0.00    -0.221 NA
HETATM    3  C6  UNL     1      22.150   0.802  51.693  1.00  0.00     0.237 A 
HETATM    4  N3  UNL     1      22.619   1.983  51.252  1.00  0.00    -0.220 NA
HETATM    5  C7  UNL     1      23.830   2.401  51.679  1.00  0.00     0.182 A 
HETATM    6  C14 UNL     1      24.575   1.617  52.562  1.00  0.00     0.036 A 
HETATM    7  C15 UNL     1      25.920   2.107  53.023  1.00  0.00     0.056 C 
ENDROOT
BRANCH   5   8
HETATM    8  N4  UNL     1      24.422   3.648  51.268  1.00  0.00    -0.129 NA
HETATM    9  N5  UNL     1      25.207   3.707  50.280  1.00  0.00    -0.148 NA
BRANCH   9  10
HETATM   10  C8  UNL     1      25.840   4.855  49.786  1.00  0.00     0.080 A 
HETATM   11  C9  UNL     1      26.945   4.654  48.961  1.00  0.00     0.033 A 
HETATM   12  C10 UNL     1      27.647   5.716  48.416  1.00  0.00     0.004 A 
HETATM   13  C11 UNL     1      27.266   7.025  48.681  1.00  0.00     0.024 A 
HETATM   14  C12 UNL     1      26.179   7.240  49.491  1.00  0.00     0.036 A 
HETATM   15 CL1  UNL     1      25.607   8.860  49.894  1.00  0.00    -0.084 Cl
HETATM   16  C13 UNL     1      25.491   6.166  50.026  1.00  0.00     0.057 A 
ENDBRANCH   9  10
ENDBRANCH   5   8
BRANCH   1  17
HETATM   17  N1  UNL     1      24.892  -0.327  53.897  1.00  0.00    -0.183 NA
BRANCH  17  18
HETATM   18  C4  UNL     1      25.819  -1.079  53.403  1.00  0.00     0.026 C 
BRANCH  18  19
HETATM   19  C3  UNL     1      26.906  -1.543  52.802  1.00  0.00     0.181 C 
HETATM   20  F1  UNL     1      26.578  -2.470  51.880  1.00  0.00    -0.198 F 
BRANCH  19  21
HETATM   21  C2  UNL     1      28.221  -0.995  53.217  1.00  0.00     0.247 C 
BRANCH  21  22
HETATM   22  O1  UNL     1      28.292  -0.635  54.548  1.00  0.00    -0.389 OA
HETATM   23  C1  UNL     1      28.859   0.621  54.704  1.00  0.00     0.202 C 
ENDBRANCH  21  22
ENDBRANCH  19  21
ENDBRANCH  18  19
ENDBRANCH  17  18
ENDBRANCH   1  17
TORSDOF 7
ENDMDL
MODEL 3
REMARK VINA RESULT:      -6.9      2.060      2.530
REMARK  7 active torsions:
REMARK  status: ('A' for Active; 'I' for Inactive)
REMARK    1  A    between atoms: O1_2  and  C2_3 
REMARK    2  A    between atoms: C2_3  and  C3_4 
REMARK    3  A    between atoms: C3_4  and  C4_6 
REMARK    4  A    between atoms: C4_6  and  N1_7 
REMARK    5  A    between atoms: N1_7  and  C5_8 
REMARK    6  A    between atoms: C7_12  and  N4_13 
REMARK    7  A    between atoms: N5_14  and  C8_15 
ROOT
HETATM    1  C5  UNL     1      25.341   0.749  53.098  1.00  0.00     0.169 A 
HETATM    2  N2  UNL     1      25.574  -0.021  54.179  1.00  0.00    -0.221 NA
HETATM    3  C6  UNL     1      24.605  -0.768  54.738  1.00  0.00     0.237 A 
HETATM    4  N3  UNL     1      23.353  -0.784  54.247  1.00  0.00    -0.220 NA
HETATM    5  C7  UNL     1      23.071  -0.029  53.163  1.00  0.00     0.182 A 
HETATM    6  C14 UNL     1      24.066   0.751  52.570  1.00  0.00     0.036 A 
HETATM    7  C15 UNL     1      23.724   1.583  51.365  1.00  0.00     0.056 C 
ENDROOT
BRANCH   5   8
HETATM    8  N4  UNL     1      21.765   0.025  52.560  1.00  0.00    -0.129 NA
HETATM    9  N5  UNL     1      20.756  -0.474  53.134  1.00  0.00    -0.148 NA
BRANCH   9  10
HETATM   10  C8  UNL     1      19.441  -0.482  52.650  1.00  0.00     0.080 A 
HETATM   11  C9  UNL     1      18.511  -1.218  53.380  1.00  0.00     0.033 A 
HETATM   12  C10 UNL     1      17.183  -1.296  52.995  1.00  0.00     0.004 A 
HETATM   13  C11 UNL     1      16.737  -0.635  51.857  1.00  0.00     0.024 A 
HETATM   14  C12 UNL     1      17.641   0.096  51.127  1.00  0.00     0.036 A 
HETATM   15 CL1  UNL     1      17.187   0.975  49.667  1.00  0.00    -0.084 Cl
HETATM   16  C13 UNL     1      18.964   0.161  51.529  1.00  0.00     0.057 A 
ENDBRANCH   9  10
ENDBRANCH   5   8
BRANCH   1  17
HETATM   17  N1  UNL     1      26.295   1.572  52.432  1.00  0.00    -0.183 NA
BRANCH  17  18
HETATM   18  C4  UNL     1      27.497   1.622  52.903  1.00  0.00     0.026 C 
BRANCH  18  19
HETATM   19  C3  UNL     1      28.561   1.728  53.687  1.00  0.00     0.181 C 
HETATM   20  F1  UNL     1      29.026   2.993  53.687  1.00  0.00    -0.198 F 
BRANCH  19  21
HETATM   21  C2  UNL     1      29.032   0.510  54.394  1.00  0.00     0.247 C 
BRANCH  21  22
HETATM   22  O1  UNL     1      29.927  -0.255  53.673  1.00  0.00    -0.389 OA
HETATM   23  C1  UNL     1      29.420  -1.520  53.416  1.00  0.00     0.202 C 
ENDBRANCH  21  22
ENDBRANCH  19  21
ENDBRANCH  18  19
ENDBRANCH  17  18
ENDBRANCH   1  17
TORSDOF 7
ENDMDL
MODEL 4
REMARK VINA RESULT:      -6.8      1.815      2.571
REMARK  7 active torsions:
REMARK  status: ('A' for Active; 'I' for Inactive)
REMARK    1  A    between atoms: O1_2  and  C2_3 
REMARK    2  A    between atoms: C2_3  and  C3_4 
REMARK    3  A    between atoms: C3_4  and  C4_6 
REMARK    4  A    between atoms: C4_6  and  N1_7 
REMARK    5  A    between atoms: N1_7  and  C5_8 
REMARK    6  A    between atoms: C7_12  and  N4_13 
REMARK    7  A    between atoms: N5_14  and  C8_15 
ROOT
HETATM    1  C5  UNL     1      24.019   0.417  53.383  1.00  0.00     0.169 A 
HETATM    2  N2  UNL     1      24.397   1.646  52.977  1.00  0.00    -0.221 NA
HETATM    3  C6  UNL     1      23.511   2.535  52.494  1.00  0.00     0.237 A 
HETATM    4  N3  UNL     1      22.202   2.244  52.391  1.00  0.00    -0.220 NA
HETATM    5  C7  UNL     1      21.775   1.025  52.786  1.00  0.00     0.182 A 
HETATM    6  C14 UNL     1      22.682   0.090  53.291  1.00  0.00     0.036 A 
HETATM    7  C15 UNL     1      22.179  -1.259  53.723  1.00  0.00     0.056 C 
ENDROOT
BRANCH   5   8
HETATM    8  N4  UNL     1      20.397   0.614  52.718  1.00  0.00    -0.129 NA
HETATM    9  N5  UNL     1      19.857   0.309  51.617  1.00  0.00    -0.148 NA
BRANCH   9  10
HETATM   10  C8  UNL     1      18.533  -0.105  51.424  1.00  0.00     0.080 A 
HETATM   11  C9  UNL     1      17.934  -0.794  52.477  1.00  0.00     0.033 A 
HETATM   12  C10 UNL     1      16.629  -1.250  52.398  1.00  0.00     0.004 A 
HETATM   13  C11 UNL     1      15.873  -1.032  51.253  1.00  0.00     0.024 A 
HETATM   14  C12 UNL     1      16.448  -0.354  50.207  1.00  0.00     0.036 A 
HETATM   15 CL1  UNL     1      15.582  -0.020  48.707  1.00  0.00    -0.084 Cl
HETATM   16  C13 UNL     1      17.754   0.094  50.306  1.00  0.00     0.057 A 
ENDBRANCH   9  10
ENDBRANCH   5   8
BRANCH   1  17
HETATM   17  N1  UNL     1      24.875  -0.594  53.909  1.00  0.00    -0.183 NA
BRANCH  17  18
HETATM   18  C4  UNL     1      25.924  -0.923  53.229  1.00  0.00     0.026 C 
BRANCH  18  19
HETATM   19  C3  UNL     1      27.005  -1.527  52.756  1.00  0.00     0.181 C 
HETATM   20  F1  UNL     1      26.664  -2.485  51.871  1.00  0.00    -0.198 F 
BRANCH  19  21
HETATM   21  C2  UNL     1      28.330  -1.073  53.247  1.00  0.00     0.247 C 
BRANCH  21  22
HETATM   22  O1  UNL     1      28.317  -0.572  54.534  1.00  0.00    -0.389 OA
HETATM   23  C1  UNL     1      28.896   0.687  54.593  1.00  0.00     0.202 C 
ENDBRANCH  21  22
ENDBRANCH  19  21
ENDBRANCH  18  19
ENDBRANCH  17  18
ENDBRANCH   1  17
TORSDOF 7
ENDMDL
MODEL 5
REMARK VINA RESULT:      -6.7      5.117      8.702
REMARK  7 active torsions:
REMARK  status: ('A' for Active; 'I' for Inactive)
REMARK    1  A    between atoms: O1_2  and  C2_3 
REMARK    2  A    between atoms: C2_3  and  C3_4 
REMARK    3  A    between atoms: C3_4  and  C4_6 
REMARK    4  A    between atoms: C4_6  and  N1_7 
REMARK    5  A    between atoms: N1_7  and  C5_8 
REMARK    6  A    between atoms: C7_12  and  N4_13 
REMARK    7  A    between atoms: N5_14  and  C8_15 
ROOT
HETATM    1  C5  UNL     1      21.222  -0.032  52.546  1.00  0.00     0.169 A 
HETATM    2  N2  UNL     1      20.669  -0.847  53.465  1.00  0.00    -0.221 NA
HETATM    3  C6  UNL     1      21.387  -1.364  54.477  1.00  0.00     0.237 A 
HETATM    4  N3  UNL     1      22.697  -1.094  54.624  1.00  0.00    -0.220 NA
HETATM    5  C7  UNL     1      23.296  -0.282  53.728  1.00  0.00     0.182 A 
HETATM    6  C14 UNL     1      22.564   0.264  52.671  1.00  0.00     0.036 A 
HETATM    7  C15 UNL     1      23.258   1.166  51.687  1.00  0.00     0.056 C 
ENDROOT
BRANCH   5   8
HETATM    8  N4  UNL     1      24.691   0.070  53.795  1.00  0.00    -0.129 NA
HETATM    9  N5  UNL     1      25.595  -0.788  53.584  1.00  0.00    -0.148 NA
BRANCH   9  10
HETATM   10  C8  UNL     1      26.977  -0.567  53.618  1.00  0.00     0.080 A 
HETATM   11  C9  UNL     1      27.789  -1.616  53.193  1.00  0.00     0.033 A 
HETATM   12  C10 UNL     1      29.170  -1.509  53.183  1.00  0.00     0.004 A 
HETATM   13  C11 UNL     1      29.790  -0.339  53.603  1.00  0.00     0.024 A 
HETATM   14  C12 UNL     1      29.005   0.705  54.024  1.00  0.00     0.036 A 
HETATM   15 CL1  UNL     1      29.685   2.236  54.578  1.00  0.00    -0.084 Cl
HETATM   16  C13 UNL     1      27.627   0.578  54.026  1.00  0.00     0.057 A 
ENDBRANCH   9  10
ENDBRANCH   5   8
BRANCH   1  17
HETATM   17  N1  UNL     1      20.551   0.566  51.440  1.00  0.00    -0.183 NA
BRANCH  17  18
HETATM   18  C4  UNL     1      19.922   1.678  51.634  1.00  0.00     0.026 C 
BRANCH  18  19
HETATM   19  C3  UNL     1      19.062   2.686  51.591  1.00  0.00     0.181 C 
HETATM   20  F1  UNL     1      17.803   2.245  51.783  1.00  0.00    -0.198 F 
BRANCH  19  21
HETATM   21  C2  UNL     1      19.597   4.051  51.358  1.00  0.00     0.247 C 
BRANCH  21  22
HETATM   22  O1  UNL     1      20.945   4.186  51.629  1.00  0.00    -0.389 OA
HETATM   23  C1  UNL     1      21.428   5.411  51.194  1.00  0.00     0.202 C 
ENDBRANCH  21  22
ENDBRANCH  19  21
ENDBRANCH  18  19
ENDBRANCH  17  18
ENDBRANCH   1  17
TORSDOF 7
ENDMDL
MODEL 6
REMARK VINA RESULT:      -6.6      4.654      8.972
REMARK  7 active torsions:
REMARK  status: ('A' for Active; 'I' for Inactive)
REMARK    1  A    between atoms: O1_2  and  C2_3 
REMARK    2  A    between atoms: C2_3  and  C3_4 
REMARK    3  A    between atoms: C3_4  and  C4_6 
REMARK    4  A    between atoms: C4_6  and  N1_7 
REMARK    5  A    between atoms: N1_7  and  C5_8 
REMARK    6  A    between atoms: C7_12  and  N4_13 
REMARK    7  A    between atoms: N5_14  and  C8_15 
ROOT
HETATM    1  C5  UNL     1      21.201   0.690  52.932  1.00  0.00     0.169 A 
HETATM    2  N2  UNL     1      20.641  -0.448  53.388  1.00  0.00    -0.221 NA
HETATM    3  C6  UNL     1      21.363  -1.389  54.021  1.00  0.00     0.237 A 
HETATM    4  N3  UNL     1      22.684  -1.244  54.231  1.00  0.00    -0.220 NA
HETATM    5  C7  UNL     1      23.291  -0.120  53.792  1.00  0.00     0.182 A 
HETATM    6  C14 UNL     1      22.555   0.867  53.134  1.00  0.00     0.036 A 
HETATM    7  C15 UNL     1      23.257   2.108  52.655  1.00  0.00     0.056 C 
ENDROOT
BRANCH   5   8
HETATM    8  N4  UNL     1      24.698   0.133  53.965  1.00  0.00    -0.129 NA
HETATM    9  N5  UNL     1      25.569  -0.609  53.429  1.00  0.00    -0.148 NA
BRANCH   9  10
HETATM   10  C8  UNL     1      26.959  -0.463  53.522  1.00  0.00     0.080 A 
HETATM   11  C9  UNL     1      27.730  -1.552  53.123  1.00  0.00     0.033 A 
HETATM   12  C10 UNL     1      29.114  -1.520  53.171  1.00  0.00     0.004 A 
HETATM   13  C11 UNL     1      29.778  -0.388  53.627  1.00  0.00     0.024 A 
HETATM   14  C12 UNL     1      29.033   0.694  54.024  1.00  0.00     0.036 A 
HETATM   15 CL1  UNL     1      29.770   2.182  54.619  1.00  0.00    -0.084 Cl
HETATM   16  C13 UNL     1      27.651   0.642  53.967  1.00  0.00     0.057 A 
ENDBRANCH   9  10
ENDBRANCH   5   8
BRANCH   1  17
HETATM   17  N1  UNL     1      20.527   1.745  52.252  1.00  0.00    -0.183 NA
BRANCH  17  18
HETATM   18  C4  UNL     1      19.385   1.489  51.704  1.00  0.00     0.026 C 
BRANCH  18  19
HETATM   19  C3  UNL     1      18.415   1.080  50.898  1.00  0.00     0.181 C 
HETATM   20  F1  UNL     1      18.678   1.430  49.624  1.00  0.00    -0.198 F 
BRANCH  19  21
HETATM   21  C2  UNL     1      17.273   0.344  51.498  1.00  0.00     0.247 C 
BRANCH  21  22
HETATM   22  O1  UNL     1      17.558  -0.963  51.842  1.00  0.00    -0.389 OA
HETATM   23  C1  UNL     1      17.159  -1.242  53.140  1.00  0.00     0.202 C 
ENDBRANCH  21  22
ENDBRANCH  19  21
ENDBRANCH  18  19
ENDBRANCH  17  18
ENDBRANCH   1  17
TORSDOF 7
ENDMDL
MODEL 7
REMARK VINA RESULT:      -6.6      5.838      9.702
REMARK  7 active torsions:
REMARK  status: ('A' for Active; 'I' for Inactive)
REMARK    1  A    between atoms: O1_2  and  C2_3 
REMARK    2  A    between atoms: C2_3  and  C3_4 
REMARK    3  A    between atoms: C3_4  and  C4_6 
REMARK    4  A    between atoms: C4_6  and  N1_7 
REMARK    5  A    between atoms: N1_7  and  C5_8 
REMARK    6  A    between atoms: C7_12  and  N4_13 
REMARK    7  A    between atoms: N5_14  and  C8_15 
ROOT
HETATM    1  C5  UNL     1      23.819   1.126  52.330  1.00  0.00     0.169 A 
HETATM    2  N2  UNL     1      22.534   1.457  52.096  1.00  0.00    -0.221 NA
HETATM    3  C6  UNL     1      22.203   2.556  51.395  1.00  0.00     0.237 A 
HETATM    4  N3  UNL     1      23.138   3.382  50.891  1.00  0.00    -0.220 NA
HETATM    5  C7  UNL     1      24.440   3.091  51.100  1.00  0.00     0.182 A 
HETATM    6  C14 UNL     1      24.801   1.954  51.825  1.00  0.00     0.036 A 
HETATM    7  C15 UNL     1      26.259   1.655  52.043  1.00  0.00     0.056 C 
ENDROOT
BRANCH   5   8
HETATM    8  N4  UNL     1      25.517   3.909  50.604  1.00  0.00    -0.129 NA
HETATM    9  N5  UNL     1      25.440   4.488  49.484  1.00  0.00    -0.148 NA
BRANCH   9  10
HETATM   10  C8  UNL     1      26.415   5.306  48.900  1.00  0.00     0.080 A 
HETATM   11  C9  UNL     1      27.683   4.750  48.741  1.00  0.00     0.033 A 
HETATM   12  C10 UNL     1      28.725   5.466  48.175  1.00  0.00     0.004 A 
HETATM   13  C11 UNL     1      28.531   6.773  47.746  1.00  0.00     0.024 A 
HETATM   14  C12 UNL     1      27.288   7.335  47.894  1.00  0.00     0.036 A 
HETATM   15 CL1  UNL     1      26.929   8.986  47.385  1.00  0.00    -0.084 Cl
HETATM   16  C13 UNL     1      26.260   6.603  48.462  1.00  0.00     0.057 A 
ENDBRANCH   9  10
ENDBRANCH   5   8
BRANCH   1  17
HETATM   17  N1  UNL     1      24.274  -0.012  53.058  1.00  0.00    -0.183 NA
BRANCH  17  18
HETATM   18  C4  UNL     1      23.412  -0.684  53.746  1.00  0.00     0.026 C 
BRANCH  18  19
HETATM   19  C3  UNL     1      22.612  -1.142  54.699  1.00  0.00     0.181 C 
HETATM   20  F1  UNL     1      23.278  -1.250  55.866  1.00  0.00    -0.198 F 
BRANCH  19  21
HETATM   21  C2  UNL     1      21.201  -1.438  54.344  1.00  0.00     0.247 C 
BRANCH  21  22
HETATM   22  O1  UNL     1      20.383  -0.326  54.296  1.00  0.00    -0.389 OA
HETATM   23  C1  UNL     1      19.572  -0.343  53.172  1.00  0.00     0.202 C 
ENDBRANCH  21  22
ENDBRANCH  19  21
ENDBRANCH  18  19
ENDBRANCH  17  18
ENDBRANCH   1  17
TORSDOF 7
ENDMDL
MODEL 8
REMARK VINA RESULT:      -6.6      2.445      3.561
REMARK  7 active torsions:
REMARK  status: ('A' for Active; 'I' for Inactive)
REMARK    1  A    between atoms: O1_2  and  C2_3 
REMARK    2  A    between atoms: C2_3  and  C3_4 
REMARK    3  A    between atoms: C3_4  and  C4_6 
REMARK    4  A    between atoms: C4_6  and  N1_7 
REMARK    5  A    between atoms: N1_7  and  C5_8 
REMARK    6  A    between atoms: C7_12  and  N4_13 
REMARK    7  A    between atoms: N5_14  and  C8_15 
ROOT
HETATM    1  C5  UNL     1      25.659   1.018  53.811  1.00  0.00     0.169 A 
HETATM    2  N2  UNL     1      25.921   2.092  53.039  1.00  0.00    -0.221 NA
HETATM    3  C6  UNL     1      25.026   2.561  52.151  1.00  0.00     0.237 A 
HETATM    4  N3  UNL     1      23.823   1.982  51.988  1.00  0.00    -0.220 NA
HETATM    5  C7  UNL     1      23.514   0.903  52.739  1.00  0.00     0.182 A 
HETATM    6  C14 UNL     1      24.432   0.404  53.666  1.00  0.00     0.036 A 
HETATM    7  C15 UNL     1      24.062  -0.799  54.489  1.00  0.00     0.056 C 
ENDROOT
BRANCH   5   8
HETATM    8  N4  UNL     1      22.256   0.211  52.642  1.00  0.00    -0.129 NA
HETATM    9  N5  UNL     1      21.179   0.834  52.417  1.00  0.00    -0.148 NA
BRANCH   9  10
HETATM   10  C8  UNL     1      19.901   0.274  52.300  1.00  0.00     0.080 A 
HETATM   11  C9  UNL     1      19.050   0.849  51.359  1.00  0.00     0.033 A 
HETATM   12  C10 UNL     1      17.764   0.377  51.156  1.00  0.00     0.004 A 
HETATM   13  C11 UNL     1      17.282  -0.696  51.896  1.00  0.00     0.024 A 
HETATM   14  C12 UNL     1      18.108  -1.275  52.827  1.00  0.00     0.036 A 
HETATM   15 CL1  UNL     1      17.601  -2.641  53.821  1.00  0.00    -0.084 Cl
HETATM   16  C13 UNL     1      19.390  -0.788  53.013  1.00  0.00     0.057 A 
ENDBRANCH   9  10
ENDBRANCH   5   8
BRANCH   1  17
HETATM   17  N1  UNL     1      26.535   0.445  54.778  1.00  0.00    -0.183 NA
BRANCH  17  18
HETATM   18  C4  UNL     1      27.805   0.461  54.540  1.00  0.00     0.026 C 
BRANCH  18  19
HETATM   19  C3  UNL     1      29.021   0.752  54.101  1.00  0.00     0.181 C 
HETATM   20  F1  UNL     1      29.264   2.073  54.218  1.00  0.00    -0.198 F 
BRANCH  19  21
HETATM   21  C2  UNL     1      29.864  -0.358  53.590  1.00  0.00     0.247 C 
BRANCH  21  22
HETATM   22  O1  UNL     1      29.521  -1.603  54.079  1.00  0.00    -0.389 OA
HETATM   23  C1  UNL     1      29.070  -2.437  53.068  1.00  0.00     0.202 C 
ENDBRANCH  21  22
ENDBRANCH  19  21
ENDBRANCH  18  19
ENDBRANCH  17  18
ENDBRANCH   1  17
TORSDOF 7
ENDMDL
MODEL 9
REMARK VINA RESULT:      -6.5      5.328      7.022
REMARK  7 active torsions:
REMARK  status: ('A' for Active; 'I' for Inactive)
REMARK    1  A    between atoms: O1_2  and  C2_3 
REMARK    2  A    between atoms: C2_3  and  C3_4 
REMARK    3  A    between atoms: C3_4  and  C4_6 
REMARK    4  A    between atoms: C4_6  and  N1_7 
REMARK    5  A    between atoms: N1_7  and  C5_8 
REMARK    6  A    between atoms: C7_12  and  N4_13 
REMARK    7  A    between atoms: N5_14  and  C8_15 
ROOT
HETATM    1  C5  UNL     1      25.977   4.340  50.021  1.00  0.00     0.169 A 
HETATM    2  N2  UNL     1      25.291   5.495  49.910  1.00  0.00    -0.221 NA
HETATM    3  C6  UNL     1      24.145   5.705  50.582  1.00  0.00     0.237 A 
HETATM    4  N3  UNL     1      23.624   4.773  51.399  1.00  0.00    -0.220 NA
HETATM    5  C7  UNL     1      24.275   3.599  51.543  1.00  0.00     0.182 A 
HETATM    6  C14 UNL     1      25.467   3.364  50.853  1.00  0.00     0.036 A 
HETATM    7  C15 UNL     1      26.171   2.048  51.031  1.00  0.00     0.056 C 
ENDROOT
BRANCH   5   8
HETATM    8  N4  UNL     1      23.803   2.536  52.391  1.00  0.00    -0.129 NA
HETATM    9  N5  UNL     1      22.782   1.856  52.085  1.00  0.00    -0.148 NA
BRANCH   9  10
HETATM   10  C8  UNL     1      22.231   0.802  52.825  1.00  0.00     0.080 A 
HETATM   11  C9  UNL     1      23.093   0.120  53.681  1.00  0.00     0.033 A 
HETATM   12  C10 UNL     1      22.657  -0.937  54.460  1.00  0.00     0.004 A 
HETATM   13  C11 UNL     1      21.332  -1.354  54.409  1.00  0.00     0.024 A 
HETATM   14  C12 UNL     1      20.469  -0.692  53.571  1.00  0.00     0.036 A 
HETATM   15 CL1  UNL     1      18.768  -1.135  53.425  1.00  0.00    -0.084 Cl
HETATM   16  C13 UNL     1      20.925   0.363  52.800  1.00  0.00     0.057 A 
ENDBRANCH   9  10
ENDBRANCH   5   8
BRANCH   1  17
HETATM   17  N1  UNL     1      27.196   4.019  49.356  1.00  0.00    -0.183 NA
BRANCH  17  18
HETATM   18  C4  UNL     1      27.744   4.923  48.613  1.00  0.00     0.026 C 
BRANCH  18  19
HETATM   19  C3  UNL     1      28.465   5.935  48.149  1.00  0.00     0.181 C 
HETATM   20  F1  UNL     1      29.690   5.514  47.779  1.00  0.00    -0.198 F 
BRANCH  19  21
HETATM   21  C2  UNL     1      27.837   7.280  48.113  1.00  0.00     0.247 C 
BRANCH  21  22
HETATM   22  O1  UNL     1      27.679   7.865  49.354  1.00  0.00    -0.389 OA
HETATM   23  C1  UNL     1      28.184   9.156  49.372  1.00  0.00     0.202 C 
ENDBRANCH  21  22
ENDBRANCH  19  21
ENDBRANCH  18  19
ENDBRANCH  17  18
ENDBRANCH   1  17
TORSDOF 7
ENDMDL
