MODEL 1
REMARK VINA RESULT:      -8.5      0.000      0.000
REMARK  6 active torsions:
REMARK  status: ('A' for Active; 'I' for Inactive)
REMARK    1  A    between atoms: C2_2  and  N1_3 
REMARK    2  A    between atoms: C2_2  and  C13_18 
REMARK    3  A    between atoms: N1_3  and  C3_4 
REMARK    4  A    between atoms: C5_6  and  N2_7 
REMARK    5  A    between atoms: N2_7  and  C6_8 
REMARK    6  A    between atoms: C11_13  and  O1_14 
ROOT
HETATM    1  C3  UNL     1      22.267  -0.572  53.284  1.00  0.00     0.129 A 
HETATM    2  C4  UNL     1      23.615  -0.291  53.265  1.00  0.00     0.100 A 
HETATM    3  C5  UNL     1      24.358  -0.715  54.338  1.00  0.00     0.132 A 
HETATM    4  N3  UNL     1      23.783  -1.370  55.353  1.00  0.00    -0.224 NA
HETATM    5  C12 UNL     1      22.463  -1.657  55.398  1.00  0.00     0.237 A 
HETATM    6  N4  UNL     1      21.765  -1.233  54.337  1.00  0.00    -0.225 NA
ENDROOT
BRANCH   1   7
HETATM    7  N1  UNL     1      21.496  -0.139  52.160  1.00  0.00    -0.366 N 
HETATM    8  H5  UNL     1      20.952  -0.780  51.582  1.00  0.00     0.161 HD
BRANCH   7   9
HETATM    9  C2  UNL     1      21.578   1.302  51.938  1.00  0.00     0.112 C 
HETATM   10  C1  UNL     1      20.210   1.857  52.316  1.00  0.00     0.037 C 
BRANCH   9  11
HETATM   11  C13 UNL     1      21.967   1.674  50.578  1.00  0.00    -0.033 A 
HETATM   12  C14 UNL     1      21.258   1.113  49.535  1.00  0.00     0.009 A 
HETATM   13  C15 UNL     1      21.618   1.465  48.229  1.00  0.00     0.004 A 
HETATM   14  C16 UNL     1      22.658   2.348  48.056  1.00  0.00     0.042 A 
HETATM   15  C17 UNL     1      23.371   2.911  49.092  1.00  0.00     0.117 A 
HETATM   16  F1  UNL     1      24.389   3.776  48.938  1.00  0.00    -0.206 F 
HETATM   17  C18 UNL     1      23.011   2.562  50.401  1.00  0.00     0.051 A 
ENDBRANCH   9  11
ENDBRANCH   7   9
ENDBRANCH   1   7
BRANCH   3  18
HETATM   18  N2  UNL     1      25.740  -0.582  54.633  1.00  0.00    -0.343 N 
HETATM   19  H7  UNL     1      25.947  -0.573  55.650  1.00  0.00     0.167 HD
BRANCH  18  20
HETATM   20  C6  UNL     1      26.839  -0.461  53.734  1.00  0.00     0.027 A 
HETATM   21  C7  UNL     1      27.137  -0.258  52.400  1.00  0.00     0.022 A 
HETATM   22  C8  UNL     1      28.167  -0.417  53.320  1.00  0.00     0.068 A 
HETATM   23  C9  UNL     1      29.191  -1.441  53.332  1.00  0.00    -0.005 A 
HETATM   24  C11 UNL     1      29.190   0.581  53.717  1.00  0.00     0.163 A 
HETATM   25  C10 UNL     1      30.108  -0.570  53.683  1.00  0.00     0.004 A 
BRANCH  24  26
HETATM   26  O1  UNL     1      29.026   1.162  54.973  1.00  0.00    -0.390 OA
HETATM   27  H12 UNL     1      29.788   1.065  55.571  1.00  0.00     0.210 HD
ENDBRANCH  24  26
ENDBRANCH  18  20
ENDBRANCH   3  18
TORSDOF 6
ENDMDL
MODEL 2
REMARK VINA RESULT:      -8.5      3.449      5.411
REMARK  6 active torsions:
REMARK  status: ('A' for Active; 'I' for Inactive)
REMARK    1  A    between atoms: C2_2  and  N1_3 
REMARK    2  A    between atoms: C2_2  and  C13_18 
REMARK    3  A    between atoms: N1_3  and  C3_4 
REMARK    4  A    between atoms: C5_6  and  N2_7 
REMARK    5  A    between atoms: N2_7  and  C6_8 
REMARK    6  A    between atoms: C11_13  and  O1_14 
ROOT
HETATM    1  C3  UNL     1      25.340  -0.185  53.378  1.00  0.00     0.129 A 
HETATM    2  C4  UNL     1      25.422   0.923  52.565  1.00  0.00     0.100 A 
HETATM    3  C5  UNL     1      26.578   1.660  52.625  1.00  0.00     0.132 A 
HETATM    4  N3  UNL     1      27.575   1.305  53.444  1.00  0.00    -0.224 NA
HETATM    5  C12 UNL     1      27.520   0.224  54.252  1.00  0.00     0.237 A 
HETATM    6  N4  UNL     1      26.381  -0.476  54.171  1.00  0.00    -0.225 NA
ENDROOT
BRANCH   1   7
HETATM    7  N1  UNL     1      24.139  -0.959  53.307  1.00  0.00    -0.366 N 
HETATM    8  H5  UNL     1      24.076  -1.837  52.792  1.00  0.00     0.161 HD
BRANCH   7   9
HETATM    9  C2  UNL     1      23.032  -0.352  54.043  1.00  0.00     0.112 C 
HETATM   10  C1  UNL     1      22.821  -1.232  55.269  1.00  0.00     0.037 C 
BRANCH   9  11
HETATM   11  C13 UNL     1      21.808  -0.199  53.257  1.00  0.00    -0.033 A 
HETATM   12  C14 UNL     1      21.927   0.320  51.983  1.00  0.00     0.009 A 
HETATM   13  C15 UNL     1      20.764   0.467  51.220  1.00  0.00     0.004 A 
HETATM   14  C16 UNL     1      19.565   0.088  51.779  1.00  0.00     0.042 A 
HETATM   15  C17 UNL     1      19.439  -0.431  53.050  1.00  0.00     0.117 A 
HETATM   16  F1  UNL     1      18.275  -0.806  53.610  1.00  0.00    -0.206 F 
HETATM   17  C18 UNL     1      20.603  -0.580  53.816  1.00  0.00     0.051 A 
ENDBRANCH   9  11
ENDBRANCH   7   9
ENDBRANCH   1   7
BRANCH   3  18
HETATM   18  N2  UNL     1      26.974   2.840  51.943  1.00  0.00    -0.343 N 
HETATM   19  H7  UNL     1      27.578   3.464  52.513  1.00  0.00     0.167 HD
BRANCH  18  20
HETATM   20  C6  UNL     1      26.652   3.261  50.621  1.00  0.00     0.027 A 
HETATM   21  C7  UNL     1      26.076   2.815  49.446  1.00  0.00     0.022 A 
HETATM   22  C8  UNL     1      26.562   4.114  49.525  1.00  0.00     0.068 A 
HETATM   23  C9  UNL     1      27.600   4.720  48.716  1.00  0.00    -0.005 A 
HETATM   24  C11 UNL     1      25.790   5.377  49.443  1.00  0.00     0.163 A 
HETATM   25  C10 UNL     1      26.929   5.845  48.633  1.00  0.00     0.004 A 
BRANCH  24  26
HETATM   26  O1  UNL     1      25.604   6.063  50.643  1.00  0.00    -0.390 OA
HETATM   27  H12 UNL     1      25.446   7.019  50.547  1.00  0.00     0.210 HD
ENDBRANCH  24  26
ENDBRANCH  18  20
ENDBRANCH   3  18
TORSDOF 6
ENDMDL
MODEL 3
REMARK VINA RESULT:      -8.4      3.335      7.064
REMARK  6 active torsions:
REMARK  status: ('A' for Active; 'I' for Inactive)
REMARK    1  A    between atoms: C2_2  and  N1_3 
REMARK    2  A    between atoms: C2_2  and  C13_18 
REMARK    3  A    between atoms: N1_3  and  C3_4 
REMARK    4  A    between atoms: C5_6  and  N2_7 
REMARK    5  A    between atoms: N2_7  and  C6_8 
REMARK    6  A    between atoms: C11_13  and  O1_14 
ROOT
HETATM    1  C3  UNL     1      25.779   2.643  51.278  1.00  0.00     0.129 A 
HETATM    2  C4  UNL     1      24.632   2.087  51.798  1.00  0.00     0.100 A 
HETATM    3  C5  UNL     1      23.463   2.786  51.626  1.00  0.00     0.132 A 
HETATM    4  N3  UNL     1      23.455   3.957  50.979  1.00  0.00    -0.224 NA
HETATM    5  C12 UNL     1      24.566   4.526  50.461  1.00  0.00     0.237 A 
HETATM    6  N4  UNL     1      25.689   3.821  50.643  1.00  0.00    -0.225 NA
ENDROOT
BRANCH   1   7
HETATM    7  N1  UNL     1      26.995   1.909  51.449  1.00  0.00    -0.366 N 
HETATM    8  H5  UNL     1      27.646   1.732  50.685  1.00  0.00     0.161 HD
BRANCH   7   9
HETATM    9  C2  UNL     1      27.188   1.447  52.822  1.00  0.00     0.112 C 
HETATM   10  C1  UNL     1      28.125   2.460  53.470  1.00  0.00     0.037 C 
BRANCH   9  11
HETATM   11  C13 UNL     1      27.699   0.081  52.923  1.00  0.00    -0.033 A 
HETATM   12  C14 UNL     1      26.889  -0.940  52.467  1.00  0.00     0.009 A 
HETATM   13  C15 UNL     1      27.369  -2.252  52.555  1.00  0.00     0.004 A 
HETATM   14  C16 UNL     1      28.620  -2.453  53.091  1.00  0.00     0.042 A 
HETATM   15  C17 UNL     1      29.434  -1.439  53.549  1.00  0.00     0.117 A 
HETATM   16  F1  UNL     1      30.658  -1.621  54.075  1.00  0.00    -0.206 F 
HETATM   17  C18 UNL     1      28.956  -0.125  53.461  1.00  0.00     0.051 A 
ENDBRANCH   9  11
ENDBRANCH   7   9
ENDBRANCH   1   7
BRANCH   3  18
HETATM   18  N2  UNL     1      22.134   2.507  52.039  1.00  0.00    -0.343 N 
HETATM   19  H7  UNL     1      21.528   3.349  52.078  1.00  0.00     0.167 HD
BRANCH  18  20
HETATM   20  C6  UNL     1      21.552   1.257  52.397  1.00  0.00     0.027 A 
HETATM   21  C7  UNL     1      20.624   0.326  51.971  1.00  0.00     0.022 A 
HETATM   22  C8  UNL     1      21.324   0.110  53.152  1.00  0.00     0.068 A 
HETATM   23  C9  UNL     1      20.781  -0.046  54.485  1.00  0.00    -0.005 A 
HETATM   24  C11 UNL     1      22.297  -0.970  53.444  1.00  0.00     0.163 A 
HETATM   25  C10 UNL     1      21.635  -1.005  54.760  1.00  0.00     0.004 A 
BRANCH  24  26
HETATM   26  O1  UNL     1      23.640  -0.596  53.475  1.00  0.00    -0.390 OA
HETATM   27  H12 UNL     1      24.008  -0.466  54.367  1.00  0.00     0.210 HD
ENDBRANCH  24  26
ENDBRANCH  18  20
ENDBRANCH   3  18
TORSDOF 6
ENDMDL
MODEL 4
REMARK VINA RESULT:      -8.3      3.263      7.250
REMARK  6 active torsions:
REMARK  status: ('A' for Active; 'I' for Inactive)
REMARK    1  A    between atoms: C2_2  and  N1_3 
REMARK    2  A    between atoms: C2_2  and  C13_18 
REMARK    3  A    between atoms: N1_3  and  C3_4 
REMARK    4  A    between atoms: C5_6  and  N2_7 
REMARK    5  A    between atoms: N2_7  and  C6_8 
REMARK    6  A    between atoms: C11_13  and  O1_14 
ROOT
HETATM    1  C3  UNL     1      23.851  -0.385  53.683  1.00  0.00     0.129 A 
HETATM    2  C4  UNL     1      22.566  -0.215  53.221  1.00  0.00     0.100 A 
HETATM    3  C5  UNL     1      21.552  -0.736  53.984  1.00  0.00     0.132 A 
HETATM    4  N3  UNL     1      21.816  -1.381  55.127  1.00  0.00    -0.224 NA
HETATM    5  C12 UNL     1      23.068  -1.563  55.602  1.00  0.00     0.237 A 
HETATM    6  N4  UNL     1      24.036  -1.043  54.837  1.00  0.00    -0.225 NA
ENDROOT
BRANCH   1   7
HETATM    7  N1  UNL     1      24.907   0.167  52.891  1.00  0.00    -0.366 N 
HETATM    8  H5  UNL     1      24.917   0.121  51.873  1.00  0.00     0.161 HD
BRANCH   7   9
HETATM    9  C2  UNL     1      25.952   0.791  53.699  1.00  0.00     0.112 C 
HETATM   10  C1  UNL     1      25.991   2.252  53.268  1.00  0.00     0.037 C 
BRANCH   9  11
HETATM   11  C13 UNL     1      27.260   0.147  53.581  1.00  0.00    -0.033 A 
HETATM   12  C14 UNL     1      28.377   0.918  53.832  1.00  0.00     0.009 A 
HETATM   13  C15 UNL     1      29.634   0.312  53.726  1.00  0.00     0.004 A 
HETATM   14  C16 UNL     1      29.689  -1.018  53.377  1.00  0.00     0.042 A 
HETATM   15  C17 UNL     1      28.578  -1.794  53.123  1.00  0.00     0.117 A 
HETATM   16  F1  UNL     1      28.616  -3.094  52.782  1.00  0.00    -0.206 F 
HETATM   17  C18 UNL     1      27.318  -1.188  53.231  1.00  0.00     0.051 A 
ENDBRANCH   9  11
ENDBRANCH   7   9
ENDBRANCH   1   7
BRANCH   3  18
HETATM   18  N2  UNL     1      20.145  -0.746  53.795  1.00  0.00    -0.343 N 
HETATM   19  H7  UNL     1      19.632  -1.265  54.533  1.00  0.00     0.167 HD
BRANCH  18  20
HETATM   20  C6  UNL     1      19.379  -0.155  52.750  1.00  0.00     0.027 A 
HETATM   21  C7  UNL     1      18.139  -0.212  52.142  1.00  0.00     0.022 A 
HETATM   22  C8  UNL     1      19.088   0.694  51.685  1.00  0.00     0.068 A 
HETATM   23  C9  UNL     1      19.668   0.775  50.361  1.00  0.00    -0.005 A 
HETATM   24  C11 UNL     1      19.020   2.175  51.723  1.00  0.00     0.163 A 
HETATM   25  C10 UNL     1      19.613   2.086  50.378  1.00  0.00     0.004 A 
BRANCH  24  26
HETATM   26  O1  UNL     1      19.821   2.803  52.676  1.00  0.00    -0.390 OA
HETATM   27  H12 UNL     1      20.701   3.071  52.358  1.00  0.00     0.210 HD
ENDBRANCH  24  26
ENDBRANCH  18  20
ENDBRANCH   3  18
TORSDOF 6
ENDMDL
MODEL 5
REMARK VINA RESULT:      -8.1      3.026      4.531
REMARK  6 active torsions:
REMARK  status: ('A' for Active; 'I' for Inactive)
REMARK    1  A    between atoms: C2_2  and  N1_3 
REMARK    2  A    between atoms: C2_2  and  C13_18 
REMARK    3  A    between atoms: N1_3  and  C3_4 
REMARK    4  A    between atoms: C5_6  and  N2_7 
REMARK    5  A    between atoms: N2_7  and  C6_8 
REMARK    6  A    between atoms: C11_13  and  O1_14 
ROOT
HETATM    1  C3  UNL     1      24.470   2.743  51.153  1.00  0.00     0.129 A 
HETATM    2  C4  UNL     1      25.265   2.407  52.224  1.00  0.00     0.100 A 
HETATM    3  C5  UNL     1      26.623   2.513  52.055  1.00  0.00     0.132 A 
HETATM    4  N3  UNL     1      27.137   2.927  50.890  1.00  0.00    -0.224 NA
HETATM    5  C12 UNL     1      26.379   3.261  49.823  1.00  0.00     0.237 A 
HETATM    6  N4  UNL     1      25.059   3.149  50.019  1.00  0.00    -0.225 NA
ENDROOT
BRANCH   1   7
HETATM    7  N1  UNL     1      23.054   2.641  51.335  1.00  0.00    -0.366 N 
HETATM    8  H5  UNL     1      22.494   3.389  51.742  1.00  0.00     0.161 HD
BRANCH   7   9
HETATM    9  C2  UNL     1      22.516   1.362  50.879  1.00  0.00     0.112 C 
HETATM   10  C1  UNL     1      21.881   1.640  49.522  1.00  0.00     0.037 C 
BRANCH   9  11
HETATM   11  C13 UNL     1      21.574   0.746  51.813  1.00  0.00    -0.033 A 
HETATM   12  C14 UNL     1      20.315   0.436  51.339  1.00  0.00     0.009 A 
HETATM   13  C15 UNL     1      19.405  -0.157  52.222  1.00  0.00     0.004 A 
HETATM   14  C16 UNL     1      19.814  -0.397  53.513  1.00  0.00     0.042 A 
HETATM   15  C17 UNL     1      21.068  -0.090  53.994  1.00  0.00     0.117 A 
HETATM   16  F1  UNL     1      21.482  -0.319  55.253  1.00  0.00    -0.206 F 
HETATM   17  C18 UNL     1      21.981   0.503  53.111  1.00  0.00     0.051 A 
ENDBRANCH   9  11
ENDBRANCH   7   9
ENDBRANCH   1   7
BRANCH   3  18
HETATM   18  N2  UNL     1      27.703   2.241  52.935  1.00  0.00    -0.343 N 
HETATM   19  H7  UNL     1      28.325   3.057  53.091  1.00  0.00     0.167 HD
BRANCH  18  20
HETATM   20  C6  UNL     1      28.028   1.026  53.603  1.00  0.00     0.027 A 
HETATM   21  C7  UNL     1      28.128   0.470  54.864  1.00  0.00     0.022 A 
HETATM   22  C8  UNL     1      28.412  -0.304  53.746  1.00  0.00     0.068 A 
HETATM   23  C9  UNL     1      29.659  -0.964  53.421  1.00  0.00    -0.005 A 
HETATM   24  C11 UNL     1      27.678  -1.498  53.260  1.00  0.00     0.163 A 
HETATM   25  C10 UNL     1      29.025  -2.029  52.988  1.00  0.00     0.004 A 
BRANCH  24  26
HETATM   26  O1  UNL     1      26.883  -1.313  52.130  1.00  0.00    -0.390 OA
HETATM   27  H12 UNL     1      27.269  -1.642  51.299  1.00  0.00     0.210 HD
ENDBRANCH  24  26
ENDBRANCH  18  20
ENDBRANCH   3  18
TORSDOF 6
ENDMDL
MODEL 6
REMARK VINA RESULT:      -8.0      3.715      7.991
REMARK  6 active torsions:
REMARK  status: ('A' for Active; 'I' for Inactive)
REMARK    1  A    between atoms: C2_2  and  N1_3 
REMARK    2  A    between atoms: C2_2  and  C13_18 
REMARK    3  A    between atoms: N1_3  and  C3_4 
REMARK    4  A    between atoms: C5_6  and  N2_7 
REMARK    5  A    between atoms: N2_7  and  C6_8 
REMARK    6  A    between atoms: C11_13  and  O1_14 
ROOT
HETATM    1  C3  UNL     1      23.551   0.014  53.285  1.00  0.00     0.129 A 
HETATM    2  C4  UNL     1      22.548   0.724  52.666  1.00  0.00     0.100 A 
HETATM    3  C5  UNL     1      21.281   0.592  53.174  1.00  0.00     0.132 A 
HETATM    4  N3  UNL     1      21.044  -0.200  54.227  1.00  0.00    -0.224 NA
HETATM    5  C12 UNL     1      22.010  -0.909  54.853  1.00  0.00     0.237 A 
HETATM    6  N4  UNL     1      23.236  -0.758  54.335  1.00  0.00    -0.225 NA
ENDROOT
BRANCH   1   7
HETATM    7  N1  UNL     1      24.874   0.162  52.761  1.00  0.00    -0.366 N 
HETATM    8  H5  UNL     1      25.125  -0.103  51.809  1.00  0.00     0.161 HD
BRANCH   7   9
HETATM    9  C2  UNL     1      25.808   0.723  53.734  1.00  0.00     0.112 C 
HETATM   10  C1  UNL     1      25.786   2.230  53.505  1.00  0.00     0.037 C 
BRANCH   9  11
HETATM   11  C13 UNL     1      27.161   0.173  53.647  1.00  0.00    -0.033 A 
HETATM   12  C14 UNL     1      28.212   1.007  53.972  1.00  0.00     0.009 A 
HETATM   13  C15 UNL     1      29.510   0.490  53.897  1.00  0.00     0.004 A 
HETATM   14  C16 UNL     1      29.669  -0.818  53.502  1.00  0.00     0.042 A 
HETATM   15  C17 UNL     1      28.625  -1.656  53.174  1.00  0.00     0.117 A 
HETATM   16  F1  UNL     1      28.764  -2.936  52.787  1.00  0.00    -0.206 F 
HETATM   17  C18 UNL     1      27.323  -1.141  53.251  1.00  0.00     0.051 A 
ENDBRANCH   9  11
ENDBRANCH   7   9
ENDBRANCH   1   7
BRANCH   3  18
HETATM   18  N2  UNL     1      20.045   1.163  52.774  1.00  0.00    -0.343 N 
HETATM   19  H7  UNL     1      19.961   2.172  53.006  1.00  0.00     0.167 HD
BRANCH  18  20
HETATM   20  C6  UNL     1      18.943   0.542  52.119  1.00  0.00     0.027 A 
HETATM   21  C7  UNL     1      18.572  -0.031  50.917  1.00  0.00     0.022 A 
HETATM   22  C8  UNL     1      17.654   0.041  51.958  1.00  0.00     0.068 A 
HETATM   23  C9  UNL     1      16.374   0.717  51.961  1.00  0.00    -0.005 A 
HETATM   24  C11 UNL     1      17.039  -1.084  52.703  1.00  0.00     0.163 A 
HETATM   25  C10 UNL     1      15.814  -0.271  52.620  1.00  0.00     0.004 A 
BRANCH  24  26
HETATM   26  O1  UNL     1      17.514  -1.298  53.996  1.00  0.00    -0.390 OA
HETATM   27  H12 UNL     1      17.462  -0.523  54.584  1.00  0.00     0.210 HD
ENDBRANCH  24  26
ENDBRANCH  18  20
ENDBRANCH   3  18
TORSDOF 6
ENDMDL
MODEL 7
REMARK VINA RESULT:      -7.9      2.573      3.475
REMARK  6 active torsions:
REMARK  status: ('A' for Active; 'I' for Inactive)
REMARK    1  A    between atoms: C2_2  and  N1_3 
REMARK    2  A    between atoms: C2_2  and  C13_18 
REMARK    3  A    between atoms: N1_3  and  C3_4 
REMARK    4  A    between atoms: C5_6  and  N2_7 
REMARK    5  A    between atoms: N2_7  and  C6_8 
REMARK    6  A    between atoms: C11_13  and  O1_14 
ROOT
HETATM    1  C3  UNL     1      23.118   2.051  51.698  1.00  0.00     0.129 A 
HETATM    2  C4  UNL     1      24.283   1.457  52.125  1.00  0.00     0.100 A 
HETATM    3  C5  UNL     1      24.166   0.381  52.969  1.00  0.00     0.132 A 
HETATM    4  N3  UNL     1      22.962  -0.059  53.354  1.00  0.00    -0.224 NA
HETATM    5  C12 UNL     1      21.802   0.506  52.950  1.00  0.00     0.237 A 
HETATM    6  N4  UNL     1      21.949   1.552  52.126  1.00  0.00    -0.225 NA
ENDROOT
BRANCH   1   7
HETATM    7  N1  UNL     1      23.241   3.165  50.809  1.00  0.00    -0.366 N 
HETATM    8  H5  UNL     1      22.792   3.195  49.894  1.00  0.00     0.161 HD
BRANCH   7   9
HETATM    9  C2  UNL     1      24.074   4.234  51.356  1.00  0.00     0.112 C 
HETATM   10  C1  UNL     1      23.112   5.199  52.037  1.00  0.00     0.037 C 
BRANCH   9  11
HETATM   11  C13 UNL     1      24.913   4.902  50.361  1.00  0.00    -0.033 A 
HETATM   12  C14 UNL     1      24.543   6.171  49.962  1.00  0.00     0.009 A 
HETATM   13  C15 UNL     1      25.340   6.823  49.014  1.00  0.00     0.004 A 
HETATM   14  C16 UNL     1      26.447   6.163  48.530  1.00  0.00     0.042 A 
HETATM   15  C17 UNL     1      26.821   4.896  48.923  1.00  0.00     0.117 A 
HETATM   16  F1  UNL     1      27.900   4.240  48.460  1.00  0.00    -0.206 F 
HETATM   17  C18 UNL     1      26.025   4.243  49.874  1.00  0.00     0.051 A 
ENDBRANCH   9  11
ENDBRANCH   7   9
ENDBRANCH   1   7
BRANCH   3  18
HETATM   18  N2  UNL     1      25.146  -0.435  53.591  1.00  0.00    -0.343 N 
HETATM   19  H7  UNL     1      24.745  -1.157  54.221  1.00  0.00     0.167 HD
BRANCH  18  20
HETATM   20  C6  UNL     1      26.564  -0.385  53.463  1.00  0.00     0.027 A 
HETATM   21  C7  UNL     1      27.626  -1.027  52.856  1.00  0.00     0.022 A 
HETATM   22  C8  UNL     1      27.861   0.081  53.660  1.00  0.00     0.068 A 
HETATM   23  C9  UNL     1      28.664   0.147  54.863  1.00  0.00    -0.005 A 
HETATM   24  C11 UNL     1      28.403   1.399  53.251  1.00  0.00     0.163 A 
HETATM   25  C10 UNL     1      29.155   1.314  54.515  1.00  0.00     0.004 A 
BRANCH  24  26
HETATM   26  O1  UNL     1      27.486   2.448  53.185  1.00  0.00    -0.390 OA
HETATM   27  H12 UNL     1      27.229   2.710  52.284  1.00  0.00     0.210 HD
ENDBRANCH  24  26
ENDBRANCH  18  20
ENDBRANCH   3  18
TORSDOF 6
ENDMDL
MODEL 8
REMARK VINA RESULT:      -7.9      5.191      7.377
REMARK  6 active torsions:
REMARK  status: ('A' for Active; 'I' for Inactive)
REMARK    1  A    between atoms: C2_2  and  N1_3 
REMARK    2  A    between atoms: C2_2  and  C13_18 
REMARK    3  A    between atoms: N1_3  and  C3_4 
REMARK    4  A    between atoms: C5_6  and  N2_7 
REMARK    5  A    between atoms: N2_7  and  C6_8 
REMARK    6  A    between atoms: C11_13  and  O1_14 
ROOT
HETATM    1  C3  UNL     1      24.597   3.102  50.734  1.00  0.00     0.129 A 
HETATM    2  C4  UNL     1      25.728   3.298  49.976  1.00  0.00     0.100 A 
HETATM    3  C5  UNL     1      26.086   4.595  49.706  1.00  0.00     0.132 A 
HETATM    4  N3  UNL     1      25.354   5.617  50.167  1.00  0.00    -0.224 NA
HETATM    5  C12 UNL     1      24.239   5.453  50.912  1.00  0.00     0.237 A 
HETATM    6  N4  UNL     1      23.917   4.177  51.160  1.00  0.00    -0.225 NA
ENDROOT
BRANCH   1   7
HETATM    7  N1  UNL     1      24.231   1.750  51.024  1.00  0.00    -0.366 N 
HETATM    8  H5  UNL     1      23.832   1.123  50.326  1.00  0.00     0.161 HD
BRANCH   7   9
HETATM    9  C2  UNL     1      24.490   1.380  52.413  1.00  0.00     0.112 C 
HETATM   10  C1  UNL     1      25.706   0.463  52.377  1.00  0.00     0.037 C 
BRANCH   9  11
HETATM   11  C13 UNL     1      23.349   0.756  53.085  1.00  0.00    -0.033 A 
HETATM   12  C14 UNL     1      22.106   1.323  52.891  1.00  0.00     0.009 A 
HETATM   13  C15 UNL     1      21.006   0.733  53.525  1.00  0.00     0.004 A 
HETATM   14  C16 UNL     1      21.224  -0.378  54.306  1.00  0.00     0.042 A 
HETATM   15  C17 UNL     1      22.463  -0.949  54.505  1.00  0.00     0.117 A 
HETATM   16  F1  UNL     1      22.691  -2.035  55.265  1.00  0.00    -0.206 F 
HETATM   17  C18 UNL     1      23.565  -0.360  53.869  1.00  0.00     0.051 A 
ENDBRANCH   9  11
ENDBRANCH   7   9
ENDBRANCH   1   7
BRANCH   3  18
HETATM   18  N2  UNL     1      27.166   5.135  48.960  1.00  0.00    -0.343 N 
HETATM   19  H7  UNL     1      27.878   4.428  48.693  1.00  0.00     0.167 HD
BRANCH  18  20
HETATM   20  C6  UNL     1      27.386   6.481  48.550  1.00  0.00     0.027 A 
HETATM   21  C7  UNL     1      27.203   7.337  47.481  1.00  0.00     0.022 A 
HETATM   22  C8  UNL     1      27.800   7.806  48.645  1.00  0.00     0.068 A 
HETATM   23  C9  UNL     1      29.126   8.369  48.792  1.00  0.00    -0.005 A 
HETATM   24  C11 UNL     1      27.282   8.835  49.579  1.00  0.00     0.163 A 
HETATM   25  C10 UNL     1      28.684   9.287  49.620  1.00  0.00     0.004 A 
BRANCH  24  26
HETATM   26  O1  UNL     1      26.783   8.366  50.793  1.00  0.00    -0.390 OA
HETATM   27  H12 UNL     1      26.493   9.060  51.411  1.00  0.00     0.210 HD
ENDBRANCH  24  26
ENDBRANCH  18  20
ENDBRANCH   3  18
TORSDOF 6
ENDMDL
MODEL 9
REMARK VINA RESULT:      -7.8      4.957      7.373
REMARK  6 active torsions:
REMARK  status: ('A' for Active; 'I' for Inactive)
REMARK    1  A    between atoms: C2_2  and  N1_3 
REMARK    2  A    between atoms: C2_2  and  C13_18 
REMARK    3  A    between atoms: N1_3  and  C3_4 
REMARK    4  A    between atoms: C5_6  and  N2_7 
REMARK    5  A    between atoms: N2_7  and  C6_8 
REMARK    6  A    between atoms: C11_13  and  O1_14 
ROOT
HETATM    1  C3  UNL     1      22.694   4.035  52.028  1.00  0.00     0.129 A 
HETATM    2  C4  UNL     1      23.785   4.865  52.152  1.00  0.00     0.100 A 
HETATM    3  C5  UNL     1      23.671   6.131  51.637  1.00  0.00     0.132 A 
HETATM    4  N3  UNL     1      22.541   6.528  51.039  1.00  0.00    -0.224 NA
HETATM    5  C12 UNL     1      21.457   5.733  50.902  1.00  0.00     0.237 A 
HETATM    6  N4  UNL     1      21.597   4.505  51.416  1.00  0.00    -0.225 NA
ENDROOT
BRANCH   1   7
HETATM    7  N1  UNL     1      22.811   2.718  52.575  1.00  0.00    -0.366 N 
HETATM    8  H5  UNL     1      22.460   2.471  53.500  1.00  0.00     0.161 HD
BRANCH   7   9
HETATM    9  C2  UNL     1      23.482   1.787  51.671  1.00  0.00     0.112 C 
HETATM   10  C1  UNL     1      22.376   0.929  51.067  1.00  0.00     0.037 C 
BRANCH   9  11
HETATM   11  C13 UNL     1      24.519   0.979  52.312  1.00  0.00    -0.033 A 
HETATM   12  C14 UNL     1      25.792   1.035  51.780  1.00  0.00     0.009 A 
HETATM   13  C15 UNL     1      26.794   0.270  52.387  1.00  0.00     0.004 A 
HETATM   14  C16 UNL     1      26.456  -0.498  53.478  1.00  0.00     0.042 A 
HETATM   15  C17 UNL     1      25.188  -0.560  54.013  1.00  0.00     0.117 A 
HETATM   16  F1  UNL     1      24.843  -1.305  55.079  1.00  0.00    -0.206 F 
HETATM   17  C18 UNL     1      24.183   0.208  53.408  1.00  0.00     0.051 A 
ENDBRANCH   9  11
ENDBRANCH   7   9
ENDBRANCH   1   7
BRANCH   3  18
HETATM   18  N2  UNL     1      24.591   7.211  51.588  1.00  0.00    -0.343 N 
HETATM   19  H7  UNL     1      24.841   7.584  52.525  1.00  0.00     0.167 HD
BRANCH  18  20
HETATM   20  C6  UNL     1      25.189   7.826  50.452  1.00  0.00     0.027 A 
HETATM   21  C7  UNL     1      24.874   8.480  49.275  1.00  0.00     0.022 A 
HETATM   22  C8  UNL     1      26.207   8.272  49.612  1.00  0.00     0.068 A 
HETATM   23  C9  UNL     1      27.202   7.531  48.865  1.00  0.00    -0.005 A 
HETATM   24  C11 UNL     1      27.233   9.295  49.925  1.00  0.00     0.163 A 
HETATM   25  C10 UNL     1      28.122   8.428  49.132  1.00  0.00     0.004 A 
BRANCH  24  26
HETATM   26  O1  UNL     1      27.585   9.423  51.268  1.00  0.00    -0.390 OA
HETATM   27  H12 UNL     1      27.425  10.303  51.651  1.00  0.00     0.210 HD
ENDBRANCH  24  26
ENDBRANCH  18  20
ENDBRANCH   3  18
TORSDOF 6
ENDMDL
