MODEL 1
REMARK VINA RESULT:      -8.2      0.000      0.000
REMARK  4 active torsions:
REMARK  status: ('A' for Active; 'I' for Inactive)
REMARK    1  A    between atoms: C2_2  and  C3_3 
REMARK    2  A    between atoms: C3_3  and  C5_5 
REMARK    3  A    between atoms: C5_5  and  C6_6 
REMARK    4  A    between atoms: C7_7  and  C8_9 
ROOT
HETATM    1  C8  UNL     1      23.597  -0.291  53.575  1.00  0.00     0.007 A 
HETATM    2  C9  UNL     1      23.745  -0.991  54.676  1.00  0.00     0.014 A 
HETATM    3  C10 UNL     1      22.644  -1.607  55.439  1.00  0.00     0.204 A 
HETATM    4  O2  UNL     1      21.365  -1.379  54.862  1.00  0.00    -0.347 OA
HETATM    5  C11 UNL     1      21.213  -0.641  53.702  1.00  0.00     0.080 A 
HETATM    6  C12 UNL     1      22.259  -0.127  53.095  1.00  0.00     0.016 A 
HETATM    7  C13 UNL     1      22.152   0.650  51.892  1.00  0.00    -0.044 C 
HETATM    8  C14 UNL     1      23.223   1.338  51.553  1.00  0.00     0.044 C 
HETATM    9  C15 UNL     1      21.071   0.853  50.920  1.00  0.00     0.008 C 
HETATM   10  C16 UNL     1      19.786   0.514  51.124  1.00  0.00     0.001 C 
HETATM   11  C17 UNL     1      19.183  -0.111  52.302  1.00  0.00     0.003 C 
HETATM   12  C18 UNL     1      19.776  -0.600  53.394  1.00  0.00     0.037 C 
ENDROOT
BRANCH   1  13
HETATM   13  C7  UNL     1      24.748   0.279  52.890  1.00  0.00     0.079 A 
HETATM   14  C6  UNL     1      26.003   0.336  53.660  1.00  0.00     0.212 A 
HETATM   15  O1  UNL     1      25.654   0.774  52.228  1.00  0.00    -0.348 OA
BRANCH  14  16
HETATM   16  C5  UNL     1      27.269   0.626  52.966  1.00  0.00     0.039 C 
BRANCH  16  17
HETATM   17  C3  UNL     1      28.484   0.943  53.750  1.00  0.00     0.005 C 
HETATM   18  C4  UNL     1      28.782   2.444  53.636  1.00  0.00     0.014 C 
BRANCH  17  19
HETATM   19  C2  UNL     1      29.725   0.202  53.504  1.00  0.00    -0.033 C 
HETATM   20  C1  UNL     1      29.750  -1.144  53.593  1.00  0.00     0.007 C 
ENDBRANCH  17  19
ENDBRANCH  16  17
ENDBRANCH  14  16
ENDBRANCH   1  13
TORSDOF 4
ENDMDL
MODEL 2
REMARK VINA RESULT:      -8.2      3.116      4.735
REMARK  4 active torsions:
REMARK  status: ('A' for Active; 'I' for Inactive)
REMARK    1  A    between atoms: C2_2  and  C3_3 
REMARK    2  A    between atoms: C3_3  and  C5_5 
REMARK    3  A    between atoms: C5_5  and  C6_6 
REMARK    4  A    between atoms: C7_7  and  C8_9 
ROOT
HETATM    1  C8  UNL     1      25.557   0.941  52.350  1.00  0.00     0.007 A 
HETATM    2  C9  UNL     1      26.818   0.580  52.412  1.00  0.00     0.014 A 
HETATM    3  C10 UNL     1      27.371  -0.398  53.368  1.00  0.00     0.204 A 
HETATM    4  O2  UNL     1      26.391  -0.941  54.243  1.00  0.00    -0.347 OA
HETATM    5  C11 UNL     1      25.064  -0.558  54.176  1.00  0.00     0.080 A 
HETATM    6  C12 UNL     1      24.668   0.327  53.289  1.00  0.00     0.016 A 
HETATM    7  C13 UNL     1      23.303   0.761  53.182  1.00  0.00    -0.044 C 
HETATM    8  C14 UNL     1      23.097   1.844  52.462  1.00  0.00     0.044 C 
HETATM    9  C15 UNL     1      22.040   0.242  53.720  1.00  0.00     0.008 C 
HETATM   10  C16 UNL     1      21.945  -0.675  54.699  1.00  0.00     0.001 C 
HETATM   11  C17 UNL     1      23.022  -1.346  55.428  1.00  0.00     0.003 C 
HETATM   12  C18 UNL     1      24.339  -1.303  55.216  1.00  0.00     0.037 C 
ENDROOT
BRANCH   1  13
HETATM   13  C7  UNL     1      25.105   1.917  51.369  1.00  0.00     0.079 A 
HETATM   14  C6  UNL     1      26.141   2.797  50.800  1.00  0.00     0.212 A 
HETATM   15  O1  UNL     1      24.625   2.700  50.556  1.00  0.00    -0.348 OA
BRANCH  14  16
HETATM   16  C5  UNL     1      25.832   3.607  49.609  1.00  0.00     0.039 C 
BRANCH  16  17
HETATM   17  C3  UNL     1      26.546   4.882  49.379  1.00  0.00     0.005 C 
HETATM   18  C4  UNL     1      25.566   5.915  48.806  1.00  0.00     0.014 C 
BRANCH  17  19
HETATM   19  C2  UNL     1      27.767   4.899  48.567  1.00  0.00    -0.033 C 
HETATM   20  C1  UNL     1      28.328   6.068  48.197  1.00  0.00     0.007 C 
ENDBRANCH  17  19
ENDBRANCH  16  17
ENDBRANCH  14  16
ENDBRANCH   1  13
TORSDOF 4
ENDMDL
MODEL 3
REMARK VINA RESULT:      -8.0      1.421      2.716
REMARK  4 active torsions:
REMARK  status: ('A' for Active; 'I' for Inactive)
REMARK    1  A    between atoms: C2_2  and  C3_3 
REMARK    2  A    between atoms: C3_3  and  C5_5 
REMARK    3  A    between atoms: C5_5  and  C6_6 
REMARK    4  A    between atoms: C7_7  and  C8_9 
ROOT
HETATM    1  C8  UNL     1      24.179   0.654  52.853  1.00  0.00     0.007 A 
HETATM    2  C9  UNL     1      24.583   1.498  51.930  1.00  0.00     0.014 A 
HETATM    3  C10 UNL     1      23.717   2.097  50.897  1.00  0.00     0.204 A 
HETATM    4  O2  UNL     1      22.363   1.678  50.989  1.00  0.00    -0.347 OA
HETATM    5  C11 UNL     1      21.941   0.789  51.961  1.00  0.00     0.080 A 
HETATM    6  C12 UNL     1      22.792   0.305  52.838  1.00  0.00     0.016 A 
HETATM    7  C13 UNL     1      22.405  -0.623  53.863  1.00  0.00    -0.044 C 
HETATM    8  C14 UNL     1      23.388  -1.243  54.482  1.00  0.00     0.044 C 
HETATM    9  C15 UNL     1      21.103  -1.048  54.394  1.00  0.00     0.008 C 
HETATM   10  C16 UNL     1      19.921  -0.810  53.800  1.00  0.00     0.001 C 
HETATM   11  C17 UNL     1      19.656  -0.102  52.546  1.00  0.00     0.003 C 
HETATM   12  C18 UNL     1      20.500   0.573  51.764  1.00  0.00     0.037 C 
ENDROOT
BRANCH   1  13
HETATM   13  C7  UNL     1      25.111   0.114  53.832  1.00  0.00     0.079 A 
HETATM   14  C6  UNL     1      26.534   0.440  53.627  1.00  0.00     0.212 A 
HETATM   15  O1  UNL     1      25.812  -0.385  54.707  1.00  0.00    -0.348 OA
BRANCH  14  16
HETATM   16  C5  UNL     1      27.501   0.183  54.708  1.00  0.00     0.039 C 
BRANCH  16  17
HETATM   17  C3  UNL     1      28.916   0.581  54.542  1.00  0.00     0.005 C 
HETATM   18  C4  UNL     1      28.977   1.985  53.925  1.00  0.00     0.014 C 
BRANCH  17  19
HETATM   19  C2  UNL     1      29.838  -0.290  53.807  1.00  0.00    -0.033 C 
HETATM   20  C1  UNL     1      29.447  -1.514  53.398  1.00  0.00     0.007 C 
ENDBRANCH  17  19
ENDBRANCH  16  17
ENDBRANCH  14  16
ENDBRANCH   1  13
TORSDOF 4
ENDMDL
MODEL 4
REMARK VINA RESULT:      -7.8      2.907      4.874
REMARK  4 active torsions:
REMARK  status: ('A' for Active; 'I' for Inactive)
REMARK    1  A    between atoms: C2_2  and  C3_3 
REMARK    2  A    between atoms: C3_3  and  C5_5 
REMARK    3  A    between atoms: C5_5  and  C6_6 
REMARK    4  A    between atoms: C7_7  and  C8_9 
ROOT
HETATM    1  C8  UNL     1      25.227   1.058  52.247  1.00  0.00     0.007 A 
HETATM    2  C9  UNL     1      26.512   0.793  52.195  1.00  0.00     0.014 A 
HETATM    3  C10 UNL     1      27.217  -0.145  53.088  1.00  0.00     0.204 A 
HETATM    4  O2  UNL     1      26.361  -0.764  54.039  1.00  0.00    -0.347 OA
HETATM    5  C11 UNL     1      25.009  -0.482  54.092  1.00  0.00     0.080 A 
HETATM    6  C12 UNL     1      24.472   0.374  53.252  1.00  0.00     0.016 A 
HETATM    7  C13 UNL     1      23.074   0.705  53.269  1.00  0.00    -0.044 C 
HETATM    8  C14 UNL     1      22.725   1.772  52.582  1.00  0.00     0.044 C 
HETATM    9  C15 UNL     1      21.905   0.089  53.909  1.00  0.00     0.008 C 
HETATM   10  C16 UNL     1      21.964  -0.836  54.882  1.00  0.00     0.001 C 
HETATM   11  C17 UNL     1      23.148  -1.428  55.507  1.00  0.00     0.003 C 
HETATM   12  C18 UNL     1      24.435  -1.284  55.182  1.00  0.00     0.037 C 
ENDROOT
BRANCH   1  13
HETATM   13  C7  UNL     1      24.619   2.002  51.320  1.00  0.00     0.079 A 
HETATM   14  C6  UNL     1      25.530   2.974  50.690  1.00  0.00     0.212 A 
HETATM   15  O1  UNL     1      24.014   2.750  50.559  1.00  0.00    -0.348 OA
BRANCH  14  16
HETATM   16  C5  UNL     1      25.062   3.768  49.540  1.00  0.00     0.039 C 
BRANCH  16  17
HETATM   17  C3  UNL     1      25.846   4.937  49.083  1.00  0.00     0.005 C 
HETATM   18  C4  UNL     1      27.319   4.531  48.934  1.00  0.00     0.014 C 
BRANCH  17  19
HETATM   19  C2  UNL     1      25.785   6.196  49.832  1.00  0.00    -0.033 C 
HETATM   20  C1  UNL     1      24.683   6.519  50.540  1.00  0.00     0.007 C 
ENDBRANCH  17  19
ENDBRANCH  16  17
ENDBRANCH  14  16
ENDBRANCH   1  13
TORSDOF 4
ENDMDL
MODEL 5
REMARK VINA RESULT:      -7.5      3.247      4.949
REMARK  4 active torsions:
REMARK  status: ('A' for Active; 'I' for Inactive)
REMARK    1  A    between atoms: C2_2  and  C3_3 
REMARK    2  A    between atoms: C3_3  and  C5_5 
REMARK    3  A    between atoms: C5_5  and  C6_6 
REMARK    4  A    between atoms: C7_7  and  C8_9 
ROOT
HETATM    1  C8  UNL     1      23.973   1.796  51.872  1.00  0.00     0.007 A 
HETATM    2  C9  UNL     1      22.912   2.411  51.400  1.00  0.00     0.014 A 
HETATM    3  C10 UNL     1      21.525   2.152  51.828  1.00  0.00     0.204 A 
HETATM    4  O2  UNL     1      21.427   1.151  52.832  1.00  0.00    -0.347 OA
HETATM    5  C11 UNL     1      22.545   0.504  53.326  1.00  0.00     0.080 A 
HETATM    6  C12 UNL     1      23.743   0.804  52.877  1.00  0.00     0.016 A 
HETATM    7  C13 UNL     1      24.934   0.157  53.354  1.00  0.00    -0.044 C 
HETATM    8  C14 UNL     1      26.018   0.338  52.629  1.00  0.00     0.044 C 
HETATM    9  C15 UNL     1      25.218  -0.692  54.517  1.00  0.00     0.008 C 
HETATM   10  C16 UNL     1      24.281  -1.274  55.286  1.00  0.00     0.001 C 
HETATM   11  C17 UNL     1      22.825  -1.207  55.158  1.00  0.00     0.003 C 
HETATM   12  C18 UNL     1      22.084  -0.461  54.335  1.00  0.00     0.037 C 
ENDROOT
BRANCH   1  13
HETATM   13  C7  UNL     1      25.306   2.121  51.385  1.00  0.00     0.079 A 
HETATM   14  C6  UNL     1      25.372   3.003  50.206  1.00  0.00     0.212 A 
HETATM   15  O1  UNL     1      26.467   2.335  51.055  1.00  0.00    -0.348 OA
BRANCH  14  16
HETATM   16  C5  UNL     1      26.659   3.609  49.824  1.00  0.00     0.039 C 
BRANCH  16  17
HETATM   17  C3  UNL     1      26.683   4.773  48.911  1.00  0.00     0.005 C 
HETATM   18  C4  UNL     1      28.136   5.080  48.522  1.00  0.00     0.014 C 
BRANCH  17  19
HETATM   19  C2  UNL     1      26.034   6.026  49.308  1.00  0.00    -0.033 C 
HETATM   20  C1  UNL     1      26.492   7.210  48.852  1.00  0.00     0.007 C 
ENDBRANCH  17  19
ENDBRANCH  16  17
ENDBRANCH  14  16
ENDBRANCH   1  13
TORSDOF 4
ENDMDL
MODEL 6
REMARK VINA RESULT:      -7.2      1.792      6.635
REMARK  4 active torsions:
REMARK  status: ('A' for Active; 'I' for Inactive)
REMARK    1  A    between atoms: C2_2  and  C3_3 
REMARK    2  A    between atoms: C3_3  and  C5_5 
REMARK    3  A    between atoms: C5_5  and  C6_6 
REMARK    4  A    between atoms: C7_7  and  C8_9 
ROOT
HETATM    1  C8  UNL     1      24.686   0.424  53.205  1.00  0.00     0.007 A 
HETATM    2  C9  UNL     1      24.043  -0.438  53.960  1.00  0.00     0.014 A 
HETATM    3  C10 UNL     1      24.635  -1.177  55.090  1.00  0.00     0.204 A 
HETATM    4  O2  UNL     1      26.004  -0.865  55.307  1.00  0.00    -0.347 OA
HETATM    5  C11 UNL     1      26.679   0.042  54.511  1.00  0.00     0.080 A 
HETATM    6  C12 UNL     1      26.063   0.649  53.521  1.00  0.00     0.016 A 
HETATM    7  C13 UNL     1      26.720   1.595  52.663  1.00  0.00    -0.044 C 
HETATM    8  C14 UNL     1      26.084   1.905  51.553  1.00  0.00     0.044 C 
HETATM    9  C15 UNL     1      27.994   2.319  52.756  1.00  0.00     0.008 C 
HETATM   10  C16 UNL     1      28.981   2.022  53.618  1.00  0.00     0.001 C 
HETATM   11  C17 UNL     1      29.025   0.959  54.624  1.00  0.00     0.003 C 
HETATM   12  C18 UNL     1      28.061   0.119  55.006  1.00  0.00     0.037 C 
ENDROOT
BRANCH   1  13
HETATM   13  C7  UNL     1      24.014   1.106  52.109  1.00  0.00     0.079 A 
HETATM   14  C6  UNL     1      22.668   0.616  51.763  1.00  0.00     0.212 A 
HETATM   15  O1  UNL     1      23.534   1.743  51.177  1.00  0.00    -0.348 OA
BRANCH  14  16
HETATM   16  C5  UNL     1      21.809   1.417  50.874  1.00  0.00     0.039 C 
BRANCH  16  17
HETATM   17  C3  UNL     1      20.362   1.537  51.157  1.00  0.00     0.005 C 
HETATM   18  C4  UNL     1      20.165   2.343  52.448  1.00  0.00     0.014 C 
BRANCH  17  19
HETATM   19  C2  UNL     1      19.530   0.332  51.230  1.00  0.00    -0.033 C 
HETATM   20  C1  UNL     1      18.296   0.383  51.773  1.00  0.00     0.007 C 
ENDBRANCH  17  19
ENDBRANCH  16  17
ENDBRANCH  14  16
ENDBRANCH   1  13
TORSDOF 4
ENDMDL
MODEL 7
REMARK VINA RESULT:      -7.1      3.925      5.639
REMARK  4 active torsions:
REMARK  status: ('A' for Active; 'I' for Inactive)
REMARK    1  A    between atoms: C2_2  and  C3_3 
REMARK    2  A    between atoms: C3_3  and  C5_5 
REMARK    3  A    between atoms: C5_5  and  C6_6 
REMARK    4  A    between atoms: C7_7  and  C8_9 
ROOT
HETATM    1  C8  UNL     1      24.513   2.842  50.626  1.00  0.00     0.007 A 
HETATM    2  C9  UNL     1      23.537   3.530  50.079  1.00  0.00     0.014 A 
HETATM    3  C10 UNL     1      22.101   3.285  50.305  1.00  0.00     0.204 A 
HETATM    4  O2  UNL     1      21.851   2.210  51.201  1.00  0.00    -0.347 OA
HETATM    5  C11 UNL     1      22.880   1.487  51.775  1.00  0.00     0.080 A 
HETATM    6  C12 UNL     1      24.133   1.781  51.507  1.00  0.00     0.016 A 
HETATM    7  C13 UNL     1      25.236   1.058  52.074  1.00  0.00    -0.044 C 
HETATM    8  C14 UNL     1      26.409   1.259  51.509  1.00  0.00     0.044 C 
HETATM    9  C15 UNL     1      25.349   0.108  53.188  1.00  0.00     0.008 C 
HETATM   10  C16 UNL     1      24.308  -0.502  53.780  1.00  0.00     0.001 C 
HETATM   11  C17 UNL     1      22.882  -0.374  53.476  1.00  0.00     0.003 C 
HETATM   12  C18 UNL     1      22.271   0.460  52.633  1.00  0.00     0.037 C 
ENDROOT
BRANCH   1  13
HETATM   13  C7  UNL     1      25.905   3.160  50.341  1.00  0.00     0.079 A 
HETATM   14  C6  UNL     1      26.149   4.034  49.180  1.00  0.00     0.212 A 
HETATM   15  O1  UNL     1      27.104   3.367  50.184  1.00  0.00    -0.348 OA
BRANCH  14  16
HETATM   16  C5  UNL     1      27.481   4.633  48.989  1.00  0.00     0.039 C 
BRANCH  16  17
HETATM   17  C3  UNL     1      27.629   5.857  48.171  1.00  0.00     0.005 C 
HETATM   18  C4  UNL     1      29.060   6.393  48.317  1.00  0.00     0.014 C 
BRANCH  17  19
HETATM   19  C2  UNL     1      26.695   6.973  48.350  1.00  0.00    -0.033 C 
HETATM   20  C1  UNL     1      26.759   7.753  49.449  1.00  0.00     0.007 C 
ENDBRANCH  17  19
ENDBRANCH  16  17
ENDBRANCH  14  16
ENDBRANCH   1  13
TORSDOF 4
ENDMDL
MODEL 8
REMARK VINA RESULT:      -6.9      4.301      7.329
REMARK  4 active torsions:
REMARK  status: ('A' for Active; 'I' for Inactive)
REMARK    1  A    between atoms: C2_2  and  C3_3 
REMARK    2  A    between atoms: C3_3  and  C5_5 
REMARK    3  A    between atoms: C5_5  and  C6_6 
REMARK    4  A    between atoms: C7_7  and  C8_9 
ROOT
HETATM    1  C8  UNL     1      24.211   4.383  50.706  1.00  0.00     0.007 A 
HETATM    2  C9  UNL     1      23.188   5.083  51.141  1.00  0.00     0.014 A 
HETATM    3  C10 UNL     1      23.065   6.549  51.040  1.00  0.00     0.204 A 
HETATM    4  O2  UNL     1      24.180   7.163  50.406  1.00  0.00    -0.347 OA
HETATM    5  C11 UNL     1      25.255   6.423  49.951  1.00  0.00     0.080 A 
HETATM    6  C12 UNL     1      25.274   5.116  50.090  1.00  0.00     0.016 A 
HETATM    7  C13 UNL     1      26.369   4.304  49.638  1.00  0.00    -0.044 C 
HETATM    8  C14 UNL     1      26.396   3.068  50.091  1.00  0.00     0.044 C 
HETATM    9  C15 UNL     1      27.508   4.560  48.748  1.00  0.00     0.008 C 
HETATM   10  C16 UNL     1      27.908   5.779  48.349  1.00  0.00     0.001 C 
HETATM   11  C17 UNL     1      27.335   7.084  48.686  1.00  0.00     0.003 C 
HETATM   12  C18 UNL     1      26.218   7.365  49.361  1.00  0.00     0.037 C 
ENDROOT
BRANCH   1  13
HETATM   13  C7  UNL     1      24.242   2.934  50.851  1.00  0.00     0.079 A 
HETATM   14  C6  UNL     1      23.643   2.390  52.082  1.00  0.00     0.212 A 
HETATM   15  O1  UNL     1      24.318   1.711  50.878  1.00  0.00    -0.348 OA
BRANCH  14  16
HETATM   16  C5  UNL     1      23.375   0.945  52.182  1.00  0.00     0.039 C 
BRANCH  16  17
HETATM   17  C3  UNL     1      23.434   0.273  53.498  1.00  0.00     0.005 C 
HETATM   18  C4  UNL     1      24.881  -0.150  53.786  1.00  0.00     0.014 C 
BRANCH  17  19
HETATM   19  C2  UNL     1      22.553  -0.866  53.778  1.00  0.00    -0.033 C 
HETATM   20  C1  UNL     1      21.330  -0.671  54.312  1.00  0.00     0.007 C 
ENDBRANCH  17  19
ENDBRANCH  16  17
ENDBRANCH  14  16
ENDBRANCH   1  13
TORSDOF 4
ENDMDL
MODEL 9
REMARK VINA RESULT:      -6.9      1.535      7.384
REMARK  4 active torsions:
REMARK  status: ('A' for Active; 'I' for Inactive)
REMARK    1  A    between atoms: C2_2  and  C3_3 
REMARK    2  A    between atoms: C3_3  and  C5_5 
REMARK    3  A    between atoms: C5_5  and  C6_6 
REMARK    4  A    between atoms: C7_7  and  C8_9 
ROOT
HETATM    1  C8  UNL     1      23.486   1.268  51.988  1.00  0.00     0.007 A 
HETATM    2  C9  UNL     1      23.194   2.254  51.171  1.00  0.00     0.014 A 
HETATM    3  C10 UNL     1      24.157   3.255  50.676  1.00  0.00     0.204 A 
HETATM    4  O2  UNL     1      25.475   3.054  51.168  1.00  0.00    -0.347 OA
HETATM    5  C11 UNL     1      25.780   2.016  52.029  1.00  0.00     0.080 A 
HETATM    6  C12 UNL     1      24.848   1.175  52.417  1.00  0.00     0.016 A 
HETATM    7  C13 UNL     1      25.113   0.084  53.313  1.00  0.00    -0.044 C 
HETATM    8  C14 UNL     1      24.056  -0.497  53.843  1.00  0.00     0.044 C 
HETATM    9  C15 UNL     1      26.350  -0.550  53.786  1.00  0.00     0.008 C 
HETATM   10  C16 UNL     1      27.579  -0.024  53.647  1.00  0.00     0.001 C 
HETATM   11  C17 UNL     1      27.965   1.242  53.021  1.00  0.00     0.003 C 
HETATM   12  C18 UNL     1      27.215   2.108  52.338  1.00  0.00     0.037 C 
ENDROOT
BRANCH   1  13
HETATM   13  C7  UNL     1      22.464   0.326  52.422  1.00  0.00     0.079 A 
HETATM   14  C6  UNL     1      21.066   0.765  52.266  1.00  0.00     0.212 A 
HETATM   15  O1  UNL     1      21.682  -0.533  52.815  1.00  0.00    -0.348 OA
BRANCH  14  16
HETATM   16  C5  UNL     1      19.976  -0.216  52.408  1.00  0.00     0.039 C 
BRANCH  16  17
HETATM   17  C3  UNL     1      18.602   0.143  51.995  1.00  0.00     0.005 C 
HETATM   18  C4  UNL     1      17.614  -0.870  52.590  1.00  0.00     0.014 C 
BRANCH  17  19
HETATM   19  C2  UNL     1      18.288   0.319  50.574  1.00  0.00    -0.033 C 
HETATM   20  C1  UNL     1      17.110  -0.109  50.074  1.00  0.00     0.007 C 
ENDBRANCH  17  19
ENDBRANCH  16  17
ENDBRANCH  14  16
ENDBRANCH   1  13
TORSDOF 4
ENDMDL
