MODEL 1
REMARK VINA RESULT:      -7.9      0.000      0.000
REMARK  6 active torsions:
REMARK  status: ('A' for Active; 'I' for Inactive)
REMARK    1  A    between atoms: O1_2  and  C2_3 
REMARK    2  A    between atoms: C9_10  and  S1_11 
REMARK    3  A    between atoms: S1_11  and  S2_12 
REMARK    4  A    between atoms: S2_12  and  C10_13 
REMARK    5  A    between atoms: C10_13  and  C11_14 
REMARK       I    between atoms: C11_14  and  N1_16 
REMARK    6  A    between atoms: N1_16  and  C12_17 
ROOT
HETATM    1  S1  UNL     1      22.192   2.241  52.377  1.00  0.00    -0.039 SA
ENDROOT
BRANCH   1   2
HETATM    2  C9  UNL     1      23.379   3.215  51.409  1.00  0.00     0.083 A 
HETATM    3  C8  UNL     1      24.512   2.511  50.988  1.00  0.00     0.051 A 
HETATM    4  C6  UNL     1      25.305   3.431  50.303  1.00  0.00    -0.004 A 
HETATM    5  C5  UNL     1      24.601   4.623  50.355  1.00  0.00     0.045 A 
HETATM    6  C7  UNL     1      26.528   3.431  49.664  1.00  0.00     0.050 A 
HETATM    7  C4  UNL     1      25.050   5.805  49.803  1.00  0.00     0.033 A 
HETATM    8  N2  UNL     1      23.442   4.497  51.016  1.00  0.00    -0.344 N 
HETATM    9  C3  UNL     1      26.290   5.778  49.161  1.00  0.00     0.039 A 
HETATM   10  C2  UNL     1      27.006   4.599  49.102  1.00  0.00     0.069 A 
HETATM   11  C18 UNL     1      22.378   5.431  51.332  1.00  0.00     0.157 C 
BRANCH  10  12
HETATM   12  O1  UNL     1      28.235   4.554  48.475  1.00  0.00    -0.356 OA
HETATM   13  C1  UNL     1      28.894   5.770  48.175  1.00  0.00     0.210 C 
ENDBRANCH  10  12
ENDBRANCH   1   2
BRANCH   1  14
HETATM   14  S2  UNL     1      22.781   0.189  52.342  1.00  0.00    -0.082 SA
BRANCH  14  15
HETATM   15  C10 UNL     1      22.996  -0.505  53.983  1.00  0.00     0.189 C 
BRANCH  15  16
HETATM   16  C11 UNL     1      24.430  -0.741  54.318  1.00  0.00     0.232 C 
HETATM   17  O2  UNL     1      25.222  -1.265  55.151  1.00  0.00    -0.272 OA
HETATM   18  N1  UNL     1      25.320  -0.168  53.329  1.00  0.00    -0.327 N 
HETATM   19  H10 UNL     1      25.044   0.374  52.453  1.00  0.00     0.169 HD
BRANCH  18  20
HETATM   20  C12 UNL     1      26.739  -0.319  53.528  1.00  0.00     0.034 A 
HETATM   21  C13 UNL     1      27.438  -1.331  52.919  1.00  0.00     0.029 A 
HETATM   22  C14 UNL     1      28.784  -1.365  53.180  1.00  0.00     0.002 A 
HETATM   23  C15 UNL     1      29.366  -0.416  54.015  1.00  0.00     0.000 A 
HETATM   24  C16 UNL     1      28.629   0.586  54.608  1.00  0.00     0.002 A 
HETATM   25  C17 UNL     1      27.269   0.630  54.350  1.00  0.00     0.029 A 
ENDBRANCH  18  20
ENDBRANCH  15  16
ENDBRANCH  14  15
ENDBRANCH   1  14
TORSDOF 6
ENDMDL
MODEL 2
REMARK VINA RESULT:      -7.7      2.914      5.363
REMARK  6 active torsions:
REMARK  status: ('A' for Active; 'I' for Inactive)
REMARK    1  A    between atoms: O1_2  and  C2_3 
REMARK    2  A    between atoms: C9_10  and  S1_11 
REMARK    3  A    between atoms: S1_11  and  S2_12 
REMARK    4  A    between atoms: S2_12  and  C10_13 
REMARK    5  A    between atoms: C10_13  and  C11_14 
REMARK       I    between atoms: C11_14  and  N1_16 
REMARK    6  A    between atoms: N1_16  and  C12_17 
ROOT
HETATM    1  S1  UNL     1      21.947   5.117  50.933  1.00  0.00    -0.039 SA
ENDROOT
BRANCH   1   2
HETATM    2  C9  UNL     1      23.343   4.039  51.363  1.00  0.00     0.083 A 
HETATM    3  C8  UNL     1      23.526   3.834  52.734  1.00  0.00     0.051 A 
HETATM    4  C6  UNL     1      24.652   3.021  52.855  1.00  0.00    -0.004 A 
HETATM    5  C5  UNL     1      25.072   2.791  51.555  1.00  0.00     0.045 A 
HETATM    6  C7  UNL     1      25.390   2.464  53.880  1.00  0.00     0.050 A 
HETATM    7  C4  UNL     1      26.180   2.037  51.228  1.00  0.00     0.033 A 
HETATM    8  N2  UNL     1      24.286   3.399  50.655  1.00  0.00    -0.344 N 
HETATM    9  C3  UNL     1      26.908   1.484  52.283  1.00  0.00     0.039 A 
HETATM   10  C2  UNL     1      26.506   1.705  53.585  1.00  0.00     0.069 A 
HETATM   11  C18 UNL     1      24.307   3.459  49.206  1.00  0.00     0.157 C 
BRANCH  10  12
HETATM   12  O1  UNL     1      27.215   1.168  54.641  1.00  0.00    -0.356 OA
HETATM   13  C1  UNL     1      28.058   0.058  54.404  1.00  0.00     0.210 C 
ENDBRANCH  10  12
ENDBRANCH   1   2
BRANCH   1  14
HETATM   14  S2  UNL     1      20.563   4.022  49.733  1.00  0.00    -0.082 SA
BRANCH  14  15
HETATM   15  C10 UNL     1      19.358   3.113  50.706  1.00  0.00     0.189 C 
BRANCH  15  16
HETATM   16  C11 UNL     1      19.979   2.400  51.859  1.00  0.00     0.232 C 
HETATM   17  O2  UNL     1      20.298   2.491  53.079  1.00  0.00    -0.272 OA
HETATM   18  N1  UNL     1      20.405   1.062  51.505  1.00  0.00    -0.327 N 
HETATM   19  H10 UNL     1      20.319   0.591  50.551  1.00  0.00     0.169 HD
BRANCH  18  20
HETATM   20  C12 UNL     1      21.027   0.257  52.525  1.00  0.00     0.034 A 
HETATM   21  C13 UNL     1      20.275  -0.461  53.421  1.00  0.00     0.029 A 
HETATM   22  C14 UNL     1      20.982  -1.194  54.340  1.00  0.00     0.002 A 
HETATM   23  C15 UNL     1      22.374  -1.184  54.331  1.00  0.00     0.000 A 
HETATM   24  C16 UNL     1      23.094  -0.450  53.414  1.00  0.00     0.002 A 
HETATM   25  C17 UNL     1      22.389   0.293  52.481  1.00  0.00     0.029 A 
ENDBRANCH  18  20
ENDBRANCH  15  16
ENDBRANCH  14  15
ENDBRANCH   1  14
TORSDOF 6
ENDMDL
MODEL 3
REMARK VINA RESULT:      -7.6      2.042      6.198
REMARK  6 active torsions:
REMARK  status: ('A' for Active; 'I' for Inactive)
REMARK    1  A    between atoms: O1_2  and  C2_3 
REMARK    2  A    between atoms: C9_10  and  S1_11 
REMARK    3  A    between atoms: S1_11  and  S2_12 
REMARK    4  A    between atoms: S2_12  and  C10_13 
REMARK    5  A    between atoms: C10_13  and  C11_14 
REMARK       I    between atoms: C11_14  and  N1_16 
REMARK    6  A    between atoms: N1_16  and  C12_17 
ROOT
HETATM    1  S1  UNL     1      21.015   0.768  52.198  1.00  0.00    -0.039 SA
ENDROOT
BRANCH   1   2
HETATM    2  C9  UNL     1      22.717   0.531  52.783  1.00  0.00     0.083 A 
HETATM    3  C8  UNL     1      23.688   1.235  52.064  1.00  0.00     0.051 A 
HETATM    4  C6  UNL     1      24.913   0.896  52.637  1.00  0.00    -0.004 A 
HETATM    5  C5  UNL     1      24.601   0.014  53.658  1.00  0.00     0.045 A 
HETATM    6  C7  UNL     1      26.244   1.193  52.424  1.00  0.00     0.050 A 
HETATM    7  C4  UNL     1      25.542  -0.581  54.474  1.00  0.00     0.033 A 
HETATM    8  N2  UNL     1      23.283  -0.206  53.751  1.00  0.00    -0.344 N 
HETATM    9  C3  UNL     1      26.881  -0.263  54.238  1.00  0.00     0.039 A 
HETATM   10  C2  UNL     1      27.211   0.613  53.223  1.00  0.00     0.069 A 
HETATM   11  C18 UNL     1      22.477  -1.026  54.636  1.00  0.00     0.157 C 
BRANCH  10  12
HETATM   12  O1  UNL     1      28.529   0.936  52.973  1.00  0.00    -0.356 OA
HETATM   13  C1  UNL     1      29.545   0.272  53.700  1.00  0.00     0.210 C 
ENDBRANCH  10  12
ENDBRANCH   1   2
BRANCH   1  14
HETATM   14  S2  UNL     1      20.534   2.846  52.275  1.00  0.00    -0.082 SA
BRANCH  14  15
HETATM   15  C10 UNL     1      20.902   3.707  50.743  1.00  0.00     0.189 C 
BRANCH  15  16
HETATM   16  C11 UNL     1      22.300   4.222  50.701  1.00  0.00     0.232 C 
HETATM   17  O2  UNL     1      23.185   4.860  51.340  1.00  0.00    -0.272 OA
HETATM   18  N1  UNL     1      22.965   3.890  49.458  1.00  0.00    -0.327 N 
HETATM   19  H10 UNL     1      22.555   3.351  48.634  1.00  0.00     0.169 HD
BRANCH  18  20
HETATM   20  C12 UNL     1      24.326   4.330  49.279  1.00  0.00     0.034 A 
HETATM   21  C13 UNL     1      24.611   5.601  48.848  1.00  0.00     0.029 A 
HETATM   22  C14 UNL     1      25.943   5.903  48.724  1.00  0.00     0.002 A 
HETATM   23  C15 UNL     1      26.914   4.952  49.025  1.00  0.00     0.000 A 
HETATM   24  C16 UNL     1      26.586   3.685  49.456  1.00  0.00     0.002 A 
HETATM   25  C17 UNL     1      25.244   3.371  49.585  1.00  0.00     0.029 A 
ENDBRANCH  18  20
ENDBRANCH  15  16
ENDBRANCH  14  15
ENDBRANCH   1  14
TORSDOF 6
ENDMDL
MODEL 4
REMARK VINA RESULT:      -7.6      2.310      3.000
REMARK  6 active torsions:
REMARK  status: ('A' for Active; 'I' for Inactive)
REMARK    1  A    between atoms: O1_2  and  C2_3 
REMARK    2  A    between atoms: C9_10  and  S1_11 
REMARK    3  A    between atoms: S1_11  and  S2_12 
REMARK    4  A    between atoms: S2_12  and  C10_13 
REMARK    5  A    between atoms: C10_13  and  C11_14 
REMARK       I    between atoms: C11_14  and  N1_16 
REMARK    6  A    between atoms: N1_16  and  C12_17 
ROOT
HETATM    1  S1  UNL     1      22.497   4.258  49.793  1.00  0.00    -0.039 SA
ENDROOT
BRANCH   1   2
HETATM    2  C9  UNL     1      24.098   4.923  49.256  1.00  0.00     0.083 A 
HETATM    3  C8  UNL     1      25.174   4.039  49.383  1.00  0.00     0.051 A 
HETATM    4  C6  UNL     1      26.302   4.741  48.960  1.00  0.00    -0.004 A 
HETATM    5  C5  UNL     1      25.834   5.996  48.607  1.00  0.00     0.045 A 
HETATM    6  C7  UNL     1      27.656   4.500  48.844  1.00  0.00     0.050 A 
HETATM    7  C4  UNL     1      26.641   7.015  48.145  1.00  0.00     0.033 A 
HETATM    8  N2  UNL     1      24.510   6.109  48.781  1.00  0.00    -0.344 N 
HETATM    9  C3  UNL     1      28.007   6.746  48.036  1.00  0.00     0.039 A 
HETATM   10  C2  UNL     1      28.492   5.501  48.386  1.00  0.00     0.069 A 
HETATM   11  C18 UNL     1      23.573   7.194  48.559  1.00  0.00     0.157 C 
BRANCH  10  12
HETATM   12  O1  UNL     1      29.839   5.218  48.288  1.00  0.00    -0.356 OA
HETATM   13  C1  UNL     1      30.775   6.229  48.608  1.00  0.00     0.210 C 
ENDBRANCH  10  12
ENDBRANCH   1   2
BRANCH   1  14
HETATM   14  S2  UNL     1      22.079   4.952  51.767  1.00  0.00    -0.082 SA
BRANCH  14  15
HETATM   15  C10 UNL     1      23.444   4.693  52.904  1.00  0.00     0.189 C 
BRANCH  15  16
HETATM   16  C11 UNL     1      23.892   3.271  52.941  1.00  0.00     0.232 C 
HETATM   17  O2  UNL     1      23.507   2.069  52.997  1.00  0.00    -0.272 OA
HETATM   18  N1  UNL     1      25.335   3.155  52.893  1.00  0.00    -0.327 N 
HETATM   19  H10 UNL     1      26.043   3.952  52.844  1.00  0.00     0.169 HD
BRANCH  18  20
HETATM   20  C12 UNL     1      25.910   1.834  52.925  1.00  0.00     0.034 A 
HETATM   21  C13 UNL     1      26.139   1.131  51.768  1.00  0.00     0.029 A 
HETATM   22  C14 UNL     1      26.696  -0.112  51.928  1.00  0.00     0.002 A 
HETATM   23  C15 UNL     1      26.994  -0.595  53.199  1.00  0.00     0.000 A 
HETATM   24  C16 UNL     1      26.749   0.143  54.337  1.00  0.00     0.002 A 
HETATM   25  C17 UNL     1      26.187   1.400  54.186  1.00  0.00     0.029 A 
ENDBRANCH  18  20
ENDBRANCH  15  16
ENDBRANCH  14  15
ENDBRANCH   1  14
TORSDOF 6
ENDMDL
MODEL 5
REMARK VINA RESULT:      -7.5      2.529      5.733
REMARK  6 active torsions:
REMARK  status: ('A' for Active; 'I' for Inactive)
REMARK    1  A    between atoms: O1_2  and  C2_3 
REMARK    2  A    between atoms: C9_10  and  S1_11 
REMARK    3  A    between atoms: S1_11  and  S2_12 
REMARK    4  A    between atoms: S2_12  and  C10_13 
REMARK    5  A    between atoms: C10_13  and  C11_14 
REMARK       I    between atoms: C11_14  and  N1_16 
REMARK    6  A    between atoms: N1_16  and  C12_17 
ROOT
HETATM    1  S1  UNL     1      22.861   3.989  49.928  1.00  0.00    -0.039 SA
ENDROOT
BRANCH   1   2
HETATM    2  C9  UNL     1      22.158   2.723  51.022  1.00  0.00     0.083 A 
HETATM    3  C8  UNL     1      23.059   2.172  51.938  1.00  0.00     0.051 A 
HETATM    4  C6  UNL     1      22.345   1.208  52.650  1.00  0.00    -0.004 A 
HETATM    5  C5  UNL     1      21.067   1.241  52.118  1.00  0.00     0.045 A 
HETATM    6  C7  UNL     1      22.604   0.297  53.654  1.00  0.00     0.050 A 
HETATM    7  C4  UNL     1      20.040   0.420  52.535  1.00  0.00     0.033 A 
HETATM    8  N2  UNL     1      20.949   2.152  51.141  1.00  0.00    -0.344 N 
HETATM    9  C3  UNL     1      20.327  -0.492  53.553  1.00  0.00     0.039 A 
HETATM   10  C2  UNL     1      21.597  -0.540  54.093  1.00  0.00     0.069 A 
HETATM   11  C18 UNL     1      19.841   2.558  50.297  1.00  0.00     0.157 C 
BRANCH  10  12
HETATM   12  O1  UNL     1      21.899  -1.437  55.097  1.00  0.00    -0.356 OA
HETATM   13  C1  UNL     1      23.229  -1.505  55.576  1.00  0.00     0.210 C 
ENDBRANCH  10  12
ENDBRANCH   1   2
BRANCH   1  14
HETATM   14  S2  UNL     1      24.773   4.573  50.676  1.00  0.00    -0.082 SA
BRANCH  14  15
HETATM   15  C10 UNL     1      26.117   3.593  50.001  1.00  0.00     0.189 C 
BRANCH  15  16
HETATM   16  C11 UNL     1      26.504   2.465  50.896  1.00  0.00     0.232 C 
HETATM   17  O2  UNL     1      26.663   1.213  50.969  1.00  0.00    -0.272 OA
HETATM   18  N1  UNL     1      26.848   2.920  52.227  1.00  0.00    -0.327 N 
HETATM   19  H10 UNL     1      26.839   3.925  52.585  1.00  0.00     0.169 HD
BRANCH  18  20
HETATM   20  C12 UNL     1      27.239   1.933  53.200  1.00  0.00     0.034 A 
HETATM   21  C13 UNL     1      26.305   1.156  53.840  1.00  0.00     0.029 A 
HETATM   22  C14 UNL     1      26.801   0.247  54.739  1.00  0.00     0.002 A 
HETATM   23  C15 UNL     1      28.172   0.150  54.962  1.00  0.00     0.000 A 
HETATM   24  C16 UNL     1      29.078   0.948  54.298  1.00  0.00     0.002 A 
HETATM   25  C17 UNL     1      28.587   1.868  53.388  1.00  0.00     0.029 A 
ENDBRANCH  18  20
ENDBRANCH  15  16
ENDBRANCH  14  15
ENDBRANCH   1  14
TORSDOF 6
ENDMDL
MODEL 6
REMARK VINA RESULT:      -7.5      2.027      6.561
REMARK  6 active torsions:
REMARK  status: ('A' for Active; 'I' for Inactive)
REMARK    1  A    between atoms: O1_2  and  C2_3 
REMARK    2  A    between atoms: C9_10  and  S1_11 
REMARK    3  A    between atoms: S1_11  and  S2_12 
REMARK    4  A    between atoms: S2_12  and  C10_13 
REMARK    5  A    between atoms: C10_13  and  C11_14 
REMARK       I    between atoms: C11_14  and  N1_16 
REMARK    6  A    between atoms: N1_16  and  C12_17 
ROOT
HETATM    1  S1  UNL     1      21.320   3.241  51.348  1.00  0.00    -0.039 SA
ENDROOT
BRANCH   1   2
HETATM    2  C9  UNL     1      22.607   2.288  52.202  1.00  0.00     0.083 A 
HETATM    3  C8  UNL     1      23.776   3.001  52.483  1.00  0.00     0.051 A 
HETATM    4  C6  UNL     1      24.641   2.096  53.098  1.00  0.00    -0.004 A 
HETATM    5  C5  UNL     1      23.938   0.903  53.148  1.00  0.00     0.045 A 
HETATM    6  C7  UNL     1      25.926   2.111  53.602  1.00  0.00     0.050 A 
HETATM    7  C4  UNL     1      24.447  -0.266  53.674  1.00  0.00     0.033 A 
HETATM    8  N2  UNL     1      22.715   1.015  52.613  1.00  0.00    -0.344 N 
HETATM    9  C3  UNL     1      25.749  -0.225  54.178  1.00  0.00     0.039 A 
HETATM   10  C2  UNL     1      26.465   0.955  54.134  1.00  0.00     0.069 A 
HETATM   11  C18 UNL     1      21.625   0.074  52.435  1.00  0.00     0.157 C 
BRANCH  10  12
HETATM   12  O1  UNL     1      27.754   1.014  54.624  1.00  0.00    -0.356 OA
HETATM   13  C1  UNL     1      28.833   1.044  53.709  1.00  0.00     0.210 C 
ENDBRANCH  10  12
ENDBRANCH   1   2
BRANCH   1  14
HETATM   14  S2  UNL     1      21.678   5.323  51.648  1.00  0.00    -0.082 SA
BRANCH  14  15
HETATM   15  C10 UNL     1      21.831   6.236  50.110  1.00  0.00     0.189 C 
BRANCH  15  16
HETATM   16  C11 UNL     1      23.084   5.903  49.373  1.00  0.00     0.232 C 
HETATM   17  O2  UNL     1      23.558   5.490  48.276  1.00  0.00    -0.272 OA
HETATM   18  N1  UNL     1      24.265   6.122  50.182  1.00  0.00    -0.327 N 
HETATM   19  H10 UNL     1      24.298   6.470  51.190  1.00  0.00     0.169 HD
BRANCH  18  20
HETATM   20  C12 UNL     1      25.550   5.836  49.596  1.00  0.00     0.034 A 
HETATM   21  C13 UNL     1      26.290   6.822  48.992  1.00  0.00     0.029 A 
HETATM   22  C14 UNL     1      27.499   6.428  48.477  1.00  0.00     0.002 A 
HETATM   23  C15 UNL     1      27.913   5.103  48.581  1.00  0.00     0.000 A 
HETATM   24  C16 UNL     1      27.140   4.142  49.196  1.00  0.00     0.002 A 
HETATM   25  C17 UNL     1      25.918   4.530  49.720  1.00  0.00     0.029 A 
ENDBRANCH  18  20
ENDBRANCH  15  16
ENDBRANCH  14  15
ENDBRANCH   1  14
TORSDOF 6
ENDMDL
MODEL 7
REMARK VINA RESULT:      -7.4      2.225      2.955
REMARK  6 active torsions:
REMARK  status: ('A' for Active; 'I' for Inactive)
REMARK    1  A    between atoms: O1_2  and  C2_3 
REMARK    2  A    between atoms: C9_10  and  S1_11 
REMARK    3  A    between atoms: S1_11  and  S2_12 
REMARK    4  A    between atoms: S2_12  and  C10_13 
REMARK    5  A    between atoms: C10_13  and  C11_14 
REMARK       I    between atoms: C11_14  and  N1_16 
REMARK    6  A    between atoms: N1_16  and  C12_17 
ROOT
HETATM    1  S1  UNL     1      24.487   3.348  49.909  1.00  0.00    -0.039 SA
ENDROOT
BRANCH   1   2
HETATM    2  C9  UNL     1      25.666   4.557  49.244  1.00  0.00     0.083 A 
HETATM    3  C8  UNL     1      26.978   4.089  49.116  1.00  0.00     0.051 A 
HETATM    4  C6  UNL     1      27.725   5.161  48.630  1.00  0.00    -0.004 A 
HETATM    5  C5  UNL     1      26.818   6.201  48.497  1.00  0.00     0.045 A 
HETATM    6  C7  UNL     1      29.043   5.408  48.304  1.00  0.00     0.050 A 
HETATM    7  C4  UNL     1      27.156   7.463  48.056  1.00  0.00     0.033 A 
HETATM    8  N2  UNL     1      25.580   5.841  48.862  1.00  0.00    -0.344 N 
HETATM    9  C3  UNL     1      28.496   7.687  47.731  1.00  0.00     0.039 A 
HETATM   10  C2  UNL     1      29.414   6.663  47.859  1.00  0.00     0.069 A 
HETATM   11  C18 UNL     1      24.316   6.551  48.902  1.00  0.00     0.157 C 
BRANCH  10  12
HETATM   12  O1  UNL     1      30.742   6.866  47.546  1.00  0.00    -0.356 OA
HETATM   13  C1  UNL     1      31.732   6.177  48.284  1.00  0.00     0.210 C 
ENDBRANCH  10  12
ENDBRANCH   1   2
BRANCH   1  14
HETATM   14  S2  UNL     1      24.096   3.809  51.956  1.00  0.00    -0.082 SA
BRANCH  14  15
HETATM   15  C10 UNL     1      24.379   2.416  53.053  1.00  0.00     0.189 C 
BRANCH  15  16
HETATM   16  C11 UNL     1      25.625   1.670  52.716  1.00  0.00     0.232 C 
HETATM   17  O2  UNL     1      26.468   1.426  51.807  1.00  0.00    -0.272 OA
HETATM   18  N1  UNL     1      26.117   0.899  53.840  1.00  0.00    -0.327 N 
HETATM   19  H10 UNL     1      25.682   0.828  54.811  1.00  0.00     0.169 HD
BRANCH  18  20
HETATM   20  C12 UNL     1      27.317   0.123  53.654  1.00  0.00     0.034 A 
HETATM   21  C13 UNL     1      27.266  -1.160  53.168  1.00  0.00     0.029 A 
HETATM   22  C14 UNL     1      28.475  -1.792  53.030  1.00  0.00     0.002 A 
HETATM   23  C15 UNL     1      29.657  -1.141  53.372  1.00  0.00     0.000 A 
HETATM   24  C16 UNL     1      29.666   0.149  53.857  1.00  0.00     0.002 A 
HETATM   25  C17 UNL     1      28.450   0.797  54.000  1.00  0.00     0.029 A 
ENDBRANCH  18  20
ENDBRANCH  15  16
ENDBRANCH  14  15
ENDBRANCH   1  14
TORSDOF 6
ENDMDL
MODEL 8
REMARK VINA RESULT:      -7.1      2.108      6.161
REMARK  6 active torsions:
REMARK  status: ('A' for Active; 'I' for Inactive)
REMARK    1  A    between atoms: O1_2  and  C2_3 
REMARK    2  A    between atoms: C9_10  and  S1_11 
REMARK    3  A    between atoms: S1_11  and  S2_12 
REMARK    4  A    between atoms: S2_12  and  C10_13 
REMARK    5  A    between atoms: C10_13  and  C11_14 
REMARK       I    between atoms: C11_14  and  N1_16 
REMARK    6  A    between atoms: N1_16  and  C12_17 
ROOT
HETATM    1  S1  UNL     1      20.604   2.989  52.048  1.00  0.00    -0.039 SA
ENDROOT
BRANCH   1   2
HETATM    2  C9  UNL     1      22.294   2.476  52.468  1.00  0.00     0.083 A 
HETATM    3  C8  UNL     1      22.521   1.098  52.410  1.00  0.00     0.051 A 
HETATM    4  C6  UNL     1      23.847   0.908  52.797  1.00  0.00    -0.004 A 
HETATM    5  C5  UNL     1      24.330   2.179  53.061  1.00  0.00     0.045 A 
HETATM    6  C7  UNL     1      24.702  -0.159  52.982  1.00  0.00     0.050 A 
HETATM    7  C4  UNL     1      25.614   2.438  53.494  1.00  0.00     0.033 A 
HETATM    8  N2  UNL     1      23.401   3.125  52.862  1.00  0.00    -0.344 N 
HETATM    9  C3  UNL     1      26.460   1.341  53.672  1.00  0.00     0.039 A 
HETATM   10  C2  UNL     1      25.994   0.067  53.416  1.00  0.00     0.069 A 
HETATM   11  C18 UNL     1      23.417   4.569  52.996  1.00  0.00     0.157 C 
BRANCH  10  12
HETATM   12  O1  UNL     1      26.814  -1.029  53.590  1.00  0.00    -0.356 OA
HETATM   13  C1  UNL     1      28.212  -0.865  53.454  1.00  0.00     0.210 C 
ENDBRANCH  10  12
ENDBRANCH   1   2
BRANCH   1  14
HETATM   14  S2  UNL     1      20.689   4.741  50.832  1.00  0.00    -0.082 SA
BRANCH  14  15
HETATM   15  C10 UNL     1      20.849   4.372  49.082  1.00  0.00     0.189 C 
BRANCH  15  16
HETATM   16  C11 UNL     1      22.271   4.327  48.637  1.00  0.00     0.232 C 
HETATM   17  O2  UNL     1      23.041   4.084  47.666  1.00  0.00    -0.272 OA
HETATM   18  N1  UNL     1      23.184   4.705  49.697  1.00  0.00    -0.327 N 
HETATM   19  H10 UNL     1      22.930   4.985  50.695  1.00  0.00     0.169 HD
BRANCH  18  20
HETATM   20  C12 UNL     1      24.595   4.703  49.407  1.00  0.00     0.034 A 
HETATM   21  C13 UNL     1      25.214   5.809  48.879  1.00  0.00     0.029 A 
HETATM   22  C14 UNL     1      26.562   5.686  48.654  1.00  0.00     0.002 A 
HETATM   23  C15 UNL     1      27.223   4.498  48.955  1.00  0.00     0.000 A 
HETATM   24  C16 UNL     1      26.565   3.410  49.486  1.00  0.00     0.002 A 
HETATM   25  C17 UNL     1      25.204   3.524  49.717  1.00  0.00     0.029 A 
ENDBRANCH  18  20
ENDBRANCH  15  16
ENDBRANCH  14  15
ENDBRANCH   1  14
TORSDOF 6
ENDMDL
MODEL 9
REMARK VINA RESULT:      -7.0      6.099      8.316
REMARK  6 active torsions:
REMARK  status: ('A' for Active; 'I' for Inactive)
REMARK    1  A    between atoms: O1_2  and  C2_3 
REMARK    2  A    between atoms: C9_10  and  S1_11 
REMARK    3  A    between atoms: S1_11  and  S2_12 
REMARK    4  A    between atoms: S2_12  and  C10_13 
REMARK    5  A    between atoms: C10_13  and  C11_14 
REMARK       I    between atoms: C11_14  and  N1_16 
REMARK    6  A    between atoms: N1_16  and  C12_17 
ROOT
HETATM    1  S1  UNL     1      29.900   8.567  46.859  1.00  0.00    -0.039 SA
ENDROOT
BRANCH   1   2
HETATM    2  C9  UNL     1      28.552   8.003  47.935  1.00  0.00     0.083 A 
HETATM    3  C8  UNL     1      28.241   6.644  47.824  1.00  0.00     0.051 A 
HETATM    4  C6  UNL     1      27.173   6.420  48.692  1.00  0.00    -0.004 A 
HETATM    5  C5  UNL     1      26.912   7.653  49.266  1.00  0.00     0.045 A 
HETATM    6  C7  UNL     1      26.375   5.355  49.058  1.00  0.00     0.050 A 
HETATM    7  C4  UNL     1      25.905   7.876  50.183  1.00  0.00     0.033 A 
HETATM    8  N2  UNL     1      27.740   8.606  48.817  1.00  0.00    -0.344 N 
HETATM    9  C3  UNL     1      25.113   6.781  50.538  1.00  0.00     0.039 A 
HETATM   10  C2  UNL     1      25.358   5.545  49.973  1.00  0.00     0.069 A 
HETATM   11  C18 UNL     1      27.868  10.022  49.107  1.00  0.00     0.157 C 
BRANCH  10  12
HETATM   12  O1  UNL     1      24.583   4.453  50.309  1.00  0.00    -0.356 OA
HETATM   13  C1  UNL     1      24.453   3.395  49.378  1.00  0.00     0.210 C 
ENDBRANCH  10  12
ENDBRANCH   1   2
BRANCH   1  14
HETATM   14  S2  UNL     1      31.606   9.023  48.057  1.00  0.00    -0.082 SA
BRANCH  14  15
HETATM   15  C10 UNL     1      31.668   8.071  49.578  1.00  0.00     0.189 C 
BRANCH  15  16
HETATM   16  C11 UNL     1      31.886   6.617  49.331  1.00  0.00     0.232 C 
HETATM   17  O2  UNL     1      31.690   5.453  49.783  1.00  0.00    -0.272 OA
HETATM   18  N1  UNL     1      32.598   6.377  48.093  1.00  0.00    -0.327 N 
HETATM   19  H10 UNL     1      32.954   7.108  47.404  1.00  0.00     0.169 HD
BRANCH  18  20
HETATM   20  C12 UNL     1      32.880   5.011  47.729  1.00  0.00     0.034 A 
HETATM   21  C13 UNL     1      34.075   4.421  48.057  1.00  0.00     0.029 A 
HETATM   22  C14 UNL     1      34.223   3.116  47.662  1.00  0.00     0.002 A 
HETATM   23  C15 UNL     1      33.202   2.467  46.973  1.00  0.00     0.000 A 
HETATM   24  C16 UNL     1      32.016   3.095  46.662  1.00  0.00     0.002 A 
HETATM   25  C17 UNL     1      31.857   4.412  47.057  1.00  0.00     0.029 A 
ENDBRANCH  18  20
ENDBRANCH  15  16
ENDBRANCH  14  15
ENDBRANCH   1  14
TORSDOF 6
ENDMDL
