MODEL 1
REMARK VINA RESULT:      -9.3      0.000      0.000
REMARK  5 active torsions:
REMARK  status: ('A' for Active; 'I' for Inactive)
REMARK    1  A    between atoms: N1_1  and  C1_2 
REMARK    2  A    between atoms: C4_6  and  N3_7 
REMARK    3  A    between atoms: C11_14  and  N4_15 
REMARK    4  A    between atoms: C13_18  and  C14_19 
REMARK    5  A    between atoms: C14_19  and  C15_20 
ROOT
HETATM    1  C1  UNL     1      28.007   1.974  53.762  1.00  0.00     0.722 A 
HETATM    2  N2  UNL     1      28.047   2.524  52.523  1.00  0.00    -0.062 NA
HETATM    3  C2  UNL     1      26.996   2.439  51.689  1.00  0.00     0.096 A 
HETATM    4  C3  UNL     1      25.867   1.760  52.159  1.00  0.00     0.041 A 
HETATM    5  C4  UNL     1      25.788   1.179  53.433  1.00  0.00     0.159 A 
HETATM    6  N5  UNL     1      26.908   1.325  54.196  1.00  0.00    -0.044 NA
HETATM    7  C12 UNL     1      25.283   2.078  50.841  1.00  0.00     0.027 A 
HETATM    8  C13 UNL     1      26.356   2.717  50.408  1.00  0.00    -0.022 A 
ENDROOT
BRANCH   5   9
HETATM    9  N3  UNL     1      24.557   0.514  53.815  1.00  0.00    -0.331 N 
HETATM   10  C5  UNL     1      23.679   1.436  53.079  1.00  0.00     0.154 A 
HETATM   11  C6  UNL     1      22.199   1.139  53.155  1.00  0.00     0.002 A 
HETATM   12  C7  UNL     1      21.184   0.276  53.659  1.00  0.00     0.062 A 
HETATM   13  C8  UNL     1      22.243  -0.354  54.183  1.00  0.00    -0.079 A 
HETATM   14  C9  UNL     1      23.099  -0.842  54.591  1.00  0.00    -0.098 A 
HETATM   15  C10 UNL     1      24.235  -1.461  55.114  1.00  0.00     0.151 A 
HETATM   16  C11 UNL     1      25.404  -0.478  54.601  1.00  0.00     0.331 A 
BRANCH  16  17
HETATM   17  N4  UNL     1      26.258  -1.221  53.780  1.00  0.00     0.102 N 
HETATM   18  H10 UNL     1      27.115  -1.510  54.300  1.00  0.00     0.315 HD
HETATM   19  H11 UNL     1      26.578  -0.708  52.930  1.00  0.00     0.315 HD
ENDBRANCH  16  17
ENDBRANCH   5   9
BRANCH   1  20
HETATM   20  N1  UNL     1      29.093   2.035  54.690  1.00  0.00    -0.231 N 
HETATM   21  H1  UNL     1      29.920   1.425  54.517  1.00  0.00     0.174 HD
HETATM   22  H2  UNL     1      29.331   2.552  55.569  1.00  0.00     0.174 HD
ENDBRANCH   1  20
BRANCH   8  23
HETATM   23  C14 UNL     1      26.775   3.426  49.169  1.00  0.00     0.081 C 
BRANCH  23  24
HETATM   24  C15 UNL     1      26.403   4.867  49.307  1.00  0.00    -0.032 A 
HETATM   25  C16 UNL     1      25.239   5.330  49.871  1.00  0.00     0.011 A 
HETATM   26  C17 UNL     1      25.004   6.676  49.945  1.00  0.00     0.024 A 
HETATM   27  C18 UNL     1      25.918   7.589  49.460  1.00  0.00     0.035 A 
HETATM   28 CL1  UNL     1      25.620   9.318  49.553  1.00  0.00    -0.084 Cl
HETATM   29  C19 UNL     1      27.089   7.128  48.892  1.00  0.00     0.048 A 
HETATM   30  C20 UNL     1      27.336   5.780  48.813  1.00  0.00     0.042 A 
HETATM   31 CL2  UNL     1      28.834   5.235  48.084  1.00  0.00    -0.084 Cl
ENDBRANCH  23  24
ENDBRANCH   8  23
TORSDOF 5
ENDMDL
MODEL 2
REMARK VINA RESULT:      -8.8      2.446      4.331
REMARK  5 active torsions:
REMARK  status: ('A' for Active; 'I' for Inactive)
REMARK    1  A    between atoms: N1_1  and  C1_2 
REMARK    2  A    between atoms: C4_6  and  N3_7 
REMARK    3  A    between atoms: C11_14  and  N4_15 
REMARK    4  A    between atoms: C13_18  and  C14_19 
REMARK    5  A    between atoms: C14_19  and  C15_20 
ROOT
HETATM    1  C1  UNL     1      21.595   1.732  49.591  1.00  0.00     0.722 A 
HETATM    2  N2  UNL     1      22.118   2.982  49.587  1.00  0.00    -0.062 NA
HETATM    3  C2  UNL     1      22.888   3.419  50.599  1.00  0.00     0.096 A 
HETATM    4  C3  UNL     1      23.121   2.525  51.649  1.00  0.00     0.041 A 
HETATM    5  C4  UNL     1      22.599   1.224  51.688  1.00  0.00     0.159 A 
HETATM    6  N5  UNL     1      21.833   0.885  50.613  1.00  0.00    -0.044 NA
HETATM    7  C12 UNL     1      23.919   3.620  52.236  1.00  0.00     0.027 A 
HETATM    8  C13 UNL     1      23.691   4.455  51.238  1.00  0.00    -0.022 A 
ENDROOT
BRANCH   5   9
HETATM    9  N3  UNL     1      22.924   0.382  52.824  1.00  0.00    -0.331 N 
HETATM   10  C5  UNL     1      24.374   0.613  52.744  1.00  0.00     0.154 A 
HETATM   11  C6  UNL     1      25.210  -0.081  53.794  1.00  0.00     0.002 A 
HETATM   12  C7  UNL     1      25.219  -0.929  54.939  1.00  0.00     0.062 A 
HETATM   13  C8  UNL     1      23.896  -0.906  54.731  1.00  0.00    -0.079 A 
HETATM   14  C9  UNL     1      22.846  -0.875  54.550  1.00  0.00    -0.098 A 
HETATM   15  C10 UNL     1      21.476  -0.819  54.290  1.00  0.00     0.151 A 
HETATM   16  C11 UNL     1      21.434   0.097  52.965  1.00  0.00     0.331 A 
BRANCH  16  17
HETATM   17  N4  UNL     1      20.695   1.246  53.262  1.00  0.00     0.102 N 
HETATM   18  H10 UNL     1      20.483   1.298  54.282  1.00  0.00     0.315 HD
HETATM   19  H11 UNL     1      19.783   1.303  52.758  1.00  0.00     0.315 HD
ENDBRANCH  16  17
ENDBRANCH   5   9
BRANCH   1  20
HETATM   20  N1  UNL     1      20.771   1.215  48.542  1.00  0.00    -0.231 N 
HETATM   21  H1  UNL     1      20.957   1.537  47.569  1.00  0.00     0.174 HD
HETATM   22  H2  UNL     1      19.967   0.552  48.448  1.00  0.00     0.174 HD
ENDBRANCH   1  20
BRANCH   8  23
HETATM   23  C14 UNL     1      24.067   5.850  50.878  1.00  0.00     0.081 C 
BRANCH  23  24
HETATM   24  C15 UNL     1      25.326   5.801  50.074  1.00  0.00    -0.032 A 
HETATM   25  C16 UNL     1      25.967   4.651  49.682  1.00  0.00     0.011 A 
HETATM   26  C17 UNL     1      27.117   4.728  48.945  1.00  0.00     0.024 A 
HETATM   27  C18 UNL     1      27.655   5.946  48.584  1.00  0.00     0.035 A 
HETATM   28 CL1  UNL     1      29.132   6.048  47.637  1.00  0.00    -0.084 Cl
HETATM   29  C19 UNL     1      27.015   7.104  48.976  1.00  0.00     0.048 A 
HETATM   30  C20 UNL     1      25.859   7.041  49.715  1.00  0.00     0.042 A 
HETATM   31 CL2  UNL     1      25.076   8.534  50.193  1.00  0.00    -0.084 Cl
ENDBRANCH  23  24
ENDBRANCH   8  23
TORSDOF 5
ENDMDL
MODEL 3
REMARK VINA RESULT:      -8.8      2.111      4.154
REMARK  5 active torsions:
REMARK  status: ('A' for Active; 'I' for Inactive)
REMARK    1  A    between atoms: N1_1  and  C1_2 
REMARK    2  A    between atoms: C4_6  and  N3_7 
REMARK    3  A    between atoms: C11_14  and  N4_15 
REMARK    4  A    between atoms: C13_18  and  C14_19 
REMARK    5  A    between atoms: C14_19  and  C15_20 
ROOT
HETATM    1  C1  UNL     1      23.077   0.649  53.355  1.00  0.00     0.722 A 
HETATM    2  N2  UNL     1      22.998   1.476  52.284  1.00  0.00    -0.062 NA
HETATM    3  C2  UNL     1      24.097   1.833  51.597  1.00  0.00     0.096 A 
HETATM    4  C3  UNL     1      25.318   1.311  52.039  1.00  0.00     0.041 A 
HETATM    5  C4  UNL     1      25.439   0.454  53.141  1.00  0.00     0.159 A 
HETATM    6  N5  UNL     1      24.264   0.158  53.764  1.00  0.00    -0.044 NA
HETATM    7  C12 UNL     1      25.905   2.076  50.920  1.00  0.00     0.027 A 
HETATM    8  C13 UNL     1      24.745   2.562  50.512  1.00  0.00    -0.022 A 
ENDROOT
BRANCH   5   9
HETATM    9  N3  UNL     1      26.758  -0.036  53.495  1.00  0.00    -0.331 N 
HETATM   10  C5  UNL     1      26.756  -1.132  52.514  1.00  0.00     0.154 A 
HETATM   11  C6  UNL     1      28.003  -1.984  52.477  1.00  0.00     0.002 A 
HETATM   12  C7  UNL     1      29.304  -2.212  53.009  1.00  0.00     0.062 A 
HETATM   13  C8  UNL     1      28.982  -1.145  53.751  1.00  0.00    -0.079 A 
HETATM   14  C9  UNL     1      28.707  -0.294  54.331  1.00  0.00    -0.098 A 
HETATM   15  C10 UNL     1      28.323   0.820  55.079  1.00  0.00     0.151 A 
HETATM   16  C11 UNL     1      26.829   1.076  54.534  1.00  0.00     0.331 A 
BRANCH  16  17
HETATM   17  N4  UNL     1      26.796   2.350  53.957  1.00  0.00     0.102 N 
HETATM   18  H10 UNL     1      26.700   3.086  54.690  1.00  0.00     0.315 HD
HETATM   19  H11 UNL     1      26.011   2.488  53.284  1.00  0.00     0.315 HD
ENDBRANCH  16  17
ENDBRANCH   5   9
BRANCH   1  20
HETATM   20  N1  UNL     1      21.942   0.237  54.122  1.00  0.00    -0.231 N 
HETATM   21  H1  UNL     1      21.356   0.975  54.565  1.00  0.00     0.174 HD
HETATM   22  H2  UNL     1      21.482  -0.661  54.398  1.00  0.00     0.174 HD
ENDBRANCH   1  20
BRANCH   8  23
HETATM   23  C14 UNL     1      24.262   3.460  49.429  1.00  0.00     0.081 C 
BRANCH  23  24
HETATM   24  C15 UNL     1      24.960   4.774  49.567  1.00  0.00    -0.032 A 
HETATM   25  C16 UNL     1      26.118   5.125  48.917  1.00  0.00     0.011 A 
HETATM   26  C17 UNL     1      26.668   6.361  49.120  1.00  0.00     0.024 A 
HETATM   27  C18 UNL     1      26.082   7.273  49.973  1.00  0.00     0.035 A 
HETATM   28 CL1  UNL     1      26.786   8.861  50.236  1.00  0.00    -0.084 Cl
HETATM   29  C19 UNL     1      24.918   6.926  50.629  1.00  0.00     0.048 A 
HETATM   30  C20 UNL     1      24.355   5.688  50.433  1.00  0.00     0.042 A 
HETATM   31 CL2  UNL     1      22.878   5.285  51.284  1.00  0.00    -0.084 Cl
ENDBRANCH  23  24
ENDBRANCH   8  23
TORSDOF 5
ENDMDL
MODEL 4
REMARK VINA RESULT:      -8.7      1.855      2.891
REMARK  5 active torsions:
REMARK  status: ('A' for Active; 'I' for Inactive)
REMARK    1  A    between atoms: N1_1  and  C1_2 
REMARK    2  A    between atoms: C4_6  and  N3_7 
REMARK    3  A    between atoms: C11_14  and  N4_15 
REMARK    4  A    between atoms: C13_18  and  C14_19 
REMARK    5  A    between atoms: C14_19  and  C15_20 
ROOT
HETATM    1  C1  UNL     1      26.761   2.029  53.023  1.00  0.00     0.722 A 
HETATM    2  N2  UNL     1      27.369   2.557  51.933  1.00  0.00    -0.062 NA
HETATM    3  C2  UNL     1      26.655   3.042  50.902  1.00  0.00     0.096 A 
HETATM    4  C3  UNL     1      25.262   2.975  51.010  1.00  0.00     0.041 A 
HETATM    5  C4  UNL     1      24.597   2.437  52.121  1.00  0.00     0.159 A 
HETATM    6  N5  UNL     1      25.417   1.975  53.107  1.00  0.00    -0.044 NA
HETATM    7  C12 UNL     1      25.255   3.611  49.677  1.00  0.00     0.027 A 
HETATM    8  C13 UNL     1      26.573   3.668  49.588  1.00  0.00    -0.022 A 
ENDROOT
BRANCH   5   9
HETATM    9  N3  UNL     1      23.146   2.438  52.125  1.00  0.00    -0.331 N 
HETATM   10  C5  UNL     1      23.017   0.973  52.084  1.00  0.00     0.154 A 
HETATM   11  C6  UNL     1      21.605   0.436  52.090  1.00  0.00     0.002 A 
HETATM   12  C7  UNL     1      20.215   0.744  52.133  1.00  0.00     0.062 A 
HETATM   13  C8  UNL     1      20.687   1.997  52.181  1.00  0.00    -0.079 A 
HETATM   14  C9  UNL     1      21.083   2.986  52.218  1.00  0.00    -0.098 A 
HETATM   15  C10 UNL     1      21.626   4.271  52.265  1.00  0.00     0.151 A 
HETATM   16  C11 UNL     1      23.204   3.959  52.168  1.00  0.00     0.331 A 
BRANCH  16  17
HETATM   17  N4  UNL     1      23.808   4.440  53.333  1.00  0.00     0.102 N 
HETATM   18  H10 UNL     1      23.108   4.542  54.100  1.00  0.00     0.315 HD
HETATM   19  H11 UNL     1      24.269   5.369  53.218  1.00  0.00     0.315 HD
ENDBRANCH  16  17
ENDBRANCH   5   9
BRANCH   1  20
HETATM   20  N1  UNL     1      27.470   1.500  54.147  1.00  0.00    -0.231 N 
HETATM   21  H1  UNL     1      26.915   1.173  54.966  1.00  0.00     0.174 HD
HETATM   22  H2  UNL     1      28.465   1.326  54.420  1.00  0.00     0.174 HD
ENDBRANCH   1  20
BRANCH   8  23
HETATM   23  C14 UNL     1      27.577   4.150  48.601  1.00  0.00     0.081 C 
BRANCH  23  24
HETATM   24  C15 UNL     1      27.584   5.644  48.635  1.00  0.00    -0.032 A 
HETATM   25  C16 UNL     1      26.512   6.431  48.983  1.00  0.00     0.011 A 
HETATM   26  C17 UNL     1      26.635   7.793  48.979  1.00  0.00     0.024 A 
HETATM   27  C18 UNL     1      27.822   8.404  48.629  1.00  0.00     0.035 A 
HETATM   28 CL1  UNL     1      27.984  10.153  48.624  1.00  0.00    -0.084 Cl
HETATM   29  C19 UNL     1      28.902   7.618  48.278  1.00  0.00     0.048 A 
HETATM   30  C20 UNL     1      28.792   6.249  48.279  1.00  0.00     0.042 A 
HETATM   31 CL2  UNL     1      30.185   5.287  47.827  1.00  0.00    -0.084 Cl
ENDBRANCH  23  24
ENDBRANCH   8  23
TORSDOF 5
ENDMDL
MODEL 5
REMARK VINA RESULT:      -8.6      4.624      7.067
REMARK  5 active torsions:
REMARK  status: ('A' for Active; 'I' for Inactive)
REMARK    1  A    between atoms: N1_1  and  C1_2 
REMARK    2  A    between atoms: C4_6  and  N3_7 
REMARK    3  A    between atoms: C11_14  and  N4_15 
REMARK    4  A    between atoms: C13_18  and  C14_19 
REMARK    5  A    between atoms: C14_19  and  C15_20 
ROOT
HETATM    1  C1  UNL     1      23.459   4.630  52.237  1.00  0.00     0.722 A 
HETATM    2  N2  UNL     1      23.785   3.463  52.844  1.00  0.00    -0.062 NA
HETATM    3  C2  UNL     1      23.335   2.285  52.377  1.00  0.00     0.096 A 
HETATM    4  C3  UNL     1      22.521   2.324  51.240  1.00  0.00     0.041 A 
HETATM    5  C4  UNL     1      22.163   3.511  50.585  1.00  0.00     0.159 A 
HETATM    6  N5  UNL     1      22.673   4.645  51.142  1.00  0.00    -0.044 NA
HETATM    7  C12 UNL     1      22.477   0.854  51.377  1.00  0.00     0.027 A 
HETATM    8  C13 UNL     1      23.247   0.831  52.450  1.00  0.00    -0.022 A 
ENDROOT
BRANCH   5   9
HETATM    9  N3  UNL     1      21.326   3.424  49.404  1.00  0.00    -0.331 N 
HETATM   10  C5  UNL     1      20.069   3.703  50.116  1.00  0.00     0.154 A 
HETATM   11  C6  UNL     1      18.823   3.739  49.263  1.00  0.00     0.002 A 
HETATM   12  C7  UNL     1      18.273   3.625  47.954  1.00  0.00     0.062 A 
HETATM   13  C8  UNL     1      19.558   3.421  47.637  1.00  0.00    -0.079 A 
HETATM   14  C9  UNL     1      20.586   3.261  47.405  1.00  0.00    -0.098 A 
HETATM   15  C10 UNL     1      21.938   3.053  47.128  1.00  0.00     0.151 A 
HETATM   16  C11 UNL     1      22.586   3.128  48.601  1.00  0.00     0.331 A 
BRANCH  16  17
HETATM   17  N4  UNL     1      23.492   4.193  48.617  1.00  0.00     0.102 N 
HETATM   18  H10 UNL     1      23.697   4.491  49.596  1.00  0.00     0.315 HD
HETATM   19  H11 UNL     1      23.160   5.038  48.105  1.00  0.00     0.315 HD
ENDBRANCH  16  17
ENDBRANCH   5   9
BRANCH   1  20
HETATM   20  N1  UNL     1      23.908   5.910  52.691  1.00  0.00    -0.231 N 
HETATM   21  H1  UNL     1      24.721   6.345  52.204  1.00  0.00     0.174 HD
HETATM   22  H2  UNL     1      23.645   6.605  53.428  1.00  0.00     0.174 HD
ENDBRANCH   1  20
BRANCH   8  23
HETATM   23  C14 UNL     1      23.807  -0.200  53.366  1.00  0.00     0.081 C 
BRANCH  23  24
HETATM   24  C15 UNL     1      25.297  -0.093  53.333  1.00  0.00    -0.032 A 
HETATM   25  C16 UNL     1      26.039   0.243  52.227  1.00  0.00     0.011 A 
HETATM   26  C17 UNL     1      27.403   0.311  52.314  1.00  0.00     0.024 A 
HETATM   27  C18 UNL     1      28.058   0.045  53.499  1.00  0.00     0.035 A 
HETATM   28 CL1  UNL     1      29.809   0.130  53.615  1.00  0.00    -0.084 Cl
HETATM   29  C19 UNL     1      27.317  -0.295  54.613  1.00  0.00     0.048 A 
HETATM   30  C20 UNL     1      25.947  -0.365  54.539  1.00  0.00     0.042 A 
HETATM   31 CL2  UNL     1      25.042  -0.799  55.975  1.00  0.00    -0.084 Cl
ENDBRANCH  23  24
ENDBRANCH   8  23
TORSDOF 5
ENDMDL
MODEL 6
REMARK VINA RESULT:      -8.5      3.848      7.730
REMARK  5 active torsions:
REMARK  status: ('A' for Active; 'I' for Inactive)
REMARK    1  A    between atoms: N1_1  and  C1_2 
REMARK    2  A    between atoms: C4_6  and  N3_7 
REMARK    3  A    between atoms: C11_14  and  N4_15 
REMARK    4  A    between atoms: C13_18  and  C14_19 
REMARK    5  A    between atoms: C14_19  and  C15_20 
ROOT
HETATM    1  C1  UNL     1      23.408   4.917  52.090  1.00  0.00     0.722 A 
HETATM    2  N2  UNL     1      24.149   3.792  52.230  1.00  0.00    -0.062 NA
HETATM    3  C2  UNL     1      25.094   3.463  51.332  1.00  0.00     0.096 A 
HETATM    4  C3  UNL     1      25.272   4.335  50.253  1.00  0.00     0.041 A 
HETATM    5  C4  UNL     1      24.526   5.508  50.074  1.00  0.00     0.159 A 
HETATM    6  N5  UNL     1      23.597   5.745  51.043  1.00  0.00    -0.044 NA
HETATM    7  C12 UNL     1      26.320   3.386  49.823  1.00  0.00     0.027 A 
HETATM    8  C13 UNL     1      26.140   2.570  50.848  1.00  0.00    -0.022 A 
ENDROOT
BRANCH   5   9
HETATM    9  N3  UNL     1      24.814   6.343  48.923  1.00  0.00    -0.331 N 
HETATM   10  C5  UNL     1      23.537   6.070  48.245  1.00  0.00     0.154 A 
HETATM   11  C6  UNL     1      23.334   6.769  46.920  1.00  0.00     0.002 A 
HETATM   12  C7  UNL     1      23.871   7.665  45.953  1.00  0.00     0.062 A 
HETATM   13  C8  UNL     1      24.886   7.700  46.827  1.00  0.00    -0.079 A 
HETATM   14  C9  UNL     1      25.683   7.715  47.535  1.00  0.00    -0.098 A 
HETATM   15  C10 UNL     1      26.712   7.716  48.476  1.00  0.00     0.151 A 
HETATM   16  C11 UNL     1      26.155   6.669  49.567  1.00  0.00     0.331 A 
BRANCH  16  17
HETATM   17  N4  UNL     1      26.015   7.348  50.781  1.00  0.00     0.102 N 
HETATM   18  H10 UNL     1      25.654   6.710  51.523  1.00  0.00     0.315 HD
HETATM   19  H11 UNL     1      25.364   8.162  50.737  1.00  0.00     0.315 HD
ENDBRANCH  16  17
ENDBRANCH   5   9
BRANCH   1  20
HETATM   20  N1  UNL     1      22.391   5.316  53.014  1.00  0.00    -0.231 N 
HETATM   21  H1  UNL     1      21.672   5.996  52.688  1.00  0.00     0.174 HD
HETATM   22  H2  UNL     1      22.127   5.114  54.006  1.00  0.00     0.174 HD
ENDBRANCH   1  20
BRANCH   8  23
HETATM   23  C14 UNL     1      26.725   1.292  51.336  1.00  0.00     0.081 C 
BRANCH  23  24
HETATM   24  C15 UNL     1      25.750   0.662  52.276  1.00  0.00    -0.032 A 
HETATM   25  C16 UNL     1      24.396   0.565  52.061  1.00  0.00     0.011 A 
HETATM   26  C17 UNL     1      23.598  -0.036  52.995  1.00  0.00     0.024 A 
HETATM   27  C18 UNL     1      24.124  -0.552  54.162  1.00  0.00     0.035 A 
HETATM   28 CL1  UNL     1      23.101  -1.324  55.363  1.00  0.00    -0.084 Cl
HETATM   29  C19 UNL     1      25.484  -0.457  54.383  1.00  0.00     0.048 A 
HETATM   30  C20 UNL     1      26.296   0.143  53.452  1.00  0.00     0.042 A 
HETATM   31 CL2  UNL     1      28.017   0.244  53.770  1.00  0.00    -0.084 Cl
ENDBRANCH  23  24
ENDBRANCH   8  23
TORSDOF 5
ENDMDL
MODEL 7
REMARK VINA RESULT:      -8.4      3.842      6.618
REMARK  5 active torsions:
REMARK  status: ('A' for Active; 'I' for Inactive)
REMARK    1  A    between atoms: N1_1  and  C1_2 
REMARK    2  A    between atoms: C4_6  and  N3_7 
REMARK    3  A    between atoms: C11_14  and  N4_15 
REMARK    4  A    between atoms: C13_18  and  C14_19 
REMARK    5  A    between atoms: C14_19  and  C15_20 
ROOT
HETATM    1  C1  UNL     1      26.052   3.276  50.483  1.00  0.00     0.722 A 
HETATM    2  N2  UNL     1      26.105   2.162  51.253  1.00  0.00    -0.062 NA
HETATM    3  C2  UNL     1      25.007   1.684  51.863  1.00  0.00     0.096 A 
HETATM    4  C3  UNL     1      23.814   2.388  51.664  1.00  0.00     0.041 A 
HETATM    5  C4  UNL     1      23.720   3.542  50.874  1.00  0.00     0.159 A 
HETATM    6  N5  UNL     1      24.892   3.939  50.303  1.00  0.00    -0.044 NA
HETATM    7  C12 UNL     1      23.211   1.362  52.538  1.00  0.00     0.027 A 
HETATM    8  C13 UNL     1      24.344   0.706  52.718  1.00  0.00    -0.022 A 
ENDROOT
BRANCH   5   9
HETATM    9  N3  UNL     1      22.424   4.177  50.729  1.00  0.00    -0.331 N 
HETATM   10  C5  UNL     1      21.723   2.949  50.326  1.00  0.00     0.154 A 
HETATM   11  C6  UNL     1      20.243   3.093  50.058  1.00  0.00     0.002 A 
HETATM   12  C7  UNL     1      19.118   3.967  50.031  1.00  0.00     0.062 A 
HETATM   13  C8  UNL     1      20.039   4.857  50.424  1.00  0.00    -0.079 A 
HETATM   14  C9  UNL     1      20.786   5.550  50.738  1.00  0.00    -0.098 A 
HETATM   15  C10 UNL     1      21.782   6.437  51.146  1.00  0.00     0.151 A 
HETATM   16  C11 UNL     1      23.084   5.487  51.140  1.00  0.00     0.331 A 
BRANCH  16  17
HETATM   17  N4  UNL     1      23.590   5.446  52.443  1.00  0.00     0.102 N 
HETATM   18  H10 UNL     1      24.451   6.031  52.525  1.00  0.00     0.315 HD
HETATM   19  H11 UNL     1      23.843   4.488  52.768  1.00  0.00     0.315 HD
ENDBRANCH  16  17
ENDBRANCH   5   9
BRANCH   1  20
HETATM   20  N1  UNL     1      27.187   3.828  49.810  1.00  0.00    -0.231 N 
HETATM   21  H1  UNL     1      27.735   3.205  49.181  1.00  0.00     0.174 HD
HETATM   22  H2  UNL     1      27.678   4.751  49.754  1.00  0.00     0.174 HD
ENDBRANCH   1  20
BRANCH   8  23
HETATM   23  C14 UNL     1      24.795  -0.504  53.458  1.00  0.00     0.081 C 
BRANCH  23  24
HETATM   24  C15 UNL     1      26.272  -0.400  53.665  1.00  0.00    -0.032 A 
HETATM   25  C16 UNL     1      26.887   0.459  54.543  1.00  0.00     0.011 A 
HETATM   26  C17 UNL     1      28.251   0.466  54.650  1.00  0.00     0.024 A 
HETATM   27  C18 UNL     1      29.032  -0.377  53.887  1.00  0.00     0.035 A 
HETATM   28 CL1  UNL     1      30.784  -0.371  54.021  1.00  0.00    -0.084 Cl
HETATM   29  C19 UNL     1      28.419  -1.242  53.002  1.00  0.00     0.048 A 
HETATM   30  C20 UNL     1      27.051  -1.260  52.887  1.00  0.00     0.042 A 
HETATM   31 CL2  UNL     1      26.310  -2.372  51.754  1.00  0.00    -0.084 Cl
ENDBRANCH  23  24
ENDBRANCH   8  23
TORSDOF 5
ENDMDL
MODEL 8
REMARK VINA RESULT:      -8.4      3.207      4.575
REMARK  5 active torsions:
REMARK  status: ('A' for Active; 'I' for Inactive)
REMARK    1  A    between atoms: N1_1  and  C1_2 
REMARK    2  A    between atoms: C4_6  and  N3_7 
REMARK    3  A    between atoms: C11_14  and  N4_15 
REMARK    4  A    between atoms: C13_18  and  C14_19 
REMARK    5  A    between atoms: C14_19  and  C15_20 
ROOT
HETATM    1  C1  UNL     1      24.608   6.887  50.816  1.00  0.00     0.722 A 
HETATM    2  N2  UNL     1      25.803   6.823  50.181  1.00  0.00    -0.062 NA
HETATM    3  C2  UNL     1      26.246   5.674  49.642  1.00  0.00     0.096 A 
HETATM    4  C3  UNL     1      25.415   4.555  49.767  1.00  0.00     0.041 A 
HETATM    5  C4  UNL     1      24.172   4.582  50.415  1.00  0.00     0.159 A 
HETATM    6  N5  UNL     1      23.822   5.797  50.924  1.00  0.00    -0.044 NA
HETATM    7  C12 UNL     1      26.477   3.842  49.027  1.00  0.00     0.027 A 
HETATM    8  C13 UNL     1      27.252   4.907  48.917  1.00  0.00    -0.022 A 
ENDROOT
BRANCH   5   9
HETATM    9  N3  UNL     1      23.392   3.360  50.466  1.00  0.00    -0.331 N 
HETATM   10  C5  UNL     1      23.125   3.317  49.021  1.00  0.00     0.154 A 
HETATM   11  C6  UNL     1      22.306   2.142  48.537  1.00  0.00     0.002 A 
HETATM   12  C7  UNL     1      21.626   0.941  48.889  1.00  0.00     0.062 A 
HETATM   13  C8  UNL     1      22.060   1.276  50.111  1.00  0.00    -0.079 A 
HETATM   14  C9  UNL     1      22.415   1.560  51.075  1.00  0.00    -0.098 A 
HETATM   15  C10 UNL     1      22.891   1.953  52.327  1.00  0.00     0.151 A 
HETATM   16  C11 UNL     1      23.628   3.341  51.971  1.00  0.00     0.331 A 
BRANCH  16  17
HETATM   17  N4  UNL     1      24.980   3.205  52.300  1.00  0.00     0.102 N 
HETATM   18  H10 UNL     1      25.458   2.552  51.641  1.00  0.00     0.315 HD
HETATM   19  H11 UNL     1      25.146   2.840  53.263  1.00  0.00     0.315 HD
ENDBRANCH  16  17
ENDBRANCH   5   9
BRANCH   1  20
HETATM   20  N1  UNL     1      24.088   8.081  51.407  1.00  0.00    -0.231 N 
HETATM   21  H1  UNL     1      24.714   8.912  51.466  1.00  0.00     0.174 HD
HETATM   22  H2  UNL     1      23.190   8.402  51.838  1.00  0.00     0.174 HD
ENDBRANCH   1  20
BRANCH   8  23
HETATM   23  C14 UNL     1      28.577   5.231  48.322  1.00  0.00     0.081 C 
BRANCH  23  24
HETATM   24  C15 UNL     1      28.568   6.670  47.919  1.00  0.00    -0.032 A 
HETATM   25  C16 UNL     1      27.557   7.288  47.224  1.00  0.00     0.011 A 
HETATM   26  C17 UNL     1      27.658   8.616  46.909  1.00  0.00     0.024 A 
HETATM   27  C18 UNL     1      28.762   9.357  47.276  1.00  0.00     0.035 A 
HETATM   28 CL1  UNL     1      28.894  11.062  46.874  1.00  0.00    -0.084 Cl
HETATM   29  C19 UNL     1      29.781   8.740  47.975  1.00  0.00     0.048 A 
HETATM   30  C20 UNL     1      29.692   7.408  48.298  1.00  0.00     0.042 A 
HETATM   31 CL2  UNL     1      31.006   6.662  49.185  1.00  0.00    -0.084 Cl
ENDBRANCH  23  24
ENDBRANCH   8  23
TORSDOF 5
ENDMDL
MODEL 9
REMARK VINA RESULT:      -8.2      4.480      7.131
REMARK  5 active torsions:
REMARK  status: ('A' for Active; 'I' for Inactive)
REMARK    1  A    between atoms: N1_1  and  C1_2 
REMARK    2  A    between atoms: C4_6  and  N3_7 
REMARK    3  A    between atoms: C11_14  and  N4_15 
REMARK    4  A    between atoms: C13_18  and  C14_19 
REMARK    5  A    between atoms: C14_19  and  C15_20 
ROOT
HETATM    1  C1  UNL     1      21.910   2.549  48.563  1.00  0.00     0.722 A 
HETATM    2  N2  UNL     1      22.873   2.649  49.512  1.00  0.00    -0.062 NA
HETATM    3  C2  UNL     1      22.597   2.439  50.810  1.00  0.00     0.096 A 
HETATM    4  C3  UNL     1      21.274   2.113  51.132  1.00  0.00     0.041 A 
HETATM    5  C4  UNL     1      20.252   1.999  50.179  1.00  0.00     0.159 A 
HETATM    6  N5  UNL     1      20.642   2.233  48.895  1.00  0.00    -0.044 NA
HETATM    7  C12 UNL     1      21.760   2.059  52.526  1.00  0.00     0.027 A 
HETATM    8  C13 UNL     1      23.006   2.368  52.208  1.00  0.00    -0.022 A 
ENDROOT
BRANCH   5   9
HETATM    9  N3  UNL     1      18.922   1.639  50.632  1.00  0.00    -0.331 N 
HETATM   10  C5  UNL     1      19.332   0.359  51.231  1.00  0.00     0.154 A 
HETATM   11  C6  UNL     1      18.233  -0.441  51.890  1.00  0.00     0.002 A 
HETATM   12  C7  UNL     1      16.852  -0.508  52.233  1.00  0.00     0.062 A 
HETATM   13  C8  UNL     1      16.835   0.682  51.619  1.00  0.00    -0.079 A 
HETATM   14  C9  UNL     1      16.843   1.628  51.127  1.00  0.00    -0.098 A 
HETATM   15  C10 UNL     1      16.880   2.863  50.478  1.00  0.00     0.151 A 
HETATM   16  C11 UNL     1      18.426   2.949  50.033  1.00  0.00     0.331 A 
BRANCH  16  17
HETATM   17  N4  UNL     1      18.989   4.068  50.653  1.00  0.00     0.102 N 
HETATM   18  H10 UNL     1      19.437   3.805  51.558  1.00  0.00     0.315 HD
HETATM   19  H11 UNL     1      18.302   4.825  50.863  1.00  0.00     0.315 HD
ENDBRANCH  16  17
ENDBRANCH   5   9
BRANCH   1  20
HETATM   20  N1  UNL     1      22.147   2.762  47.169  1.00  0.00    -0.231 N 
HETATM   21  H1  UNL     1      22.267   1.926  46.559  1.00  0.00     0.174 HD
HETATM   22  H2  UNL     1      22.245   3.575  46.517  1.00  0.00     0.174 HD
ENDBRANCH   1  20
BRANCH   8  23
HETATM   23  C14 UNL     1      24.294   2.567  52.926  1.00  0.00     0.081 C 
BRANCH  23  24
HETATM   24  C15 UNL     1      25.032   1.268  52.930  1.00  0.00    -0.032 A 
HETATM   25  C16 UNL     1      24.790   0.226  53.792  1.00  0.00     0.011 A 
HETATM   26  C17 UNL     1      25.530  -0.921  53.701  1.00  0.00     0.024 A 
HETATM   27  C18 UNL     1      26.526  -1.057  52.756  1.00  0.00     0.035 A 
HETATM   28 CL1  UNL     1      27.479  -2.528  52.637  1.00  0.00    -0.084 Cl
HETATM   29  C19 UNL     1      26.773  -0.013  51.888  1.00  0.00     0.048 A 
HETATM   30  C20 UNL     1      26.036   1.143  51.968  1.00  0.00     0.042 A 
HETATM   31 CL2  UNL     1      26.381   2.446  50.848  1.00  0.00    -0.084 Cl
ENDBRANCH  23  24
ENDBRANCH   8  23
TORSDOF 5
ENDMDL
