MODEL 1
REMARK VINA RESULT:      -9.9      0.000      0.000
REMARK  6 active torsions:
REMARK  status: ('A' for Active; 'I' for Inactive)
REMARK    1  A    between atoms: C7_9  and  N3_10 
REMARK    2  A    between atoms: N3_10  and  C8_11 
REMARK    3  A    between atoms: C8_11  and  C9_12 
REMARK    4  A    between atoms: C13_17  and  C14_18 
REMARK    5  A    between atoms: C17_22  and  N4_23 
REMARK    6  A    between atoms: N4_23  and  C18_24 
ROOT
HETATM    1  N1  UNL     1      22.188  -1.697  54.856  1.00  0.00    -0.191 NA
HETATM    2  C1  UNL     1      22.366  -0.953  53.985  1.00  0.00     0.103 C 
HETATM    3  C2  UNL     1      22.578  -0.033  52.893  1.00  0.00     0.089 A 
HETATM    4  C3  UNL     1      21.578   0.020  51.944  1.00  0.00     0.142 A 
HETATM    5  N2  UNL     1      21.709   0.860  50.888  1.00  0.00    -0.259 NA
HETATM    6  C4  UNL     1      22.798   1.649  50.746  1.00  0.00     0.069 A 
HETATM    7  C5  UNL     1      22.933   2.509  49.668  1.00  0.00     0.035 A 
HETATM    8  C6  UNL     1      24.074   3.283  49.593  1.00  0.00     0.031 A 
HETATM    9  C7  UNL     1      25.078   3.229  50.545  1.00  0.00     0.029 A 
HETATM   10  C15 UNL     1      24.932   2.364  51.620  1.00  0.00     0.045 A 
HETATM   11  C16 UNL     1      23.791   1.591  51.695  1.00  0.00     0.023 A 
HETATM   12  C17 UNL     1      23.717   0.752  52.798  1.00  0.00     0.067 A 
ENDROOT
BRANCH  12  13
HETATM   13  N4  UNL     1      24.665   0.614  53.820  1.00  0.00    -0.354 N 
HETATM   14  H15 UNL     1      24.244   0.887  54.735  1.00  0.00     0.166 HD
BRANCH  13  15
HETATM   15  C18 UNL     1      26.011   0.173  53.674  1.00  0.00     0.034 A 
HETATM   16  C19 UNL     1      26.223  -1.033  53.041  1.00  0.00     0.032 A 
HETATM   17  C20 UNL     1      27.548  -1.405  52.932  1.00  0.00     0.046 A 
HETATM   18  C21 UNL     1      28.577  -0.619  53.423  1.00  0.00     0.138 A 
HETATM   19  F1  UNL     1      29.897  -0.972  53.323  1.00  0.00    -0.204 F 
HETATM   20  C22 UNL     1      28.309   0.582  54.050  1.00  0.00     0.074 A 
HETATM   21 CL1  UNL     1      29.564   1.623  54.694  1.00  0.00    -0.081 Cl
HETATM   22  C23 UNL     1      26.996   0.995  54.183  1.00  0.00     0.056 A 
ENDBRANCH  13  15
ENDBRANCH  12  13
BRANCH   9  23
HETATM   23  N3  UNL     1      26.246   4.044  50.435  1.00  0.00    -0.389 N 
HETATM   24  H4  UNL     1      26.744   4.309  51.313  1.00  0.00     0.159 HD
BRANCH  23  25
HETATM   25  C8  UNL     1      26.695   4.474  49.123  1.00  0.00     0.129 C 
BRANCH  25  26
HETATM   26  C9  UNL     1      26.757   5.981  48.997  1.00  0.00     0.040 C 
HETATM   27  C10 UNL     1      25.545   6.466  48.191  1.00  0.00     0.037 C 
HETATM   28  C11 UNL     1      25.570   7.986  48.243  1.00  0.00     0.168 C 
HETATM   29  O1  UNL     1      26.866   8.470  48.277  1.00  0.00    -0.387 OA
HETATM   30  C12 UNL     1      27.762   7.736  47.525  1.00  0.00     0.206 C 
HETATM   31  C13 UNL     1      27.939   6.414  48.206  1.00  0.00     0.004 C 
BRANCH  31  32
HETATM   32  C14 UNL     1      29.035   5.743  48.091  1.00  0.00     0.226 C 
HETATM   33  O2  UNL     1      30.079   5.133  48.358  1.00  0.00    -0.284 OA
ENDBRANCH  31  32
ENDBRANCH  25  26
ENDBRANCH  23  25
ENDBRANCH   9  23
TORSDOF 6
ENDMDL
MODEL 2
REMARK VINA RESULT:      -9.7      3.665      6.625
REMARK  6 active torsions:
REMARK  status: ('A' for Active; 'I' for Inactive)
REMARK    1  A    between atoms: C7_9  and  N3_10 
REMARK    2  A    between atoms: N3_10  and  C8_11 
REMARK    3  A    between atoms: C8_11  and  C9_12 
REMARK    4  A    between atoms: C13_17  and  C14_18 
REMARK    5  A    between atoms: C17_22  and  N4_23 
REMARK    6  A    between atoms: N4_23  and  C18_24 
ROOT
HETATM    1  N1  UNL     1      19.915   2.453  48.703  1.00  0.00    -0.191 NA
HETATM    2  C1  UNL     1      20.226   1.869  49.656  1.00  0.00     0.103 C 
HETATM    3  C2  UNL     1      20.599   1.143  50.846  1.00  0.00     0.089 A 
HETATM    4  C3  UNL     1      19.560   0.603  51.576  1.00  0.00     0.142 A 
HETATM    5  N2  UNL     1      19.834  -0.092  52.708  1.00  0.00    -0.259 NA
HETATM    6  C4  UNL     1      21.105  -0.268  53.135  1.00  0.00     0.069 A 
HETATM    7  C5  UNL     1      21.388  -0.978  54.291  1.00  0.00     0.035 A 
HETATM    8  C6  UNL     1      22.710  -1.115  54.663  1.00  0.00     0.031 A 
HETATM    9  C7  UNL     1      23.753  -0.572  53.931  1.00  0.00     0.029 A 
HETATM   10  C15 UNL     1      23.458   0.136  52.775  1.00  0.00     0.045 A 
HETATM   11  C16 UNL     1      22.136   0.273  52.404  1.00  0.00     0.023 A 
HETATM   12  C17 UNL     1      21.921   0.995  51.237  1.00  0.00     0.067 A 
ENDROOT
BRANCH  12  13
HETATM   13  N4  UNL     1      22.892   1.585  50.418  1.00  0.00    -0.354 N 
HETATM   14  H15 UNL     1      23.164   0.925  49.658  1.00  0.00     0.166 HD
BRANCH  13  15
HETATM   15  C18 UNL     1      23.449   2.886  50.568  1.00  0.00     0.034 A 
HETATM   16  C19 UNL     1      22.852   3.737  51.473  1.00  0.00     0.032 A 
HETATM   17  C20 UNL     1      23.438   4.983  51.572  1.00  0.00     0.046 A 
HETATM   18  C21 UNL     1      24.541   5.341  50.814  1.00  0.00     0.138 A 
HETATM   19  F1  UNL     1      25.135   6.572  50.898  1.00  0.00    -0.204 F 
HETATM   20  C22 UNL     1      25.100   4.449  49.919  1.00  0.00     0.074 A 
HETATM   21 CL1  UNL     1      26.495   4.838  48.932  1.00  0.00    -0.081 Cl
HETATM   22  C23 UNL     1      24.546   3.190  49.788  1.00  0.00     0.056 A 
ENDBRANCH  13  15
ENDBRANCH  12  13
BRANCH   9  23
HETATM   23  N3  UNL     1      25.110  -0.734  54.345  1.00  0.00    -0.389 N 
HETATM   24  H4  UNL     1      25.296  -0.940  55.351  1.00  0.00     0.159 HD
BRANCH  23  25
HETATM   25  C8  UNL     1      26.175  -0.606  53.366  1.00  0.00     0.129 C 
BRANCH  25  26
HETATM   26  C9  UNL     1      27.346   0.199  53.886  1.00  0.00     0.040 C 
HETATM   27  C10 UNL     1      27.396   1.543  53.150  1.00  0.00     0.037 C 
HETATM   28  C11 UNL     1      28.479   2.369  53.828  1.00  0.00     0.168 C 
HETATM   29  O1  UNL     1      29.510   1.571  54.290  1.00  0.00    -0.387 OA
HETATM   30  C12 UNL     1      29.797   0.493  53.476  1.00  0.00     0.206 C 
HETATM   31  C13 UNL     1      28.642  -0.457  53.571  1.00  0.00     0.004 C 
BRANCH  31  32
HETATM   32  C14 UNL     1      28.802  -1.724  53.387  1.00  0.00     0.226 C 
HETATM   33  O2  UNL     1      28.626  -2.950  53.399  1.00  0.00    -0.284 OA
ENDBRANCH  31  32
ENDBRANCH  25  26
ENDBRANCH  23  25
ENDBRANCH   9  23
TORSDOF 6
ENDMDL
MODEL 3
REMARK VINA RESULT:      -9.4      3.730      6.603
REMARK  6 active torsions:
REMARK  status: ('A' for Active; 'I' for Inactive)
REMARK    1  A    between atoms: C7_9  and  N3_10 
REMARK    2  A    between atoms: N3_10  and  C8_11 
REMARK    3  A    between atoms: C8_11  and  C9_12 
REMARK    4  A    between atoms: C13_17  and  C14_18 
REMARK    5  A    between atoms: C17_22  and  N4_23 
REMARK    6  A    between atoms: N4_23  and  C18_24 
ROOT
HETATM    1  N1  UNL     1      18.404   2.168  49.433  1.00  0.00    -0.191 NA
HETATM    2  C1  UNL     1      18.960   1.603  50.281  1.00  0.00     0.103 C 
HETATM    3  C2  UNL     1      19.638   0.899  51.342  1.00  0.00     0.089 A 
HETATM    4  C3  UNL     1      18.834   0.177  52.199  1.00  0.00     0.142 A 
HETATM    5  N2  UNL     1      19.401  -0.509  53.222  1.00  0.00    -0.259 NA
HETATM    6  C4  UNL     1      20.739  -0.502  53.418  1.00  0.00     0.069 A 
HETATM    7  C5  UNL     1      21.320  -1.204  54.462  1.00  0.00     0.035 A 
HETATM    8  C6  UNL     1      22.693  -1.147  54.598  1.00  0.00     0.031 A 
HETATM    9  C7  UNL     1      23.500  -0.422  53.738  1.00  0.00     0.029 A 
HETATM   10  C15 UNL     1      22.907   0.276  52.696  1.00  0.00     0.045 A 
HETATM   11  C16 UNL     1      21.534   0.220  52.561  1.00  0.00     0.023 A 
HETATM   12  C17 UNL     1      21.015   0.943  51.496  1.00  0.00     0.067 A 
ENDROOT
BRANCH  12  13
HETATM   13  N4  UNL     1      21.730   1.709  50.566  1.00  0.00    -0.354 N 
HETATM   14  H15 UNL     1      21.848   1.171  49.679  1.00  0.00     0.166 HD
BRANCH  13  15
HETATM   15  C18 UNL     1      22.238   3.024  50.762  1.00  0.00     0.034 A 
HETATM   16  C19 UNL     1      21.745   3.747  51.827  1.00  0.00     0.032 A 
HETATM   17  C20 UNL     1      22.277   5.014  51.963  1.00  0.00     0.046 A 
HETATM   18  C21 UNL     1      23.232   5.510  51.091  1.00  0.00     0.138 A 
HETATM   19  F1  UNL     1      23.770   6.764  51.210  1.00  0.00    -0.204 F 
HETATM   20  C22 UNL     1      23.692   4.742  50.038  1.00  0.00     0.074 A 
HETATM   21 CL1  UNL     1      24.898   5.310  48.900  1.00  0.00    -0.081 Cl
HETATM   22  C23 UNL     1      23.187   3.468  49.863  1.00  0.00     0.056 A 
ENDBRANCH  13  15
ENDBRANCH  12  13
BRANCH   9  23
HETATM   23  N3  UNL     1      24.918  -0.386  53.908  1.00  0.00    -0.389 N 
HETATM   24  H4  UNL     1      25.299  -0.461  54.876  1.00  0.00     0.159 HD
BRANCH  23  25
HETATM   25  C8  UNL     1      25.773  -0.247  52.742  1.00  0.00     0.129 C 
BRANCH  25  26
HETATM   26  C9  UNL     1      27.181   0.174  53.104  1.00  0.00     0.040 C 
HETATM   27  C10 UNL     1      27.336   0.146  54.630  1.00  0.00     0.037 C 
HETATM   28  C11 UNL     1      28.804   0.412  54.922  1.00  0.00     0.168 C 
HETATM   29  O1  UNL     1      29.360   1.269  53.988  1.00  0.00    -0.387 OA
HETATM   30  C12 UNL     1      28.500   2.254  53.546  1.00  0.00     0.206 C 
HETATM   31  C13 UNL     1      27.443   1.586  52.720  1.00  0.00     0.004 C 
BRANCH  31  32
HETATM   32  C14 UNL     1      26.840   2.216  51.770  1.00  0.00     0.226 C 
HETATM   33  O2  UNL     1      26.618   2.921  50.775  1.00  0.00    -0.284 OA
ENDBRANCH  31  32
ENDBRANCH  25  26
ENDBRANCH  23  25
ENDBRANCH   9  23
TORSDOF 6
ENDMDL
MODEL 4
REMARK VINA RESULT:      -9.4      1.441      2.302
REMARK  6 active torsions:
REMARK  status: ('A' for Active; 'I' for Inactive)
REMARK    1  A    between atoms: C7_9  and  N3_10 
REMARK    2  A    between atoms: N3_10  and  C8_11 
REMARK    3  A    between atoms: C8_11  and  C9_12 
REMARK    4  A    between atoms: C13_17  and  C14_18 
REMARK    5  A    between atoms: C17_22  and  N4_23 
REMARK    6  A    between atoms: N4_23  and  C18_24 
ROOT
HETATM    1  N1  UNL     1      22.679  -0.902  54.510  1.00  0.00    -0.191 NA
HETATM    2  C1  UNL     1      22.805  -0.185  53.606  1.00  0.00     0.103 C 
HETATM    3  C2  UNL     1      22.952   0.697  52.475  1.00  0.00     0.089 A 
HETATM    4  C3  UNL     1      21.981   0.598  51.499  1.00  0.00     0.142 A 
HETATM    5  N2  UNL     1      22.055   1.395  50.405  1.00  0.00    -0.259 NA
HETATM    6  C4  UNL     1      23.059   2.288  50.251  1.00  0.00     0.069 A 
HETATM    7  C5  UNL     1      23.136   3.104  49.133  1.00  0.00     0.035 A 
HETATM    8  C6  UNL     1      24.192   3.990  49.047  1.00  0.00     0.031 A 
HETATM    9  C7  UNL     1      25.166   4.089  50.026  1.00  0.00     0.029 A 
HETATM   10  C15 UNL     1      25.079   3.267  51.139  1.00  0.00     0.045 A 
HETATM   11  C16 UNL     1      24.023   2.381  51.226  1.00  0.00     0.023 A 
HETATM   12  C17 UNL     1      24.005   1.593  52.368  1.00  0.00     0.067 A 
ENDROOT
BRANCH  12  13
HETATM   13  N4  UNL     1      24.931   1.606  53.419  1.00  0.00    -0.354 N 
HETATM   14  H15 UNL     1      24.531   2.113  54.239  1.00  0.00     0.166 HD
BRANCH  13  15
HETATM   15  C18 UNL     1      26.232   1.029  53.410  1.00  0.00     0.034 A 
HETATM   16  C19 UNL     1      27.297   1.848  53.720  1.00  0.00     0.032 A 
HETATM   17  C20 UNL     1      28.531   1.230  53.693  1.00  0.00     0.046 A 
HETATM   18  C21 UNL     1      28.677  -0.111  53.378  1.00  0.00     0.138 A 
HETATM   19  F1  UNL     1      29.892  -0.741  53.347  1.00  0.00    -0.204 F 
HETATM   20  C22 UNL     1      27.575  -0.888  53.075  1.00  0.00     0.074 A 
HETATM   21 CL1  UNL     1      27.690  -2.589  52.669  1.00  0.00    -0.081 Cl
HETATM   22  C23 UNL     1      26.319  -0.310  53.089  1.00  0.00     0.056 A 
ENDBRANCH  13  15
ENDBRANCH  12  13
BRANCH   9  23
HETATM   23  N3  UNL     1      26.245   5.017  49.903  1.00  0.00    -0.389 N 
HETATM   24  H4  UNL     1      27.130   4.813  50.418  1.00  0.00     0.159 HD
BRANCH  23  25
HETATM   25  C8  UNL     1      26.078   6.201  49.078  1.00  0.00     0.129 C 
BRANCH  25  26
HETATM   26  C9  UNL     1      27.350   6.589  48.358  1.00  0.00     0.040 C 
HETATM   27  C10 UNL     1      28.399   5.490  48.567  1.00  0.00     0.037 C 
HETATM   28  C11 UNL     1      29.587   5.850  47.688  1.00  0.00     0.168 C 
HETATM   29  O1  UNL     1      29.745   7.221  47.587  1.00  0.00    -0.387 OA
HETATM   30  C12 UNL     1      29.439   7.911  48.744  1.00  0.00     0.206 C 
HETATM   31  C13 UNL     1      27.957   7.813  48.943  1.00  0.00     0.004 C 
BRANCH  31  32
HETATM   32  C14 UNL     1      27.306   8.731  49.573  1.00  0.00     0.226 C 
HETATM   33  O2  UNL     1      26.983   9.588  50.407  1.00  0.00    -0.284 OA
ENDBRANCH  31  32
ENDBRANCH  25  26
ENDBRANCH  23  25
ENDBRANCH   9  23
TORSDOF 6
ENDMDL
MODEL 5
REMARK VINA RESULT:      -9.3      3.457      6.619
REMARK  6 active torsions:
REMARK  status: ('A' for Active; 'I' for Inactive)
REMARK    1  A    between atoms: C7_9  and  N3_10 
REMARK    2  A    between atoms: N3_10  and  C8_11 
REMARK    3  A    between atoms: C8_11  and  C9_12 
REMARK    4  A    between atoms: C13_17  and  C14_18 
REMARK    5  A    between atoms: C17_22  and  N4_23 
REMARK    6  A    between atoms: N4_23  and  C18_24 
ROOT
HETATM    1  N1  UNL     1      21.774   6.461  49.402  1.00  0.00    -0.191 NA
HETATM    2  C1  UNL     1      21.782   5.389  49.847  1.00  0.00     0.103 C 
HETATM    3  C2  UNL     1      21.777   4.056  50.398  1.00  0.00     0.089 A 
HETATM    4  C3  UNL     1      20.648   3.303  50.150  1.00  0.00     0.142 A 
HETATM    5  N2  UNL     1      20.571   2.040  50.637  1.00  0.00    -0.259 NA
HETATM    6  C4  UNL     1      21.580   1.502  51.361  1.00  0.00     0.069 A 
HETATM    7  C5  UNL     1      21.504   0.212  51.860  1.00  0.00     0.035 A 
HETATM    8  C6  UNL     1      22.574  -0.266  52.590  1.00  0.00     0.031 A 
HETATM    9  C7  UNL     1      23.706   0.490  52.839  1.00  0.00     0.029 A 
HETATM   10  C15 UNL     1      23.771   1.780  52.335  1.00  0.00     0.045 A 
HETATM   11  C16 UNL     1      22.702   2.259  51.605  1.00  0.00     0.023 A 
HETATM   12  C17 UNL     1      22.840   3.557  51.134  1.00  0.00     0.067 A 
ENDROOT
BRANCH  12  13
HETATM   13  N4  UNL     1      23.934   4.412  51.322  1.00  0.00    -0.354 N 
HETATM   14  H15 UNL     1      23.815   4.951  52.208  1.00  0.00     0.166 HD
BRANCH  13  15
HETATM   15  C18 UNL     1      25.057   4.554  50.460  1.00  0.00     0.034 A 
HETATM   16  C19 UNL     1      25.775   3.418  50.153  1.00  0.00     0.032 A 
HETATM   17  C20 UNL     1      26.852   3.623  49.313  1.00  0.00     0.046 A 
HETATM   18  C21 UNL     1      27.176   4.877  48.822  1.00  0.00     0.138 A 
HETATM   19  F1  UNL     1      28.240   5.098  47.988  1.00  0.00    -0.204 F 
HETATM   20  C22 UNL     1      26.422   5.983  49.162  1.00  0.00     0.074 A 
HETATM   21 CL1  UNL     1      26.779   7.596  48.576  1.00  0.00    -0.081 Cl
HETATM   22  C23 UNL     1      25.335   5.826  50.001  1.00  0.00     0.056 A 
ENDBRANCH  13  15
ENDBRANCH  12  13
BRANCH   9  23
HETATM   23  N3  UNL     1      24.795  -0.038  53.599  1.00  0.00    -0.389 N 
HETATM   24  H4  UNL     1      24.645  -0.213  54.616  1.00  0.00     0.159 HD
BRANCH  23  25
HETATM   25  C8  UNL     1      26.061  -0.307  52.939  1.00  0.00     0.129 C 
BRANCH  25  26
HETATM   26  C9  UNL     1      27.228   0.363  53.631  1.00  0.00     0.040 C 
HETATM   27  C10 UNL     1      27.508   1.709  52.950  1.00  0.00     0.037 C 
HETATM   28  C11 UNL     1      28.570   2.406  53.787  1.00  0.00     0.168 C 
HETATM   29  O1  UNL     1      29.447   1.497  54.352  1.00  0.00    -0.387 OA
HETATM   30  C12 UNL     1      29.728   0.410  53.548  1.00  0.00     0.206 C 
HETATM   31  C13 UNL     1      28.482  -0.417  53.464  1.00  0.00     0.004 C 
BRANCH  31  32
HETATM   32  C14 UNL     1      28.538  -1.690  53.262  1.00  0.00     0.226 C 
HETATM   33  O2  UNL     1      28.230  -2.887  53.186  1.00  0.00    -0.284 OA
ENDBRANCH  31  32
ENDBRANCH  25  26
ENDBRANCH  23  25
ENDBRANCH   9  23
TORSDOF 6
ENDMDL
MODEL 6
REMARK VINA RESULT:      -9.3      1.313      2.189
REMARK  6 active torsions:
REMARK  status: ('A' for Active; 'I' for Inactive)
REMARK    1  A    between atoms: C7_9  and  N3_10 
REMARK    2  A    between atoms: N3_10  and  C8_11 
REMARK    3  A    between atoms: C8_11  and  C9_12 
REMARK    4  A    between atoms: C13_17  and  C14_18 
REMARK    5  A    between atoms: C17_22  and  N4_23 
REMARK    6  A    between atoms: N4_23  and  C18_24 
ROOT
HETATM    1  N1  UNL     1      22.793  -1.697  55.610  1.00  0.00    -0.191 NA
HETATM    2  C1  UNL     1      22.651  -1.076  54.640  1.00  0.00     0.103 C 
HETATM    3  C2  UNL     1      22.464  -0.313  53.430  1.00  0.00     0.089 A 
HETATM    4  C3  UNL     1      21.314  -0.583  52.716  1.00  0.00     0.142 A 
HETATM    5  N2  UNL     1      21.071   0.094  51.567  1.00  0.00    -0.259 NA
HETATM    6  C4  UNL     1      21.932   1.030  51.106  1.00  0.00     0.069 A 
HETATM    7  C5  UNL     1      21.685   1.724  49.932  1.00  0.00     0.035 A 
HETATM    8  C6  UNL     1      22.611   2.664  49.526  1.00  0.00     0.031 A 
HETATM    9  C7  UNL     1      23.765   2.934  50.242  1.00  0.00     0.029 A 
HETATM   10  C15 UNL     1      24.002   2.234  51.416  1.00  0.00     0.045 A 
HETATM   11  C16 UNL     1      23.076   1.294  51.821  1.00  0.00     0.023 A 
HETATM   12  C17 UNL     1      23.381   0.634  53.004  1.00  0.00     0.067 A 
ENDROOT
BRANCH  12  13
HETATM   13  N4  UNL     1      24.512   0.824  53.809  1.00  0.00    -0.354 N 
HETATM   14  H15 UNL     1      24.270   1.426  54.626  1.00  0.00     0.166 HD
BRANCH  13  15
HETATM   15  C18 UNL     1      25.813   0.294  53.581  1.00  0.00     0.034 A 
HETATM   16  C19 UNL     1      25.905  -0.917  52.930  1.00  0.00     0.032 A 
HETATM   17  C20 UNL     1      27.192  -1.378  52.740  1.00  0.00     0.046 A 
HETATM   18  C21 UNL     1      28.300  -0.669  53.174  1.00  0.00     0.138 A 
HETATM   19  F1  UNL     1      29.584  -1.110  52.995  1.00  0.00    -0.204 F 
HETATM   20  C22 UNL     1      28.152   0.542  53.824  1.00  0.00     0.074 A 
HETATM   21 CL1  UNL     1      29.511   1.488  54.398  1.00  0.00    -0.081 Cl
HETATM   22  C23 UNL     1      26.881   1.041  54.036  1.00  0.00     0.056 A 
ENDBRANCH  13  15
ENDBRANCH  12  13
BRANCH   9  23
HETATM   23  N3  UNL     1      24.702   3.914  49.792  1.00  0.00    -0.389 N 
HETATM   24  H4  UNL     1      25.678   3.865  50.157  1.00  0.00     0.159 HD
BRANCH  23  25
HETATM   25  C8  UNL     1      24.271   4.936  48.854  1.00  0.00     0.129 C 
BRANCH  25  26
HETATM   26  C9  UNL     1      25.304   6.026  48.670  1.00  0.00     0.040 C 
HETATM   27  C10 UNL     1      26.704   5.420  48.828  1.00  0.00     0.037 C 
HETATM   28  C11 UNL     1      27.695   6.517  48.467  1.00  0.00     0.168 C 
HETATM   29  O1  UNL     1      27.221   7.766  48.828  1.00  0.00    -0.387 OA
HETATM   30  C12 UNL     1      26.496   7.776  50.003  1.00  0.00     0.206 C 
HETATM   31  C13 UNL     1      25.210   7.053  49.740  1.00  0.00     0.004 C 
BRANCH  31  32
HETATM   32  C14 UNL     1      24.140   7.329  50.406  1.00  0.00     0.226 C 
HETATM   33  O2  UNL     1      23.121   7.899  50.817  1.00  0.00    -0.284 OA
ENDBRANCH  31  32
ENDBRANCH  25  26
ENDBRANCH  23  25
ENDBRANCH   9  23
TORSDOF 6
ENDMDL
MODEL 7
REMARK VINA RESULT:      -8.8      3.651      6.792
REMARK  6 active torsions:
REMARK  status: ('A' for Active; 'I' for Inactive)
REMARK    1  A    between atoms: C7_9  and  N3_10 
REMARK    2  A    between atoms: N3_10  and  C8_11 
REMARK    3  A    between atoms: C8_11  and  C9_12 
REMARK    4  A    between atoms: C13_17  and  C14_18 
REMARK    5  A    between atoms: C17_22  and  N4_23 
REMARK    6  A    between atoms: N4_23  and  C18_24 
ROOT
HETATM    1  N1  UNL     1      19.263   3.196  47.325  1.00  0.00    -0.191 NA
HETATM    2  C1  UNL     1      20.296   3.651  47.596  1.00  0.00     0.103 C 
HETATM    3  C2  UNL     1      21.578   4.228  47.922  1.00  0.00     0.089 A 
HETATM    4  C3  UNL     1      21.828   5.481  47.403  1.00  0.00     0.142 A 
HETATM    5  N2  UNL     1      23.012   6.085  47.665  1.00  0.00    -0.259 NA
HETATM    6  C4  UNL     1      23.955   5.485  48.428  1.00  0.00     0.069 A 
HETATM    7  C5  UNL     1      25.166   6.101  48.699  1.00  0.00     0.035 A 
HETATM    8  C6  UNL     1      26.078   5.424  49.485  1.00  0.00     0.031 A 
HETATM    9  C7  UNL     1      25.827   4.166  50.005  1.00  0.00     0.029 A 
HETATM   10  C15 UNL     1      24.611   3.559  49.728  1.00  0.00     0.045 A 
HETATM   11  C16 UNL     1      23.700   4.236  48.942  1.00  0.00     0.023 A 
HETATM   12  C17 UNL     1      22.507   3.565  48.708  1.00  0.00     0.067 A 
ENDROOT
BRANCH  12  13
HETATM   13  N4  UNL     1      22.144   2.297  49.181  1.00  0.00    -0.354 N 
HETATM   14  H15 UNL     1      22.223   1.596  48.412  1.00  0.00     0.166 HD
BRANCH  13  15
HETATM   15  C18 UNL     1      21.726   1.972  50.502  1.00  0.00     0.034 A 
HETATM   16  C19 UNL     1      20.818   2.814  51.109  1.00  0.00     0.032 A 
HETATM   17  C20 UNL     1      20.453   2.445  52.389  1.00  0.00     0.046 A 
HETATM   18  C21 UNL     1      20.964   1.315  53.005  1.00  0.00     0.138 A 
HETATM   19  F1  UNL     1      20.613   0.934  54.273  1.00  0.00    -0.204 F 
HETATM   20  C22 UNL     1      21.873   0.505  52.350  1.00  0.00     0.074 A 
HETATM   21 CL1  UNL     1      22.557  -0.938  53.072  1.00  0.00    -0.081 Cl
HETATM   22  C23 UNL     1      22.268   0.836  51.067  1.00  0.00     0.056 A 
ENDBRANCH  13  15
ENDBRANCH  12  13
BRANCH   9  23
HETATM   23  N3  UNL     1      26.794   3.495  50.816  1.00  0.00    -0.389 N 
HETATM   24  H4  UNL     1      27.612   4.043  51.159  1.00  0.00     0.159 HD
BRANCH  23  25
HETATM   25  C8  UNL     1      26.608   2.089  51.131  1.00  0.00     0.129 C 
BRANCH  25  26
HETATM   26  C9  UNL     1      27.044   1.750  52.539  1.00  0.00     0.040 C 
HETATM   27  C10 UNL     1      27.572   0.310  52.567  1.00  0.00     0.037 C 
HETATM   28  C11 UNL     1      28.147   0.085  53.957  1.00  0.00     0.168 C 
HETATM   29  O1  UNL     1      27.444   0.793  54.917  1.00  0.00    -0.387 OA
HETATM   30  C12 UNL     1      26.086   0.871  54.677  1.00  0.00     0.206 C 
HETATM   31  C13 UNL     1      25.894   1.753  53.482  1.00  0.00     0.004 C 
BRANCH  31  32
HETATM   32  C14 UNL     1      24.812   2.437  53.322  1.00  0.00     0.226 C 
HETATM   33  O2  UNL     1      24.017   3.381  53.224  1.00  0.00    -0.284 OA
ENDBRANCH  31  32
ENDBRANCH  25  26
ENDBRANCH  23  25
ENDBRANCH   9  23
TORSDOF 6
ENDMDL
MODEL 8
REMARK VINA RESULT:      -8.8      4.206      7.414
REMARK  6 active torsions:
REMARK  status: ('A' for Active; 'I' for Inactive)
REMARK    1  A    between atoms: C7_9  and  N3_10 
REMARK    2  A    between atoms: N3_10  and  C8_11 
REMARK    3  A    between atoms: C8_11  and  C9_12 
REMARK    4  A    between atoms: C13_17  and  C14_18 
REMARK    5  A    between atoms: C17_22  and  N4_23 
REMARK    6  A    between atoms: N4_23  and  C18_24 
ROOT
HETATM    1  N1  UNL     1      27.171   2.033  51.541  1.00  0.00    -0.191 NA
HETATM    2  C1  UNL     1      26.310   1.466  52.074  1.00  0.00     0.103 C 
HETATM    3  C2  UNL     1      25.248   0.753  52.742  1.00  0.00     0.089 A 
HETATM    4  C3  UNL     1      25.628  -0.038  53.807  1.00  0.00     0.142 A 
HETATM    5  N2  UNL     1      24.685  -0.739  54.483  1.00  0.00    -0.259 NA
HETATM    6  C4  UNL     1      23.379  -0.677  54.137  1.00  0.00     0.069 A 
HETATM    7  C5  UNL     1      22.413  -1.392  54.827  1.00  0.00     0.035 A 
HETATM    8  C6  UNL     1      21.101  -1.278  54.413  1.00  0.00     0.031 A 
HETATM    9  C7  UNL     1      20.720  -0.484  53.344  1.00  0.00     0.029 A 
HETATM   10  C15 UNL     1      21.695   0.227  52.661  1.00  0.00     0.045 A 
HETATM   11  C16 UNL     1      23.007   0.113  53.075  1.00  0.00     0.023 A 
HETATM   12  C17 UNL     1      23.925   0.854  52.343  1.00  0.00     0.067 A 
ENDROOT
BRANCH  12  13
HETATM   13  N4  UNL     1      23.657   1.687  51.249  1.00  0.00    -0.354 N 
HETATM   14  H15 UNL     1      23.495   1.111  50.394  1.00  0.00     0.166 HD
BRANCH  13  15
HETATM   15  C18 UNL     1      23.606   3.109  51.260  1.00  0.00     0.034 A 
HETATM   16  C19 UNL     1      23.068   3.721  52.373  1.00  0.00     0.032 A 
HETATM   17  C20 UNL     1      23.046   5.100  52.322  1.00  0.00     0.046 A 
HETATM   18  C21 UNL     1      23.529   5.806  51.232  1.00  0.00     0.138 A 
HETATM   19  F1  UNL     1      23.515   7.174  51.164  1.00  0.00    -0.204 F 
HETATM   20  C22 UNL     1      24.057   5.143  50.141  1.00  0.00     0.074 A 
HETATM   21 CL1  UNL     1      24.684   5.975  48.731  1.00  0.00    -0.081 Cl
HETATM   22  C23 UNL     1      24.099   3.761  50.148  1.00  0.00     0.056 A 
ENDBRANCH  13  15
ENDBRANCH  12  13
BRANCH   9  23
HETATM   23  N3  UNL     1      19.352  -0.390  52.944  1.00  0.00    -0.389 N 
HETATM   24  H4  UNL     1      18.617  -0.621  53.647  1.00  0.00     0.159 HD
BRANCH  23  25
HETATM   25  C8  UNL     1      19.032   0.018  51.587  1.00  0.00     0.129 C 
BRANCH  25  26
HETATM   26  C9  UNL     1      18.876   1.518  51.455  1.00  0.00     0.040 C 
HETATM   27  C10 UNL     1      17.383   1.862  51.394  1.00  0.00     0.037 C 
HETATM   28  C11 UNL     1      17.286   3.380  51.434  1.00  0.00     0.168 C 
HETATM   29  O1  UNL     1      18.362   3.973  50.796  1.00  0.00    -0.387 OA
HETATM   30  C12 UNL     1      18.808   3.284  49.685  1.00  0.00     0.206 C 
HETATM   31  C13 UNL     1      19.435   2.013  50.170  1.00  0.00     0.004 C 
BRANCH  31  32
HETATM   32  C14 UNL     1      20.374   1.433  49.501  1.00  0.00     0.226 C 
HETATM   33  O2  UNL     1      21.483   1.016  49.145  1.00  0.00    -0.284 OA
ENDBRANCH  31  32
ENDBRANCH  25  26
ENDBRANCH  23  25
ENDBRANCH   9  23
TORSDOF 6
ENDMDL
MODEL 9
REMARK VINA RESULT:      -8.8      4.293      7.028
REMARK  6 active torsions:
REMARK  status: ('A' for Active; 'I' for Inactive)
REMARK    1  A    between atoms: C7_9  and  N3_10 
REMARK    2  A    between atoms: N3_10  and  C8_11 
REMARK    3  A    between atoms: C8_11  and  C9_12 
REMARK    4  A    between atoms: C13_17  and  C14_18 
REMARK    5  A    between atoms: C17_22  and  N4_23 
REMARK    6  A    between atoms: N4_23  and  C18_24 
ROOT
HETATM    1  N1  UNL     1      17.671   2.674  48.677  1.00  0.00    -0.191 NA
HETATM    2  C1  UNL     1      18.818   2.805  48.798  1.00  0.00     0.103 C 
HETATM    3  C2  UNL     1      20.245   2.966  48.935  1.00  0.00     0.089 A 
HETATM    4  C3  UNL     1      20.949   3.149  47.763  1.00  0.00     0.142 A 
HETATM    5  N2  UNL     1      22.294   3.306  47.813  1.00  0.00    -0.259 NA
HETATM    6  C4  UNL     1      22.962   3.288  48.989  1.00  0.00     0.069 A 
HETATM    7  C5  UNL     1      24.337   3.449  49.043  1.00  0.00     0.035 A 
HETATM    8  C6  UNL     1      24.947   3.418  50.281  1.00  0.00     0.031 A 
HETATM    9  C7  UNL     1      24.241   3.233  51.458  1.00  0.00     0.029 A 
HETATM   10  C15 UNL     1      22.865   3.073  51.392  1.00  0.00     0.045 A 
HETATM   11  C16 UNL     1      22.255   3.104  50.154  1.00  0.00     0.023 A 
HETATM   12  C17 UNL     1      20.877   2.937  50.169  1.00  0.00     0.067 A 
ENDROOT
BRANCH  12  13
HETATM   13  N4  UNL     1      20.061   2.744  51.292  1.00  0.00    -0.354 N 
HETATM   14  H15 UNL     1      19.642   3.653  51.586  1.00  0.00     0.166 HD
BRANCH  13  15
HETATM   15  C18 UNL     1      19.818   1.512  51.960  1.00  0.00     0.034 A 
HETATM   16  C19 UNL     1      18.731   0.768  51.552  1.00  0.00     0.032 A 
HETATM   17  C20 UNL     1      18.549  -0.416  52.239  1.00  0.00     0.046 A 
HETATM   18  C21 UNL     1      19.397  -0.815  53.259  1.00  0.00     0.138 A 
HETATM   19  F1  UNL     1      19.231  -1.984  53.952  1.00  0.00    -0.204 F 
HETATM   20  C22 UNL     1      20.471  -0.029  53.630  1.00  0.00     0.074 A 
HETATM   21 CL1  UNL     1      21.582  -0.476  54.911  1.00  0.00    -0.081 Cl
HETATM   22  C23 UNL     1      20.693   1.165  52.969  1.00  0.00     0.056 A 
ENDBRANCH  13  15
ENDBRANCH  12  13
BRANCH   9  23
HETATM   23  N3  UNL     1      24.905   3.207  52.722  1.00  0.00    -0.389 N 
HETATM   24  H4  UNL     1      25.193   4.116  53.145  1.00  0.00     0.159 HD
BRANCH  23  25
HETATM   25  C8  UNL     1      25.156   1.931  53.370  1.00  0.00     0.129 C 
BRANCH  25  26
HETATM   26  C9  UNL     1      26.504   1.886  54.057  1.00  0.00     0.040 C 
HETATM   27  C10 UNL     1      27.606   2.092  53.010  1.00  0.00     0.037 C 
HETATM   28  C11 UNL     1      28.916   2.206  53.775  1.00  0.00     0.168 C 
HETATM   29  O1  UNL     1      28.907   1.420  54.914  1.00  0.00    -0.387 OA
HETATM   30  C12 UNL     1      28.233   0.224  54.768  1.00  0.00     0.206 C 
HETATM   31  C13 UNL     1      26.776   0.546  54.639  1.00  0.00     0.004 C 
BRANCH  31  32
HETATM   32  C14 UNL     1      25.870  -0.294  55.011  1.00  0.00     0.226 C 
HETATM   33  O2  UNL     1      25.300  -1.257  55.541  1.00  0.00    -0.284 OA
ENDBRANCH  31  32
ENDBRANCH  25  26
ENDBRANCH  23  25
ENDBRANCH   9  23
TORSDOF 6
ENDMDL
