MODEL 1
REMARK VINA RESULT:      -8.2      0.000      0.000
REMARK  6 active torsions:
REMARK  status: ('A' for Active; 'I' for Inactive)
REMARK    1  A    between atoms: C1_2  and  C2_3 
REMARK       I    between atoms: C1_2  and  N1_10 
REMARK    2  A    between atoms: C2_3  and  C3_4 
REMARK    3  A    between atoms: N1_10  and  C9_11 
REMARK    4  A    between atoms: C12_14  and  N2_15 
REMARK    5  A    between atoms: N2_15  and  C13_16 
REMARK    6  A    between atoms: C16_20  and  C17_21 
ROOT
HETATM    1  C9  UNL     1      27.900   1.373  53.736  1.00  0.00     0.032 A 
HETATM    2  C10 UNL     1      29.134   1.012  53.805  1.00  0.00     0.003 A 
HETATM    3  C11 UNL     1      28.821  -0.140  54.633  1.00  0.00     0.061 A 
HETATM    4  C12 UNL     1      27.405   0.275  54.550  1.00  0.00     0.152 A 
ENDROOT
BRANCH   4   5
HETATM    5  N2  UNL     1      26.482  -0.630  53.864  1.00  0.00    -0.212 N 
HETATM    6  H13 UNL     1      26.840  -1.195  53.065  1.00  0.00     0.178 HD
BRANCH   5   7
HETATM    7  C13 UNL     1      25.125  -0.757  54.256  1.00  0.00     0.723 A 
HETATM    8  N3  UNL     1      24.698  -1.345  55.384  1.00  0.00    -0.075 NA
HETATM    9  C14 UNL     1      23.408  -1.454  55.737  1.00  0.00     0.139 A 
HETATM   10  C15 UNL     1      22.424  -0.943  54.916  1.00  0.00     0.053 A 
HETATM   11  C16 UNL     1      22.847  -0.335  53.752  1.00  0.00     0.094 A 
HETATM   12  N4  UNL     1      24.160  -0.269  53.476  1.00  0.00    -0.062 NA
BRANCH  11  13
HETATM   13  C17 UNL     1      21.945   0.274  52.744  1.00  0.00     0.034 A 
HETATM   14  C18 UNL     1      21.928   0.060  51.435  1.00  0.00     0.021 A 
HETATM   15  C19 UNL     1      21.052   0.681  50.617  1.00  0.00     0.008 A 
HETATM   16  C20 UNL     1      20.172   1.557  51.247  1.00  0.00     0.050 A 
HETATM   17  S1  UNL     1      20.672   1.438  53.059  1.00  0.00    -0.100 SA
ENDBRANCH  11  13
ENDBRANCH   5   7
ENDBRANCH   4   5
BRANCH   1  18
HETATM   18  N1  UNL     1      27.476   2.526  53.013  1.00  0.00    -0.329 N 
HETATM   19  C1  UNL     1      26.854   2.200  51.780  1.00  0.00     0.226 C 
HETATM   20  O1  UNL     1      26.699   1.004  51.376  1.00  0.00    -0.273 OA
HETATM   21  H8  UNL     1      27.540   3.543  53.225  1.00  0.00     0.168 HD
BRANCH  19  22
HETATM   22  C2  UNL     1      26.297   3.149  50.782  1.00  0.00     0.138 C 
BRANCH  22  23
HETATM   23  C3  UNL     1      24.814   3.023  50.865  1.00  0.00    -0.057 C 
HETATM   24  C4  UNL     1      23.892   2.841  49.960  1.00  0.00    -0.023 C 
HETATM   25  C5  UNL     1      22.989   3.774  49.784  1.00  0.00     0.012 C 
HETATM   26  C6  UNL     1      22.606   4.565  50.973  1.00  0.00    -0.003 C 
HETATM   27  C7  UNL     1      23.182   4.238  52.138  1.00  0.00    -0.022 C 
HETATM   28  C8  UNL     1      24.173   3.110  52.199  1.00  0.00     0.062 C 
ENDBRANCH  22  23
ENDBRANCH  19  22
ENDBRANCH   1  18
TORSDOF 6
ENDMDL
MODEL 2
REMARK VINA RESULT:      -7.7      4.431      8.408
REMARK  6 active torsions:
REMARK  status: ('A' for Active; 'I' for Inactive)
REMARK    1  A    between atoms: C1_2  and  C2_3 
REMARK       I    between atoms: C1_2  and  N1_10 
REMARK    2  A    between atoms: C2_3  and  C3_4 
REMARK    3  A    between atoms: N1_10  and  C9_11 
REMARK    4  A    between atoms: C12_14  and  N2_15 
REMARK    5  A    between atoms: N2_15  and  C13_16 
REMARK    6  A    between atoms: C16_20  and  C17_21 
ROOT
HETATM    1  C9  UNL     1      24.908   3.027  51.400  1.00  0.00     0.032 A 
HETATM    2  C10 UNL     1      23.956   2.255  51.008  1.00  0.00     0.003 A 
HETATM    3  C11 UNL     1      23.878   2.898  49.708  1.00  0.00     0.061 A 
HETATM    4  C12 UNL     1      24.974   3.782  50.160  1.00  0.00     0.152 A 
ENDROOT
BRANCH   4   5
HETATM    5  N2  UNL     1      26.249   3.683  49.448  1.00  0.00    -0.212 N 
HETATM    6  H13 UNL     1      26.676   2.742  49.320  1.00  0.00     0.178 HD
BRANCH   5   7
HETATM    7  C13 UNL     1      26.911   4.827  48.933  1.00  0.00     0.723 A 
HETATM    8  N3  UNL     1      26.312   5.978  48.590  1.00  0.00    -0.075 NA
HETATM    9  C14 UNL     1      26.958   7.049  48.104  1.00  0.00     0.139 A 
HETATM   10  C15 UNL     1      28.326   7.008  47.930  1.00  0.00     0.053 A 
HETATM   11  C16 UNL     1      28.956   5.831  48.278  1.00  0.00     0.094 A 
HETATM   12  N4  UNL     1      28.232   4.806  48.758  1.00  0.00    -0.062 NA
BRANCH  11  13
HETATM   13  C17 UNL     1      30.416   5.592  48.165  1.00  0.00     0.034 A 
HETATM   14  C18 UNL     1      31.035   4.683  47.424  1.00  0.00     0.021 A 
HETATM   15  C19 UNL     1      32.379   4.563  47.407  1.00  0.00     0.008 A 
HETATM   16  C20 UNL     1      33.063   5.462  48.221  1.00  0.00     0.050 A 
HETATM   17  S1  UNL     1      31.680   6.474  49.001  1.00  0.00    -0.100 SA
ENDBRANCH  11  13
ENDBRANCH   5   7
ENDBRANCH   4   5
BRANCH   1  18
HETATM   18  N1  UNL     1      25.499   2.923  52.693  1.00  0.00    -0.329 N 
HETATM   19  C1  UNL     1      26.802   2.363  52.655  1.00  0.00     0.226 C 
HETATM   20  O1  UNL     1      27.369   1.997  51.577  1.00  0.00    -0.273 OA
HETATM   21  H8  UNL     1      25.152   3.179  53.640  1.00  0.00     0.168 HD
BRANCH  19  22
HETATM   22  C2  UNL     1      27.701   2.111  53.811  1.00  0.00     0.138 C 
BRANCH  22  23
HETATM   23  C3  UNL     1      27.671   0.641  54.055  1.00  0.00    -0.057 C 
HETATM   24  C4  UNL     1      28.595  -0.280  54.017  1.00  0.00    -0.023 C 
HETATM   25  C5  UNL     1      28.487  -1.245  53.137  1.00  0.00     0.012 C 
HETATM   26  C6  UNL     1      27.118  -1.663  52.771  1.00  0.00    -0.003 C 
HETATM   27  C7  UNL     1      26.102  -1.052  53.394  1.00  0.00    -0.022 C 
HETATM   28  C8  UNL     1      26.378   0.013  54.418  1.00  0.00     0.062 C 
ENDBRANCH  22  23
ENDBRANCH  19  22
ENDBRANCH   1  18
TORSDOF 6
ENDMDL
MODEL 3
REMARK VINA RESULT:      -7.3      2.371      6.178
REMARK  6 active torsions:
REMARK  status: ('A' for Active; 'I' for Inactive)
REMARK    1  A    between atoms: C1_2  and  C2_3 
REMARK       I    between atoms: C1_2  and  N1_10 
REMARK    2  A    between atoms: C2_3  and  C3_4 
REMARK    3  A    between atoms: N1_10  and  C9_11 
REMARK    4  A    between atoms: C12_14  and  N2_15 
REMARK    5  A    between atoms: N2_15  and  C13_16 
REMARK    6  A    between atoms: C16_20  and  C17_21 
ROOT
HETATM    1  C9  UNL     1      22.893  -0.243  53.504  1.00  0.00     0.032 A 
HETATM    2  C10 UNL     1      22.417  -0.710  54.605  1.00  0.00     0.003 A 
HETATM    3  C11 UNL     1      21.215   0.098  54.508  1.00  0.00     0.061 A 
HETATM    4  C12 UNL     1      21.761   0.631  53.243  1.00  0.00     0.152 A 
ENDROOT
BRANCH   4   5
HETATM    5  N2  UNL     1      21.023   0.329  52.016  1.00  0.00    -0.212 N 
HETATM    6  H13 UNL     1      20.313  -0.432  52.036  1.00  0.00     0.178 HD
BRANCH   5   7
HETATM    7  C13 UNL     1      21.248   1.042  50.810  1.00  0.00     0.723 A 
HETATM    8  N3  UNL     1      20.473   0.974  49.716  1.00  0.00    -0.075 NA
HETATM    9  C14 UNL     1      20.704   1.658  48.585  1.00  0.00     0.139 A 
HETATM   10  C15 UNL     1      21.797   2.496  48.497  1.00  0.00     0.053 A 
HETATM   11  C16 UNL     1      22.603   2.576  49.614  1.00  0.00     0.094 A 
HETATM   12  N4  UNL     1      22.299   1.856  50.707  1.00  0.00    -0.062 NA
BRANCH  11  13
HETATM   13  C17 UNL     1      23.820   3.419  49.715  1.00  0.00     0.034 A 
HETATM   14  C18 UNL     1      25.086   3.027  49.657  1.00  0.00     0.021 A 
HETATM   15  C19 UNL     1      26.112   3.897  49.764  1.00  0.00     0.008 A 
HETATM   16  C20 UNL     1      25.745   5.228  49.939  1.00  0.00     0.050 A 
HETATM   17  S1  UNL     1      23.862   5.157  49.941  1.00  0.00    -0.100 SA
ENDBRANCH  11  13
ENDBRANCH   5   7
ENDBRANCH   4   5
BRANCH   1  18
HETATM   18  N1  UNL     1      24.151  -0.651  52.975  1.00  0.00    -0.329 N 
HETATM   19  C1  UNL     1      25.031   0.439  52.752  1.00  0.00     0.226 C 
HETATM   20  O1  UNL     1      24.717   1.646  53.002  1.00  0.00    -0.273 OA
HETATM   21  H8  UNL     1      24.532  -1.588  52.727  1.00  0.00     0.168 HD
BRANCH  19  22
HETATM   22  C2  UNL     1      26.413   0.377  52.211  1.00  0.00     0.138 C 
BRANCH  22  23
HETATM   23  C3  UNL     1      27.238  -0.311  53.244  1.00  0.00    -0.057 C 
HETATM   24  C4  UNL     1      27.739   0.086  54.382  1.00  0.00    -0.023 C 
HETATM   25  C5  UNL     1      29.041   0.107  54.524  1.00  0.00     0.012 C 
HETATM   26  C6  UNL     1      29.810  -0.913  53.781  1.00  0.00    -0.003 C 
HETATM   27  C7  UNL     1      29.113  -1.798  53.055  1.00  0.00    -0.022 C 
HETATM   28  C8  UNL     1      27.613  -1.728  53.019  1.00  0.00     0.062 C 
ENDBRANCH  22  23
ENDBRANCH  19  22
ENDBRANCH   1  18
TORSDOF 6
ENDMDL
MODEL 4
REMARK VINA RESULT:      -7.2      5.424      9.348
REMARK  6 active torsions:
REMARK  status: ('A' for Active; 'I' for Inactive)
REMARK    1  A    between atoms: C1_2  and  C2_3 
REMARK       I    between atoms: C1_2  and  N1_10 
REMARK    2  A    between atoms: C2_3  and  C3_4 
REMARK    3  A    between atoms: N1_10  and  C9_11 
REMARK    4  A    between atoms: C12_14  and  N2_15 
REMARK    5  A    between atoms: N2_15  and  C13_16 
REMARK    6  A    between atoms: C16_20  and  C17_21 
ROOT
HETATM    1  C9  UNL     1      25.629   4.833  50.038  1.00  0.00     0.032 A 
HETATM    2  C10 UNL     1      24.620   5.253  49.358  1.00  0.00     0.003 A 
HETATM    3  C11 UNL     1      25.421   6.230  48.643  1.00  0.00     0.061 A 
HETATM    4  C12 UNL     1      26.579   5.745  49.422  1.00  0.00     0.152 A 
ENDROOT
BRANCH   4   5
HETATM    5  N2  UNL     1      27.660   5.095  48.680  1.00  0.00    -0.212 N 
HETATM    6  H13 UNL     1      27.557   4.090  48.427  1.00  0.00     0.178 HD
BRANCH   5   7
HETATM    7  C13 UNL     1      28.833   5.795  48.297  1.00  0.00     0.723 A 
HETATM    8  N3  UNL     1      28.900   7.112  48.044  1.00  0.00    -0.075 NA
HETATM    9  C14 UNL     1      30.022   7.755  47.683  1.00  0.00     0.139 A 
HETATM   10  C15 UNL     1      31.204   7.056  47.554  1.00  0.00     0.053 A 
HETATM   11  C16 UNL     1      31.151   5.702  47.811  1.00  0.00     0.094 A 
HETATM   12  N4  UNL     1      29.985   5.137  48.167  1.00  0.00    -0.062 NA
BRANCH  11  13
HETATM   13  C17 UNL     1      32.313   4.782  47.726  1.00  0.00     0.034 A 
HETATM   14  C18 UNL     1      32.317   3.513  47.342  1.00  0.00     0.021 A 
HETATM   15  C19 UNL     1      33.447   2.776  47.308  1.00  0.00     0.008 A 
HETATM   16  C20 UNL     1      34.602   3.445  47.705  1.00  0.00     0.050 A 
HETATM   17  S1  UNL     1      33.976   5.172  48.122  1.00  0.00    -0.100 SA
ENDBRANCH  11  13
ENDBRANCH   5   7
ENDBRANCH   4   5
BRANCH   1  18
HETATM   18  N1  UNL     1      25.525   3.793  51.006  1.00  0.00    -0.329 N 
HETATM   19  C1  UNL     1      26.248   2.629  50.639  1.00  0.00     0.226 C 
HETATM   20  O1  UNL     1      26.914   2.538  49.558  1.00  0.00    -0.273 OA
HETATM   21  H8  UNL     1      25.022   3.736  51.916  1.00  0.00     0.168 HD
BRANCH  19  22
HETATM   22  C2  UNL     1      26.357   1.364  51.409  1.00  0.00     0.138 C 
BRANCH  22  23
HETATM   23  C3  UNL     1      26.959   1.723  52.724  1.00  0.00    -0.057 C 
HETATM   24  C4  UNL     1      28.093   2.278  53.054  1.00  0.00    -0.023 C 
HETATM   25  C5  UNL     1      28.948   1.589  53.769  1.00  0.00     0.012 C 
HETATM   26  C6  UNL     1      28.385   0.613  54.725  1.00  0.00    -0.003 C 
HETATM   27  C7  UNL     1      27.050   0.539  54.811  1.00  0.00    -0.022 C 
HETATM   28  C8  UNL     1      26.189   1.427  53.957  1.00  0.00     0.062 C 
ENDBRANCH  22  23
ENDBRANCH  19  22
ENDBRANCH   1  18
TORSDOF 6
ENDMDL
MODEL 5
REMARK VINA RESULT:      -7.2      2.889      5.412
REMARK  6 active torsions:
REMARK  status: ('A' for Active; 'I' for Inactive)
REMARK    1  A    between atoms: C1_2  and  C2_3 
REMARK       I    between atoms: C1_2  and  N1_10 
REMARK    2  A    between atoms: C2_3  and  C3_4 
REMARK    3  A    between atoms: N1_10  and  C9_11 
REMARK    4  A    between atoms: C12_14  and  N2_15 
REMARK    5  A    between atoms: N2_15  and  C13_16 
REMARK    6  A    between atoms: C16_20  and  C17_21 
ROOT
HETATM    1  C9  UNL     1      22.651   2.196  49.327  1.00  0.00     0.032 A 
HETATM    2  C10 UNL     1      21.719   2.392  48.462  1.00  0.00     0.003 A 
HETATM    3  C11 UNL     1      20.871   1.365  49.041  1.00  0.00     0.061 A 
HETATM    4  C12 UNL     1      21.942   1.144  50.036  1.00  0.00     0.152 A 
ENDROOT
BRANCH   4   5
HETATM    5  N2  UNL     1      21.629   1.447  51.432  1.00  0.00    -0.212 N 
HETATM    6  H13 UNL     1      21.054   2.289  51.643  1.00  0.00     0.178 HD
BRANCH   5   7
HETATM    7  C13 UNL     1      22.086   0.629  52.498  1.00  0.00     0.723 A 
HETATM    8  N3  UNL     1      21.297   0.001  53.384  1.00  0.00    -0.075 NA
HETATM    9  C14 UNL     1      21.750  -0.769  54.385  1.00  0.00     0.139 A 
HETATM   10  C15 UNL     1      23.107  -0.954  54.551  1.00  0.00     0.053 A 
HETATM   11  C16 UNL     1      23.931  -0.314  53.649  1.00  0.00     0.094 A 
HETATM   12  N4  UNL     1      23.394   0.439  52.675  1.00  0.00    -0.062 NA
BRANCH  11  13
HETATM   13  C17 UNL     1      25.414  -0.390  53.661  1.00  0.00     0.034 A 
HETATM   14  C18 UNL     1      26.204  -0.979  52.774  1.00  0.00     0.021 A 
HETATM   15  C19 UNL     1      27.548  -0.979  52.898  1.00  0.00     0.008 A 
HETATM   16  C20 UNL     1      28.039  -0.318  54.020  1.00  0.00     0.050 A 
HETATM   17  S1  UNL     1      26.477   0.296  54.875  1.00  0.00    -0.100 SA
ENDBRANCH  11  13
ENDBRANCH   5   7
ENDBRANCH   4   5
BRANCH   1  18
HETATM   18  N1  UNL     1      23.869   2.937  49.327  1.00  0.00    -0.329 N 
HETATM   19  C1  UNL     1      23.916   3.911  50.357  1.00  0.00     0.226 C 
HETATM   20  O1  UNL     1      22.967   4.094  51.184  1.00  0.00    -0.273 OA
HETATM   21  H8  UNL     1      24.712   2.890  48.718  1.00  0.00     0.168 HD
BRANCH  19  22
HETATM   22  C2  UNL     1      25.028   4.854  50.645  1.00  0.00     0.138 C 
BRANCH  22  23
HETATM   23  C3  UNL     1      25.777   5.025  49.368  1.00  0.00    -0.057 C 
HETATM   24  C4  UNL     1      26.819   4.420  48.867  1.00  0.00    -0.023 C 
HETATM   25  C5  UNL     1      27.909   5.114  48.654  1.00  0.00     0.012 C 
HETATM   26  C6  UNL     1      27.734   6.538  48.298  1.00  0.00    -0.003 C 
HETATM   27  C7  UNL     1      26.478   6.992  48.184  1.00  0.00    -0.022 C 
HETATM   28  C8  UNL     1      25.318   6.065  48.416  1.00  0.00     0.062 C 
ENDBRANCH  22  23
ENDBRANCH  19  22
ENDBRANCH   1  18
TORSDOF 6
ENDMDL
MODEL 6
REMARK VINA RESULT:      -7.1      2.459      4.837
REMARK  6 active torsions:
REMARK  status: ('A' for Active; 'I' for Inactive)
REMARK    1  A    between atoms: C1_2  and  C2_3 
REMARK       I    between atoms: C1_2  and  N1_10 
REMARK    2  A    between atoms: C2_3  and  C3_4 
REMARK    3  A    between atoms: N1_10  and  C9_11 
REMARK    4  A    between atoms: C12_14  and  N2_15 
REMARK    5  A    between atoms: N2_15  and  C13_16 
REMARK    6  A    between atoms: C16_20  and  C17_21 
ROOT
HETATM    1  C9  UNL     1      24.587   2.217  50.963  1.00  0.00     0.032 A 
HETATM    2  C10 UNL     1      24.474   3.149  50.082  1.00  0.00     0.003 A 
HETATM    3  C11 UNL     1      23.056   2.897  49.898  1.00  0.00     0.061 A 
HETATM    4  C12 UNL     1      23.187   1.829  50.912  1.00  0.00     0.152 A 
ENDROOT
BRANCH   4   5
HETATM    5  N2  UNL     1      22.455   2.006  52.166  1.00  0.00    -0.212 N 
HETATM    6  H13 UNL     1      22.336   2.970  52.543  1.00  0.00     0.178 HD
BRANCH   5   7
HETATM    7  C13 UNL     1      21.907   0.907  52.877  1.00  0.00     0.723 A 
HETATM    8  N3  UNL     1      22.545   0.205  53.827  1.00  0.00    -0.075 NA
HETATM    9  C14 UNL     1      22.008  -0.832  54.488  1.00  0.00     0.139 A 
HETATM   10  C15 UNL     1      20.719  -1.236  54.204  1.00  0.00     0.053 A 
HETATM   11  C16 UNL     1      20.051  -0.525  53.229  1.00  0.00     0.094 A 
HETATM   12  N4  UNL     1      20.664   0.501  52.616  1.00  0.00    -0.062 NA
BRANCH  11  13
HETATM   13  C17 UNL     1      18.663  -0.806  52.784  1.00  0.00     0.034 A 
HETATM   14  C18 UNL     1      17.973  -0.184  51.838  1.00  0.00     0.021 A 
HETATM   15  C19 UNL     1      16.708  -0.534  51.523  1.00  0.00     0.008 A 
HETATM   16  C20 UNL     1      16.186  -1.592  52.263  1.00  0.00     0.050 A 
HETATM   17  S1  UNL     1      17.601  -2.047  53.420  1.00  0.00    -0.100 SA
ENDBRANCH  11  13
ENDBRANCH   5   7
ENDBRANCH   4   5
BRANCH   1  18
HETATM   18  N1  UNL     1      25.822   1.909  51.603  1.00  0.00    -0.329 N 
HETATM   19  C1  UNL     1      25.855   2.326  52.959  1.00  0.00     0.226 C 
HETATM   20  O1  UNL     1      24.879   2.910  53.529  1.00  0.00    -0.273 OA
HETATM   21  H8  UNL     1      26.687   1.443  51.259  1.00  0.00     0.168 HD
BRANCH  19  22
HETATM   22  C2  UNL     1      26.979   2.165  53.917  1.00  0.00     0.138 C 
BRANCH  22  23
HETATM   23  C3  UNL     1      27.178   0.699  54.089  1.00  0.00    -0.057 C 
HETATM   24  C4  UNL     1      28.229  -0.069  53.983  1.00  0.00    -0.023 C 
HETATM   25  C5  UNL     1      28.239  -0.998  53.060  1.00  0.00     0.012 C 
HETATM   26  C6  UNL     1      26.938  -1.604  52.708  1.00  0.00    -0.003 C 
HETATM   27  C7  UNL     1      25.862  -1.182  53.386  1.00  0.00    -0.022 C 
HETATM   28  C8  UNL     1      26.007  -0.134  54.454  1.00  0.00     0.062 C 
ENDBRANCH  22  23
ENDBRANCH  19  22
ENDBRANCH   1  18
TORSDOF 6
ENDMDL
MODEL 7
REMARK VINA RESULT:      -7.0      2.457      6.226
REMARK  6 active torsions:
REMARK  status: ('A' for Active; 'I' for Inactive)
REMARK    1  A    between atoms: C1_2  and  C2_3 
REMARK       I    between atoms: C1_2  and  N1_10 
REMARK    2  A    between atoms: C2_3  and  C3_4 
REMARK    3  A    between atoms: N1_10  and  C9_11 
REMARK    4  A    between atoms: C12_14  and  N2_15 
REMARK    5  A    between atoms: N2_15  and  C13_16 
REMARK    6  A    between atoms: C16_20  and  C17_21 
ROOT
HETATM    1  C9  UNL     1      22.931  -0.491  53.846  1.00  0.00     0.032 A 
HETATM    2  C10 UNL     1      22.292  -1.223  54.690  1.00  0.00     0.003 A 
HETATM    3  C11 UNL     1      21.148  -0.330  54.703  1.00  0.00     0.061 A 
HETATM    4  C12 UNL     1      21.882   0.509  53.732  1.00  0.00     0.152 A 
ENDROOT
BRANCH   4   5
HETATM    5  N2  UNL     1      21.305   0.643  52.394  1.00  0.00    -0.212 N 
HETATM    6  H13 UNL     1      21.367  -0.167  51.741  1.00  0.00     0.178 HD
BRANCH   5   7
HETATM    7  C13 UNL     1      20.669   1.837  51.968  1.00  0.00     0.723 A 
HETATM    8  N3  UNL     1      19.353   1.973  51.739  1.00  0.00    -0.075 NA
HETATM    9  C14 UNL     1      18.771   3.113  51.336  1.00  0.00     0.139 A 
HETATM   10  C15 UNL     1      19.538   4.242  51.131  1.00  0.00     0.053 A 
HETATM   11  C16 UNL     1      20.892   4.118  51.362  1.00  0.00     0.094 A 
HETATM   12  N4  UNL     1      21.393   2.938  51.764  1.00  0.00    -0.062 NA
BRANCH  11  13
HETATM   13  C17 UNL     1      21.878   5.214  51.198  1.00  0.00     0.034 A 
HETATM   14  C18 UNL     1      21.638   6.485  50.904  1.00  0.00     0.021 A 
HETATM   15  C19 UNL     1      22.629   7.393  50.780  1.00  0.00     0.008 A 
HETATM   16  C20 UNL     1      23.914   6.899  50.985  1.00  0.00     0.050 A 
HETATM   17  S1  UNL     1      23.619   5.077  51.360  1.00  0.00    -0.100 SA
ENDBRANCH  11  13
ENDBRANCH   5   7
ENDBRANCH   4   5
BRANCH   1  18
HETATM   18  N1  UNL     1      24.232  -0.824  53.369  1.00  0.00    -0.329 N 
HETATM   19  C1  UNL     1      24.927   0.297  52.848  1.00  0.00     0.226 C 
HETATM   20  O1  UNL     1      24.431   1.469  52.818  1.00  0.00    -0.273 OA
HETATM   21  H8  UNL     1      24.752  -1.726  53.334  1.00  0.00     0.168 HD
BRANCH  19  22
HETATM   22  C2  UNL     1      26.296   0.312  52.270  1.00  0.00     0.138 C 
BRANCH  22  23
HETATM   23  C3  UNL     1      27.191  -0.297  53.295  1.00  0.00    -0.057 C 
HETATM   24  C4  UNL     1      27.648   0.137  54.438  1.00  0.00    -0.023 C 
HETATM   25  C5  UNL     1      28.941   0.295  54.581  1.00  0.00     0.012 C 
HETATM   26  C6  UNL     1      29.813  -0.627  53.824  1.00  0.00    -0.003 C 
HETATM   27  C7  UNL     1      29.215  -1.572  53.087  1.00  0.00    -0.022 C 
HETATM   28  C8  UNL     1      27.715  -1.662  53.051  1.00  0.00     0.062 C 
ENDBRANCH  22  23
ENDBRANCH  19  22
ENDBRANCH   1  18
TORSDOF 6
ENDMDL
MODEL 8
REMARK VINA RESULT:      -7.0      3.785      6.169
REMARK  6 active torsions:
REMARK  status: ('A' for Active; 'I' for Inactive)
REMARK    1  A    between atoms: C1_2  and  C2_3 
REMARK       I    between atoms: C1_2  and  N1_10 
REMARK    2  A    between atoms: C2_3  and  C3_4 
REMARK    3  A    between atoms: N1_10  and  C9_11 
REMARK    4  A    between atoms: C12_14  and  N2_15 
REMARK    5  A    between atoms: N2_15  and  C13_16 
REMARK    6  A    between atoms: C16_20  and  C17_21 
ROOT
HETATM    1  C9  UNL     1      24.397   5.625  50.963  1.00  0.00     0.032 A 
HETATM    2  C10 UNL     1      23.467   6.512  51.044  1.00  0.00     0.003 A 
HETATM    3  C11 UNL     1      22.518   5.565  51.600  1.00  0.00     0.061 A 
HETATM    4  C12 UNL     1      23.587   4.548  51.509  1.00  0.00     0.152 A 
ENDROOT
BRANCH   4   5
HETATM    5  N2  UNL     1      24.081   3.984  52.765  1.00  0.00    -0.212 N 
HETATM    6  H13 UNL     1      24.327   4.634  53.541  1.00  0.00     0.178 HD
BRANCH   5   7
HETATM    7  C13 UNL     1      24.234   2.586  52.951  1.00  0.00     0.723 A 
HETATM    8  N3  UNL     1      23.227   1.701  53.018  1.00  0.00    -0.075 NA
HETATM    9  C14 UNL     1      23.394   0.381  53.194  1.00  0.00     0.139 A 
HETATM   10  C15 UNL     1      24.665  -0.142  53.319  1.00  0.00     0.053 A 
HETATM   11  C16 UNL     1      25.709   0.755  53.252  1.00  0.00     0.094 A 
HETATM   12  N4  UNL     1      25.454   2.062  53.074  1.00  0.00    -0.062 NA
BRANCH  11  13
HETATM   13  C17 UNL     1      27.143   0.389  53.364  1.00  0.00     0.034 A 
HETATM   14  C18 UNL     1      27.684  -0.818  53.257  1.00  0.00     0.021 A 
HETATM   15  C19 UNL     1      29.012  -1.023  53.380  1.00  0.00     0.008 A 
HETATM   16  C20 UNL     1      29.768   0.120  53.626  1.00  0.00     0.050 A 
HETATM   17  S1  UNL     1      28.474   1.489  53.669  1.00  0.00    -0.100 SA
ENDBRANCH  11  13
ENDBRANCH   5   7
ENDBRANCH   4   5
BRANCH   1  18
HETATM   18  N1  UNL     1      25.697   5.916  50.457  1.00  0.00    -0.329 N 
HETATM   19  C1  UNL     1      26.069   5.067  49.384  1.00  0.00     0.226 C 
HETATM   20  O1  UNL     1      25.313   4.148  48.931  1.00  0.00    -0.273 OA
HETATM   21  H8  UNL     1      26.407   6.626  50.730  1.00  0.00     0.168 HD
BRANCH  19  22
HETATM   22  C2  UNL     1      27.346   5.091  48.626  1.00  0.00     0.138 C 
BRANCH  22  23
HETATM   23  C3  UNL     1      27.602   6.517  48.277  1.00  0.00    -0.057 C 
HETATM   24  C4  UNL     1      26.814   7.491  47.911  1.00  0.00    -0.023 C 
HETATM   25  C5  UNL     1      26.974   8.018  46.723  1.00  0.00     0.012 C 
HETATM   26  C6  UNL     1      28.349   8.037  46.180  1.00  0.00    -0.003 C 
HETATM   27  C7  UNL     1      29.323   7.552  46.962  1.00  0.00    -0.022 C 
HETATM   28  C8  UNL     1      28.997   7.016  48.328  1.00  0.00     0.062 C 
ENDBRANCH  22  23
ENDBRANCH  19  22
ENDBRANCH   1  18
TORSDOF 6
ENDMDL
MODEL 9
REMARK VINA RESULT:      -7.0      3.313      7.082
REMARK  6 active torsions:
REMARK  status: ('A' for Active; 'I' for Inactive)
REMARK    1  A    between atoms: C1_2  and  C2_3 
REMARK       I    between atoms: C1_2  and  N1_10 
REMARK    2  A    between atoms: C2_3  and  C3_4 
REMARK    3  A    between atoms: N1_10  and  C9_11 
REMARK    4  A    between atoms: C12_14  and  N2_15 
REMARK    5  A    between atoms: N2_15  and  C13_16 
REMARK    6  A    between atoms: C16_20  and  C17_21 
ROOT
HETATM    1  C9  UNL     1      23.475   1.770  52.934  1.00  0.00     0.032 A 
HETATM    2  C10 UNL     1      22.724   0.728  53.011  1.00  0.00     0.003 A 
HETATM    3  C11 UNL     1      21.587   1.419  52.431  1.00  0.00     0.061 A 
HETATM    4  C12 UNL     1      22.451   2.615  52.341  1.00  0.00     0.152 A 
ENDROOT
BRANCH   4   5
HETATM    5  N2  UNL     1      22.767   3.113  51.002  1.00  0.00    -0.212 N 
HETATM    6  H13 UNL     1      22.695   2.457  50.196  1.00  0.00     0.178 HD
BRANCH   5   7
HETATM    7  C13 UNL     1      23.164   4.457  50.776  1.00  0.00     0.723 A 
HETATM    8  N3  UNL     1      22.438   5.541  51.091  1.00  0.00    -0.075 NA
HETATM    9  C14 UNL     1      22.833   6.804  50.868  1.00  0.00     0.139 A 
HETATM   10  C15 UNL     1      24.056   7.049  50.279  1.00  0.00     0.053 A 
HETATM   11  C16 UNL     1      24.813   5.944  49.949  1.00  0.00     0.094 A 
HETATM   12  N4  UNL     1      24.342   4.713  50.208  1.00  0.00    -0.062 NA
BRANCH  11  13
HETATM   13  C17 UNL     1      26.152   6.001  49.311  1.00  0.00     0.034 A 
HETATM   14  C18 UNL     1      26.935   4.984  48.975  1.00  0.00     0.021 A 
HETATM   15  C19 UNL     1      28.141   5.167  48.397  1.00  0.00     0.008 A 
HETATM   16  C20 UNL     1      28.499   6.495  48.180  1.00  0.00     0.050 A 
HETATM   17  S1  UNL     1      27.020   7.452  48.848  1.00  0.00    -0.100 SA
ENDBRANCH  11  13
ENDBRANCH   5   7
ENDBRANCH   4   5
BRANCH   1  18
HETATM   18  N1  UNL     1      24.831   1.776  53.372  1.00  0.00    -0.329 N 
HETATM   19  C1  UNL     1      25.752   1.650  52.301  1.00  0.00     0.226 C 
HETATM   20  O1  UNL     1      25.393   1.545  51.085  1.00  0.00    -0.273 OA
HETATM   21  H8  UNL     1      25.257   1.854  54.319  1.00  0.00     0.168 HD
BRANCH  19  22
HETATM   22  C2  UNL     1      27.234   1.619  52.395  1.00  0.00     0.138 C 
BRANCH  22  23
HETATM   23  C3  UNL     1      27.577   0.458  53.264  1.00  0.00    -0.057 C 
HETATM   24  C4  UNL     1      28.400   0.317  54.268  1.00  0.00    -0.023 C 
HETATM   25  C5  UNL     1      29.403  -0.516  54.147  1.00  0.00     0.012 C 
HETATM   26  C6  UNL     1      29.185  -1.705  53.297  1.00  0.00    -0.003 C 
HETATM   27  C7  UNL     1      27.970  -1.854  52.752  1.00  0.00    -0.022 C 
HETATM   28  C8  UNL     1      26.896  -0.835  53.013  1.00  0.00     0.062 C 
ENDBRANCH  22  23
ENDBRANCH  19  22
ENDBRANCH   1  18
TORSDOF 6
ENDMDL
