MODEL 1
REMARK VINA RESULT:      -7.8      0.000      0.000
REMARK  8 active torsions:
REMARK  status: ('A' for Active; 'I' for Inactive)
REMARK    1  A    between atoms: C2_2  and  N1_3 
REMARK    2  A    between atoms: C5_7  and  N3_8 
REMARK    3  A    between atoms: N3_8  and  C6_9 
REMARK    4  A    between atoms: C10_13  and  C11_14 
REMARK    5  A    between atoms: C13_20  and  N5_21 
REMARK    6  A    between atoms: N5_21  and  C14_22 
REMARK    7  A    between atoms: C14_22  and  C15_23 
REMARK    8  A    between atoms: C15_23  and  N6_24 
ROOT
HETATM    1  N1  UNL     1      25.771   3.462  50.356  1.00  0.00    -0.324 N 
HETATM    2  C3  UNL     1      24.511   3.066  50.138  1.00  0.00     0.212 A 
HETATM    3  N2  UNL     1      24.255   1.994  50.899  1.00  0.00    -0.236 NA
HETATM    4  C4  UNL     1      25.324   1.674  51.616  1.00  0.00     0.151 A 
HETATM    5  C5  UNL     1      25.532   0.670  52.529  1.00  0.00     0.180 A 
HETATM    6  N4  UNL     1      26.764   0.671  53.065  1.00  0.00    -0.043 NA
HETATM    7  C13 UNL     1      27.712   1.565  52.745  1.00  0.00     0.726 A 
HETATM    8  N7  UNL     1      27.480   2.528  51.855  1.00  0.00    -0.042 NA
HETATM    9  C16 UNL     1      26.280   2.613  51.262  1.00  0.00     0.182 A 
ENDROOT
BRANCH   5  10
HETATM   10  N3  UNL     1      24.637  -0.316  52.924  1.00  0.00    -0.338 N 
HETATM   11  H7  UNL     1      24.988  -1.321  52.945  1.00  0.00     0.167 HD
BRANCH  10  12
HETATM   12  C6  UNL     1      23.285  -0.358  53.332  1.00  0.00     0.034 A 
HETATM   13  C7  UNL     1      22.838  -0.756  54.572  1.00  0.00     0.029 A 
HETATM   14  C8  UNL     1      21.523  -0.833  54.978  1.00  0.00     0.003 A 
HETATM   15  C9  UNL     1      20.569  -0.483  54.066  1.00  0.00     0.016 A 
HETATM   16  C10 UNL     1      20.904  -0.070  52.796  1.00  0.00     0.050 A 
HETATM   17  C12 UNL     1      22.237  -0.023  52.474  1.00  0.00     0.045 A 
BRANCH  16  18
HETATM   18  C11 UNL     1      19.832   0.301  51.836  1.00  0.00     0.417 C 
HETATM   19  F1  UNL     1      20.335   0.374  50.556  1.00  0.00    -0.166 F 
HETATM   20  F2  UNL     1      19.334   1.573  52.130  1.00  0.00    -0.166 F 
HETATM   21  F3  UNL     1      18.774  -0.577  51.879  1.00  0.00    -0.166 F 
ENDBRANCH  16  18
ENDBRANCH  10  12
ENDBRANCH   5  10
BRANCH   7  22
HETATM   22  N5  UNL     1      28.981   1.418  53.416  1.00  0.00    -0.221 N 
HETATM   23  H12 UNL     1      29.807   2.029  53.254  1.00  0.00     0.177 HD
BRANCH  22  24
HETATM   24  C14 UNL     1      29.093   0.341  54.377  1.00  0.00     0.168 C 
BRANCH  24  25
HETATM   25  C15 UNL     1      29.807  -0.858  53.748  1.00  0.00     0.286 C 
BRANCH  25  26
HETATM   26  N6  UNL     1      28.810  -1.849  53.412  1.00  0.00     0.079 N 
HETATM   27  H17 UNL     1      27.905  -1.643  53.897  1.00  0.00     0.312 HD
HETATM   28  H18 UNL     1      29.122  -2.826  53.629  1.00  0.00     0.312 HD
ENDBRANCH  25  26
ENDBRANCH  24  25
ENDBRANCH  22  24
ENDBRANCH   7  22
BRANCH   1  29
HETATM   29  C2  UNL     1      26.431   4.592  49.722  1.00  0.00     0.127 C 
HETATM   30  C1  UNL     1      25.484   5.491  48.996  1.00  0.00     0.027 C 
ENDBRANCH   1  29
TORSDOF 8
ENDMDL
MODEL 2
REMARK VINA RESULT:      -7.8      4.323      7.067
REMARK  8 active torsions:
REMARK  status: ('A' for Active; 'I' for Inactive)
REMARK    1  A    between atoms: C2_2  and  N1_3 
REMARK    2  A    between atoms: C5_7  and  N3_8 
REMARK    3  A    between atoms: N3_8  and  C6_9 
REMARK    4  A    between atoms: C10_13  and  C11_14 
REMARK    5  A    between atoms: C13_20  and  N5_21 
REMARK    6  A    between atoms: N5_21  and  C14_22 
REMARK    7  A    between atoms: C14_22  and  C15_23 
REMARK    8  A    between atoms: C15_23  and  N6_24 
ROOT
HETATM    1  N1  UNL     1      23.572   0.684  53.020  1.00  0.00    -0.324 N 
HETATM    2  C3  UNL     1      22.969   0.961  51.858  1.00  0.00     0.212 A 
HETATM    3  N2  UNL     1      23.850   1.560  51.045  1.00  0.00    -0.236 NA
HETATM    4  C4  UNL     1      25.024   1.684  51.650  1.00  0.00     0.151 A 
HETATM    5  C5  UNL     1      26.211   2.220  51.217  1.00  0.00     0.180 A 
HETATM    6  N4  UNL     1      27.198   2.156  52.127  1.00  0.00    -0.043 NA
HETATM    7  C13 UNL     1      27.049   1.622  53.348  1.00  0.00     0.726 A 
HETATM    8  N7  UNL     1      25.883   1.110  53.740  1.00  0.00    -0.042 NA
HETATM    9  C16 UNL     1      24.833   1.125  52.904  1.00  0.00     0.182 A 
ENDROOT
BRANCH   5  10
HETATM   10  N3  UNL     1      26.478   2.811  49.989  1.00  0.00    -0.338 N 
HETATM   11  H7  UNL     1      26.817   2.180  49.201  1.00  0.00     0.167 HD
BRANCH  10  12
HETATM   12  C6  UNL     1      26.425   4.119  49.457  1.00  0.00     0.034 A 
HETATM   13  C7  UNL     1      25.291   4.893  49.354  1.00  0.00     0.029 A 
HETATM   14  C8  UNL     1      25.214   6.157  48.811  1.00  0.00     0.003 A 
HETATM   15  C9  UNL     1      26.370   6.697  48.325  1.00  0.00     0.016 A 
HETATM   16  C10 UNL     1      27.562   6.010  48.377  1.00  0.00     0.050 A 
HETATM   17  C12 UNL     1      27.550   4.757  48.934  1.00  0.00     0.045 A 
BRANCH  16  18
HETATM   18  C11 UNL     1      28.796   6.638  47.836  1.00  0.00     0.417 C 
HETATM   19  F1  UNL     1      29.280   7.582  48.714  1.00  0.00    -0.166 F 
HETATM   20  F2  UNL     1      28.516   7.321  46.650  1.00  0.00    -0.166 F 
HETATM   21  F3  UNL     1      29.769   5.708  47.556  1.00  0.00    -0.166 F 
ENDBRANCH  16  18
ENDBRANCH  10  12
ENDBRANCH   5  10
BRANCH   7  22
HETATM   22  N5  UNL     1      28.213   1.638  54.200  1.00  0.00    -0.221 N 
HETATM   23  H12 UNL     1      28.751   2.493  54.447  1.00  0.00     0.177 HD
BRANCH  22  24
HETATM   24  C14 UNL     1      28.649   0.366  54.736  1.00  0.00     0.168 C 
BRANCH  24  25
HETATM   25  C15 UNL     1      29.447  -0.408  53.683  1.00  0.00     0.286 C 
BRANCH  25  26
HETATM   26  N6  UNL     1      28.863  -1.723  53.553  1.00  0.00     0.079 N 
HETATM   27  H17 UNL     1      28.597  -1.913  52.559  1.00  0.00     0.312 HD
HETATM   28  H18 UNL     1      28.035  -1.861  54.181  1.00  0.00     0.312 HD
ENDBRANCH  25  26
ENDBRANCH  24  25
ENDBRANCH  22  24
ENDBRANCH   7  22
BRANCH   1  29
HETATM   29  C2  UNL     1      22.955   0.034  54.165  1.00  0.00     0.127 C 
HETATM   30  C1  UNL     1      21.877  -0.927  53.782  1.00  0.00     0.027 C 
ENDBRANCH   1  29
TORSDOF 8
ENDMDL
MODEL 3
REMARK VINA RESULT:      -7.7      1.266      4.309
REMARK  8 active torsions:
REMARK  status: ('A' for Active; 'I' for Inactive)
REMARK    1  A    between atoms: C2_2  and  N1_3 
REMARK    2  A    between atoms: C5_7  and  N3_8 
REMARK    3  A    between atoms: N3_8  and  C6_9 
REMARK    4  A    between atoms: C10_13  and  C11_14 
REMARK    5  A    between atoms: C13_20  and  N5_21 
REMARK    6  A    between atoms: N5_21  and  C14_22 
REMARK    7  A    between atoms: C14_22  and  C15_23 
REMARK    8  A    between atoms: C15_23  and  N6_24 
ROOT
HETATM    1  N1  UNL     1      28.039   0.739  53.767  1.00  0.00    -0.324 N 
HETATM    2  C3  UNL     1      27.221   0.203  54.681  1.00  0.00     0.212 A 
HETATM    3  N2  UNL     1      25.967   0.604  54.429  1.00  0.00    -0.236 NA
HETATM    4  C4  UNL     1      25.944   1.398  53.367  1.00  0.00     0.151 A 
HETATM    5  C5  UNL     1      24.902   2.035  52.739  1.00  0.00     0.180 A 
HETATM    6  N4  UNL     1      25.275   2.756  51.668  1.00  0.00    -0.043 NA
HETATM    7  C13 UNL     1      26.543   2.853  51.243  1.00  0.00     0.726 A 
HETATM    8  N7  UNL     1      27.533   2.223  51.875  1.00  0.00    -0.042 NA
HETATM    9  C16 UNL     1      27.265   1.475  52.956  1.00  0.00     0.182 A 
ENDROOT
BRANCH   5  10
HETATM   10  N3  UNL     1      23.560   2.021  53.096  1.00  0.00    -0.338 N 
HETATM   11  H7  UNL     1      23.115   2.948  53.375  1.00  0.00     0.167 HD
BRANCH  10  12
HETATM   12  C6  UNL     1      22.546   1.043  53.205  1.00  0.00     0.034 A 
HETATM   13  C7  UNL     1      22.599  -0.074  54.007  1.00  0.00     0.029 A 
HETATM   14  C8  UNL     1      21.635  -1.054  54.103  1.00  0.00     0.003 A 
HETATM   15  C9  UNL     1      20.519  -0.907  53.330  1.00  0.00     0.016 A 
HETATM   16  C10 UNL     1      20.362   0.173  52.491  1.00  0.00     0.050 A 
HETATM   17  C12 UNL     1      21.371   1.103  52.456  1.00  0.00     0.045 A 
BRANCH  16  18
HETATM   18  C11 UNL     1      19.131   0.292  51.668  1.00  0.00     0.417 C 
HETATM   19  F1  UNL     1      18.340  -0.826  51.821  1.00  0.00    -0.166 F 
HETATM   20  F2  UNL     1      19.455   0.353  50.311  1.00  0.00    -0.166 F 
HETATM   21  F3  UNL     1      18.412   1.425  51.973  1.00  0.00    -0.166 F 
ENDBRANCH  16  18
ENDBRANCH  10  12
ENDBRANCH   5  10
BRANCH   7  22
HETATM   22  N5  UNL     1      26.766   3.673  50.077  1.00  0.00    -0.221 N 
HETATM   23  H12 UNL     1      27.558   3.551  49.414  1.00  0.00     0.177 HD
BRANCH  22  24
HETATM   24  C14 UNL     1      25.812   4.732  49.830  1.00  0.00     0.168 C 
BRANCH  24  25
HETATM   25  C15 UNL     1      26.448   5.832  48.975  1.00  0.00     0.286 C 
BRANCH  25  26
HETATM   26  N6  UNL     1      27.878   5.623  48.969  1.00  0.00     0.079 N 
HETATM   27  H17 UNL     1      28.277   5.823  48.022  1.00  0.00     0.312 HD
HETATM   28  H18 UNL     1      28.147   4.659  49.278  1.00  0.00     0.312 HD
ENDBRANCH  25  26
ENDBRANCH  24  25
ENDBRANCH  22  24
ENDBRANCH   7  22
BRANCH   1  29
HETATM   29  C2  UNL     1      29.478   0.545  53.694  1.00  0.00     0.127 C 
HETATM   30  C1  UNL     1      29.870  -0.894  53.596  1.00  0.00     0.027 C 
ENDBRANCH   1  29
TORSDOF 8
ENDMDL
MODEL 4
REMARK VINA RESULT:      -7.7      2.552      5.646
REMARK  8 active torsions:
REMARK  status: ('A' for Active; 'I' for Inactive)
REMARK    1  A    between atoms: C2_2  and  N1_3 
REMARK    2  A    between atoms: C5_7  and  N3_8 
REMARK    3  A    between atoms: N3_8  and  C6_9 
REMARK    4  A    between atoms: C10_13  and  C11_14 
REMARK    5  A    between atoms: C13_20  and  N5_21 
REMARK    6  A    between atoms: N5_21  and  C14_22 
REMARK    7  A    between atoms: C14_22  and  C15_23 
REMARK    8  A    between atoms: C15_23  and  N6_24 
ROOT
HETATM    1  N1  UNL     1      23.007  -0.093  53.676  1.00  0.00    -0.324 N 
HETATM    2  C3  UNL     1      22.453   0.538  52.633  1.00  0.00     0.212 A 
HETATM    3  N2  UNL     1      23.427   1.055  51.872  1.00  0.00    -0.236 NA
HETATM    4  C4  UNL     1      24.614   0.777  52.394  1.00  0.00     0.151 A 
HETATM    5  C5  UNL     1      25.882   1.088  51.969  1.00  0.00     0.180 A 
HETATM    6  N4  UNL     1      26.853   0.618  52.770  1.00  0.00    -0.043 NA
HETATM    7  C13 UNL     1      26.617  -0.090  53.885  1.00  0.00     0.726 A 
HETATM    8  N7  UNL     1      25.374  -0.375  54.272  1.00  0.00    -0.042 NA
HETATM    9  C16 UNL     1      24.334   0.049  53.539  1.00  0.00     0.182 A 
ENDROOT
BRANCH   5  10
HETATM   10  N3  UNL     1      26.245   1.824  50.848  1.00  0.00    -0.338 N 
HETATM   11  H7  UNL     1      26.841   1.338  50.112  1.00  0.00     0.167 HD
BRANCH  10  12
HETATM   12  C6  UNL     1      26.032   3.140  50.383  1.00  0.00     0.034 A 
HETATM   13  C7  UNL     1      26.793   3.784  49.433  1.00  0.00     0.029 A 
HETATM   14  C8  UNL     1      26.619   5.077  48.989  1.00  0.00     0.003 A 
HETATM   15  C9  UNL     1      25.595   5.792  49.541  1.00  0.00     0.016 A 
HETATM   16  C10 UNL     1      24.771   5.247  50.500  1.00  0.00     0.050 A 
HETATM   17  C12 UNL     1      25.014   3.952  50.885  1.00  0.00     0.045 A 
BRANCH  16  18
HETATM   18  C11 UNL     1      23.670   6.062  51.073  1.00  0.00     0.417 C 
HETATM   19  F1  UNL     1      22.605   6.116  50.199  1.00  0.00    -0.166 F 
HETATM   20  F2  UNL     1      24.086   7.384  51.256  1.00  0.00    -0.166 F 
HETATM   21  F3  UNL     1      23.255   5.587  52.295  1.00  0.00    -0.166 F 
ENDBRANCH  16  18
ENDBRANCH  10  12
ENDBRANCH   5  10
BRANCH   7  22
HETATM   22  N5  UNL     1      27.777  -0.516  54.630  1.00  0.00    -0.221 N 
HETATM   23  H12 UNL     1      27.753  -1.182  55.428  1.00  0.00     0.177 HD
BRANCH  22  24
HETATM   24  C14 UNL     1      29.053   0.034  54.224  1.00  0.00     0.168 C 
BRANCH  24  25
HETATM   25  C15 UNL     1      29.967  -1.077  53.700  1.00  0.00     0.286 C 
BRANCH  25  26
HETATM   26  N6  UNL     1      29.149  -2.232  53.411  1.00  0.00     0.079 N 
HETATM   27  H17 UNL     1      28.719  -2.610  54.287  1.00  0.00     0.312 HD
HETATM   28  H18 UNL     1      29.679  -2.988  52.914  1.00  0.00     0.312 HD
ENDBRANCH  25  26
ENDBRANCH  24  25
ENDBRANCH  22  24
ENDBRANCH   7  22
BRANCH   1  29
HETATM   29  C2  UNL     1      22.288  -0.785  54.732  1.00  0.00     0.127 C 
HETATM   30  C1  UNL     1      21.143  -1.601  54.224  1.00  0.00     0.027 C 
ENDBRANCH   1  29
TORSDOF 8
ENDMDL
MODEL 5
REMARK VINA RESULT:      -7.5      3.537      7.195
REMARK  8 active torsions:
REMARK  status: ('A' for Active; 'I' for Inactive)
REMARK    1  A    between atoms: C2_2  and  N1_3 
REMARK    2  A    between atoms: C5_7  and  N3_8 
REMARK    3  A    between atoms: N3_8  and  C6_9 
REMARK    4  A    between atoms: C10_13  and  C11_14 
REMARK    5  A    between atoms: C13_20  and  N5_21 
REMARK    6  A    between atoms: N5_21  and  C14_22 
REMARK    7  A    between atoms: C14_22  and  C15_23 
REMARK    8  A    between atoms: C15_23  and  N6_24 
ROOT
HETATM    1  N1  UNL     1      28.030   0.806  53.703  1.00  0.00    -0.324 N 
HETATM    2  C3  UNL     1      28.576   1.872  53.105  1.00  0.00     0.212 A 
HETATM    3  N2  UNL     1      27.644   2.471  52.350  1.00  0.00    -0.236 NA
HETATM    4  C4  UNL     1      26.493   1.818  52.439  1.00  0.00     0.151 A 
HETATM    5  C5  UNL     1      25.272   2.058  51.858  1.00  0.00     0.180 A 
HETATM    6  N4  UNL     1      24.325   1.168  52.200  1.00  0.00    -0.043 NA
HETATM    7  C13 UNL     1      24.541   0.136  53.030  1.00  0.00     0.726 A 
HETATM    8  N7  UNL     1      25.737  -0.070  53.578  1.00  0.00    -0.042 NA
HETATM    9  C16 UNL     1      26.751   0.763  53.300  1.00  0.00     0.182 A 
ENDROOT
BRANCH   5  10
HETATM   10  N3  UNL     1      24.938   3.077  50.976  1.00  0.00    -0.338 N 
HETATM   11  H7  UNL     1      23.905   3.224  50.761  1.00  0.00     0.167 HD
BRANCH  10  12
HETATM   12  C6  UNL     1      25.642   4.043  50.223  1.00  0.00     0.034 A 
HETATM   13  C7  UNL     1      26.703   3.782  49.385  1.00  0.00     0.029 A 
HETATM   14  C8  UNL     1      27.422   4.713  48.666  1.00  0.00     0.003 A 
HETATM   15  C9  UNL     1      27.051   6.021  48.797  1.00  0.00     0.016 A 
HETATM   16  C10 UNL     1      26.003   6.395  49.609  1.00  0.00     0.050 A 
HETATM   17  C12 UNL     1      25.341   5.404  50.289  1.00  0.00     0.045 A 
BRANCH  16  18
HETATM   18  C11 UNL     1      25.635   7.829  49.719  1.00  0.00     0.417 C 
HETATM   19  F1  UNL     1      24.390   7.964  50.293  1.00  0.00    -0.166 F 
HETATM   20  F2  UNL     1      25.541   8.408  48.451  1.00  0.00    -0.166 F 
HETATM   21  F3  UNL     1      26.566   8.549  50.432  1.00  0.00    -0.166 F 
ENDBRANCH  16  18
ENDBRANCH  10  12
ENDBRANCH   5  10
BRANCH   7  22
HETATM   22  N5  UNL     1      23.411  -0.724  53.287  1.00  0.00    -0.221 N 
HETATM   23  H12 UNL     1      23.484  -1.722  53.572  1.00  0.00     0.177 HD
BRANCH  22  24
HETATM   24  C14 UNL     1      22.096  -0.141  53.132  1.00  0.00     0.168 C 
BRANCH  24  25
HETATM   25  C15 UNL     1      21.330  -0.198  54.456  1.00  0.00     0.286 C 
BRANCH  25  26
HETATM   26  N6  UNL     1      20.059  -0.841  54.213  1.00  0.00     0.079 N 
HETATM   27  H17 UNL     1      19.892  -1.604  54.909  1.00  0.00     0.312 HD
HETATM   28  H18 UNL     1      19.977  -1.216  53.238  1.00  0.00     0.312 HD
ENDBRANCH  25  26
ENDBRANCH  24  25
ENDBRANCH  22  24
ENDBRANCH   7  22
BRANCH   1  29
HETATM   29  C2  UNL     1      28.713  -0.107  54.605  1.00  0.00     0.127 C 
HETATM   30  C1  UNL     1      29.747  -0.940  53.922  1.00  0.00     0.027 C 
ENDBRANCH   1  29
TORSDOF 8
ENDMDL
MODEL 6
REMARK VINA RESULT:      -7.4      4.259      6.651
REMARK  8 active torsions:
REMARK  status: ('A' for Active; 'I' for Inactive)
REMARK    1  A    between atoms: C2_2  and  N1_3 
REMARK    2  A    between atoms: C5_7  and  N3_8 
REMARK    3  A    between atoms: N3_8  and  C6_9 
REMARK    4  A    between atoms: C10_13  and  C11_14 
REMARK    5  A    between atoms: C13_20  and  N5_21 
REMARK    6  A    between atoms: N5_21  and  C14_22 
REMARK    7  A    between atoms: C14_22  and  C15_23 
REMARK    8  A    between atoms: C15_23  and  N6_24 
ROOT
HETATM    1  N1  UNL     1      26.780   5.813  49.078  1.00  0.00    -0.324 N 
HETATM    2  C3  UNL     1      27.475   4.704  48.800  1.00  0.00     0.212 A 
HETATM    3  N2  UNL     1      26.870   3.657  49.377  1.00  0.00    -0.236 NA
HETATM    4  C4  UNL     1      25.789   4.055  50.033  1.00  0.00     0.151 A 
HETATM    5  C5  UNL     1      24.863   3.349  50.761  1.00  0.00     0.180 A 
HETATM    6  N4  UNL     1      23.884   4.111  51.277  1.00  0.00    -0.043 NA
HETATM    7  C13 UNL     1      23.809   5.440  51.106  1.00  0.00     0.726 A 
HETATM    8  N7  UNL     1      24.724   6.097  50.395  1.00  0.00    -0.042 NA
HETATM    9  C16 UNL     1      25.743   5.426  49.836  1.00  0.00     0.182 A 
ENDROOT
BRANCH   5  10
HETATM   10  N3  UNL     1      24.847   1.984  51.018  1.00  0.00    -0.338 N 
HETATM   11  H7  UNL     1      24.395   1.351  50.290  1.00  0.00     0.167 HD
BRANCH  10  12
HETATM   12  C6  UNL     1      25.294   1.140  52.059  1.00  0.00     0.034 A 
HETATM   13  C7  UNL     1      24.481   0.421  52.906  1.00  0.00     0.029 A 
HETATM   14  C8  UNL     1      24.897  -0.383  53.946  1.00  0.00     0.003 A 
HETATM   15  C9  UNL     1      26.242  -0.477  54.160  1.00  0.00     0.016 A 
HETATM   16  C10 UNL     1      27.146   0.200  53.372  1.00  0.00     0.050 A 
HETATM   17  C12 UNL     1      26.647   0.979  52.358  1.00  0.00     0.045 A 
BRANCH  16  18
HETATM   18  C11 UNL     1      28.600   0.068  53.642  1.00  0.00     0.417 C 
HETATM   19  F1  UNL     1      29.087  -1.100  53.097  1.00  0.00    -0.166 F 
HETATM   20  F2  UNL     1      28.835  -0.021  55.017  1.00  0.00    -0.166 F 
HETATM   21  F3  UNL     1      29.314   1.144  53.170  1.00  0.00    -0.166 F 
ENDBRANCH  16  18
ENDBRANCH  10  12
ENDBRANCH   5  10
BRANCH   7  22
HETATM   22  N5  UNL     1      22.692   6.103  51.734  1.00  0.00    -0.221 N 
HETATM   23  H12 UNL     1      22.692   6.460  52.711  1.00  0.00     0.177 HD
BRANCH  22  24
HETATM   24  C14 UNL     1      21.498   6.273  50.933  1.00  0.00     0.168 C 
BRANCH  24  25
HETATM   25  C15 UNL     1      21.278   7.755  50.617  1.00  0.00     0.286 C 
BRANCH  25  26
HETATM   26  N6  UNL     1      22.326   8.183  49.719  1.00  0.00     0.079 N 
HETATM   27  H17 UNL     1      22.280   7.654  48.817  1.00  0.00     0.312 HD
HETATM   28  H18 UNL     1      23.281   8.095  50.142  1.00  0.00     0.312 HD
ENDBRANCH  25  26
ENDBRANCH  24  25
ENDBRANCH  22  24
ENDBRANCH   7  22
BRANCH   1  29
HETATM   29  C2  UNL     1      27.108   7.158  48.634  1.00  0.00     0.127 C 
HETATM   30  C1  UNL     1      26.320   7.589  47.440  1.00  0.00     0.027 C 
ENDBRANCH   1  29
TORSDOF 8
ENDMDL
MODEL 7
REMARK VINA RESULT:      -7.4      2.589      5.060
REMARK  8 active torsions:
REMARK  status: ('A' for Active; 'I' for Inactive)
REMARK    1  A    between atoms: C2_2  and  N1_3 
REMARK    2  A    between atoms: C5_7  and  N3_8 
REMARK    3  A    between atoms: N3_8  and  C6_9 
REMARK    4  A    between atoms: C10_13  and  C11_14 
REMARK    5  A    between atoms: C13_20  and  N5_21 
REMARK    6  A    between atoms: N5_21  and  C14_22 
REMARK    7  A    between atoms: C14_22  and  C15_23 
REMARK    8  A    between atoms: C15_23  and  N6_24 
ROOT
HETATM    1  N1  UNL     1      26.571   5.972  48.918  1.00  0.00    -0.324 N 
HETATM    2  C3  UNL     1      27.481   5.037  48.620  1.00  0.00     0.212 A 
HETATM    3  N2  UNL     1      27.191   3.917  49.297  1.00  0.00    -0.236 NA
HETATM    4  C4  UNL     1      26.105   4.096  50.037  1.00  0.00     0.151 A 
HETATM    5  C5  UNL     1      25.436   3.243  50.879  1.00  0.00     0.180 A 
HETATM    6  N4  UNL     1      24.352   3.790  51.456  1.00  0.00    -0.043 NA
HETATM    7  C13 UNL     1      23.953   5.052  51.238  1.00  0.00     0.726 A 
HETATM    8  N7  UNL     1      24.625   5.856  50.415  1.00  0.00    -0.042 NA
HETATM    9  C16 UNL     1      25.721   5.404  49.788  1.00  0.00     0.182 A 
ENDROOT
BRANCH   5  10
HETATM   10  N3  UNL     1      25.764   1.930  51.193  1.00  0.00    -0.338 N 
HETATM   11  H7  UNL     1      26.273   1.359  50.453  1.00  0.00     0.167 HD
BRANCH  10  12
HETATM   12  C6  UNL     1      25.590   1.077  52.305  1.00  0.00     0.034 A 
HETATM   13  C7  UNL     1      26.603   0.572  53.089  1.00  0.00     0.029 A 
HETATM   14  C8  UNL     1      26.456  -0.286  54.158  1.00  0.00     0.003 A 
HETATM   15  C9  UNL     1      25.185  -0.675  54.473  1.00  0.00     0.016 A 
HETATM   16  C10 UNL     1      24.098  -0.231  53.755  1.00  0.00     0.050 A 
HETATM   17  C12 UNL     1      24.334   0.621  52.706  1.00  0.00     0.045 A 
BRANCH  16  18
HETATM   18  C11 UNL     1      22.734  -0.681  54.134  1.00  0.00     0.417 C 
HETATM   19  F1  UNL     1      22.773  -1.403  55.307  1.00  0.00    -0.166 F 
HETATM   20  F2  UNL     1      22.220  -1.547  53.165  1.00  0.00    -0.166 F 
HETATM   21  F3  UNL     1      21.856   0.371  54.254  1.00  0.00    -0.166 F 
ENDBRANCH  16  18
ENDBRANCH  10  12
ENDBRANCH   5  10
BRANCH   7  22
HETATM   22  N5  UNL     1      22.768   5.478  51.942  1.00  0.00    -0.221 N 
HETATM   23  H12 UNL     1      22.773   6.042  52.816  1.00  0.00     0.177 HD
BRANCH  22  24
HETATM   24  C14 UNL     1      21.495   5.083  51.378  1.00  0.00     0.168 C 
BRANCH  24  25
HETATM   25  C15 UNL     1      20.872   3.959  52.210  1.00  0.00     0.286 C 
BRANCH  25  26
HETATM   26  N6  UNL     1      21.464   2.710  51.791  1.00  0.00     0.079 N 
HETATM   27  H17 UNL     1      20.855   1.902  52.060  1.00  0.00     0.312 HD
HETATM   28  H18 UNL     1      22.432   2.574  52.171  1.00  0.00     0.312 HD
ENDBRANCH  25  26
ENDBRANCH  24  25
ENDBRANCH  22  24
ENDBRANCH   7  22
BRANCH   1  29
HETATM   29  C2  UNL     1      26.535   7.325  48.389  1.00  0.00     0.127 C 
HETATM   30  C1  UNL     1      27.647   7.609  47.433  1.00  0.00     0.027 C 
ENDBRANCH   1  29
TORSDOF 8
ENDMDL
MODEL 8
REMARK VINA RESULT:      -7.4      2.006      5.289
REMARK  8 active torsions:
REMARK  status: ('A' for Active; 'I' for Inactive)
REMARK    1  A    between atoms: C2_2  and  N1_3 
REMARK    2  A    between atoms: C5_7  and  N3_8 
REMARK    3  A    between atoms: N3_8  and  C6_9 
REMARK    4  A    between atoms: C10_13  and  C11_14 
REMARK    5  A    between atoms: C13_20  and  N5_21 
REMARK    6  A    between atoms: N5_21  and  C14_22 
REMARK    7  A    between atoms: C14_22  and  C15_23 
REMARK    8  A    between atoms: C15_23  and  N6_24 
ROOT
HETATM    1  N1  UNL     1      22.628  -0.261  53.857  1.00  0.00    -0.324 N 
HETATM    2  C3  UNL     1      21.901   0.746  53.357  1.00  0.00     0.212 A 
HETATM    3  N2  UNL     1      22.728   1.645  52.805  1.00  0.00    -0.236 NA
HETATM    4  C4  UNL     1      23.987   1.250  52.933  1.00  0.00     0.151 A 
HETATM    5  C5  UNL     1      25.162   1.831  52.523  1.00  0.00     0.180 A 
HETATM    6  N4  UNL     1      26.257   1.115  52.829  1.00  0.00    -0.043 NA
HETATM    7  C13 UNL     1      26.218  -0.060  53.476  1.00  0.00     0.726 A 
HETATM    8  N7  UNL     1      25.062  -0.598  53.861  1.00  0.00    -0.042 NA
HETATM    9  C16 UNL     1      23.910   0.039  53.602  1.00  0.00     0.182 A 
ENDROOT
BRANCH   5  10
HETATM   10  N3  UNL     1      25.325   3.044  51.865  1.00  0.00    -0.338 N 
HETATM   11  H7  UNL     1      26.018   3.739  52.278  1.00  0.00     0.167 HD
BRANCH  10  12
HETATM   12  C6  UNL     1      24.780   3.659  50.716  1.00  0.00     0.034 A 
HETATM   13  C7  UNL     1      25.050   4.941  50.294  1.00  0.00     0.029 A 
HETATM   14  C8  UNL     1      24.505   5.568  49.194  1.00  0.00     0.003 A 
HETATM   15  C9  UNL     1      23.611   4.853  48.450  1.00  0.00     0.016 A 
HETATM   16  C10 UNL     1      23.268   3.562  48.782  1.00  0.00     0.050 A 
HETATM   17  C12 UNL     1      23.857   3.013  49.893  1.00  0.00     0.045 A 
BRANCH  16  18
HETATM   18  C11 UNL     1      22.290   2.823  47.943  1.00  0.00     0.417 C 
HETATM   19  F1  UNL     1      22.177   3.412  46.702  1.00  0.00    -0.166 F 
HETATM   20  F2  UNL     1      21.016   2.879  48.514  1.00  0.00    -0.166 F 
HETATM   21  F3  UNL     1      22.623   1.495  47.808  1.00  0.00    -0.166 F 
ENDBRANCH  16  18
ENDBRANCH  10  12
ENDBRANCH   5  10
BRANCH   7  22
HETATM   22  N5  UNL     1      27.490  -0.694  53.726  1.00  0.00    -0.221 N 
HETATM   23  H12 UNL     1      27.791  -1.596  53.304  1.00  0.00     0.177 HD
BRANCH  22  24
HETATM   24  C14 UNL     1      28.394  -0.014  54.629  1.00  0.00     0.168 C 
BRANCH  24  25
HETATM   25  C15 UNL     1      29.523   0.658  53.844  1.00  0.00     0.286 C 
BRANCH  25  26
HETATM   26  N6  UNL     1      29.228   2.069  53.752  1.00  0.00     0.079 N 
HETATM   27  H17 UNL     1      29.004   2.463  54.696  1.00  0.00     0.312 HD
HETATM   28  H18 UNL     1      28.449   2.276  53.081  1.00  0.00     0.312 HD
ENDBRANCH  25  26
ENDBRANCH  24  25
ENDBRANCH  22  24
ENDBRANCH   7  22
BRANCH   1  29
HETATM   29  C2  UNL     1      22.103  -1.434  54.536  1.00  0.00     0.127 C 
HETATM   30  C1  UNL     1      20.647  -1.653  54.285  1.00  0.00     0.027 C 
ENDBRANCH   1  29
TORSDOF 8
ENDMDL
MODEL 9
REMARK VINA RESULT:      -7.4      1.968      4.555
REMARK  8 active torsions:
REMARK  status: ('A' for Active; 'I' for Inactive)
REMARK    1  A    between atoms: C2_2  and  N1_3 
REMARK    2  A    between atoms: C5_7  and  N3_8 
REMARK    3  A    between atoms: N3_8  and  C6_9 
REMARK    4  A    between atoms: C10_13  and  C11_14 
REMARK    5  A    between atoms: C13_20  and  N5_21 
REMARK    6  A    between atoms: N5_21  and  C14_22 
REMARK    7  A    between atoms: C14_22  and  C15_23 
REMARK    8  A    between atoms: C15_23  and  N6_24 
ROOT
HETATM    1  N1  UNL     1      27.655   0.175  53.262  1.00  0.00    -0.324 N 
HETATM    2  C3  UNL     1      27.347  -1.123  53.152  1.00  0.00     0.212 A 
HETATM    3  N2  UNL     1      26.015  -1.249  53.081  1.00  0.00    -0.236 NA
HETATM    4  C4  UNL     1      25.437  -0.057  53.143  1.00  0.00     0.151 A 
HETATM    5  C5  UNL     1      24.114   0.308  53.103  1.00  0.00     0.180 A 
HETATM    6  N4  UNL     1      23.916   1.635  53.185  1.00  0.00    -0.043 NA
HETATM    7  C13 UNL     1      24.910   2.529  53.297  1.00  0.00     0.726 A 
HETATM    8  N7  UNL     1      26.184   2.143  53.334  1.00  0.00    -0.042 NA
HETATM    9  C16 UNL     1      26.489   0.838  53.258  1.00  0.00     0.182 A 
ENDROOT
BRANCH   5  10
HETATM   10  N3  UNL     1      23.007  -0.524  53.007  1.00  0.00    -0.338 N 
HETATM   11  H7  UNL     1      23.159  -1.567  53.159  1.00  0.00     0.167 HD
BRANCH  10  12
HETATM   12  C6  UNL     1      21.630  -0.358  52.736  1.00  0.00     0.034 A 
HETATM   13  C7  UNL     1      20.601  -0.828  53.521  1.00  0.00     0.029 A 
HETATM   14  C8  UNL     1      19.253  -0.703  53.258  1.00  0.00     0.003 A 
HETATM   15  C9  UNL     1      18.902  -0.052  52.110  1.00  0.00     0.016 A 
HETATM   16  C10 UNL     1      19.850   0.458  51.252  1.00  0.00     0.050 A 
HETATM   17  C12 UNL     1      21.169   0.290  51.590  1.00  0.00     0.045 A 
BRANCH  16  18
HETATM   18  C11 UNL     1      19.420   1.159  50.015  1.00  0.00     0.417 C 
HETATM   19  F1  UNL     1      20.351   0.985  49.014  1.00  0.00    -0.166 F 
HETATM   20  F2  UNL     1      19.343   2.537  50.236  1.00  0.00    -0.166 F 
HETATM   21  F3  UNL     1      18.182   0.741  49.587  1.00  0.00    -0.166 F 
ENDBRANCH  16  18
ENDBRANCH  10  12
ENDBRANCH   5  10
BRANCH   7  22
HETATM   22  N5  UNL     1      24.517   3.915  53.375  1.00  0.00    -0.221 N 
HETATM   23  H12 UNL     1      25.016   4.638  53.932  1.00  0.00     0.177 HD
BRANCH  22  24
HETATM   24  C14 UNL     1      23.345   4.306  52.622  1.00  0.00     0.168 C 
BRANCH  24  25
HETATM   25  C15 UNL     1      23.733   5.280  51.505  1.00  0.00     0.286 C 
BRANCH  25  26
HETATM   26  N6  UNL     1      22.848   6.420  51.576  1.00  0.00     0.079 N 
HETATM   27  H17 UNL     1      23.186   7.107  52.290  1.00  0.00     0.312 HD
HETATM   28  H18 UNL     1      21.856   6.149  51.777  1.00  0.00     0.312 HD
ENDBRANCH  25  26
ENDBRANCH  24  25
ENDBRANCH  22  24
ENDBRANCH   7  22
BRANCH   1  29
HETATM   29  C2  UNL     1      28.995   0.727  53.364  1.00  0.00     0.127 C 
HETATM   30  C1  UNL     1      30.048  -0.320  53.538  1.00  0.00     0.027 C 
ENDBRANCH   1  29
TORSDOF 8
ENDMDL
