MODEL 1
REMARK VINA RESULT:      -8.1      0.000      0.000
REMARK  6 active torsions:
REMARK  status: ('A' for Active; 'I' for Inactive)
REMARK    1  A    between atoms: N1_7  and  C6_8 
REMARK    2  A    between atoms: C6_8  and  C7_9 
REMARK    3  A    between atoms: C7_9  and  S1_10 
REMARK    4  A    between atoms: C8_11  and  N2_13 
REMARK    5  A    between atoms: N2_13  and  C9_14 
REMARK    6  A    between atoms: C14_21  and  C15_22 
ROOT
HETATM    1  C9  UNL     1      20.285   0.438  51.627  1.00  0.00     0.035 A 
HETATM    2  C10 UNL     1      19.312  -0.205  52.352  1.00  0.00     0.032 A 
HETATM    3  C11 UNL     1      19.706  -0.877  53.484  1.00  0.00     0.035 A 
HETATM    4  C12 UNL     1      21.024  -0.893  53.860  1.00  0.00     0.070 A 
HETATM    5  N3  UNL     1      21.366  -1.573  54.969  1.00  0.00    -0.241 NA
HETATM    6  C13 UNL     1      22.650  -1.613  55.355  1.00  0.00     0.234 A 
HETATM    7  N4  UNL     1      23.578  -0.983  54.641  1.00  0.00    -0.241 NA
HETATM    8  C14 UNL     1      23.373  -0.278  53.531  1.00  0.00     0.078 A 
HETATM    9  C20 UNL     1      22.049  -0.269  53.181  1.00  0.00     0.024 A 
HETATM   10  C21 UNL     1      21.584   0.380  52.064  1.00  0.00     0.045 A 
ENDROOT
BRANCH   1  11
HETATM   11  N2  UNL     1      19.868   1.128  50.460  1.00  0.00    -0.330 N 
HETATM   12  H15 UNL     1      19.059   1.521  49.934  1.00  0.00     0.168 HD
BRANCH  11  13
HETATM   13  C8  UNL     1      20.907   1.490  49.561  1.00  0.00     0.210 A 
HETATM   14  S1  UNL     1      22.068   2.765  49.124  1.00  0.00    -0.001 SA
HETATM   15  O2  UNL     1      21.545   1.019  48.555  1.00  0.00    -0.257 OA
BRANCH  14  16
HETATM   16  C7  UNL     1      21.762   4.200  50.224  1.00  0.00     0.131 C 
BRANCH  16  17
HETATM   17  C6  UNL     1      22.374   5.461  49.660  1.00  0.00     0.285 C 
BRANCH  17  18
HETATM   18  N1  UNL     1      23.777   5.541  49.931  1.00  0.00     0.097 N 
HETATM   19  C2  UNL     1      24.643   5.575  48.800  1.00  0.00     0.242 C 
HETATM   20  C1  UNL     1      26.080   5.411  49.271  1.00  0.00     0.045 C 
HETATM   21  C3  UNL     1      24.507   6.932  48.141  1.00  0.00     0.203 C 
HETATM   22  O1  UNL     1      24.980   7.900  49.026  1.00  0.00    -0.387 OA
HETATM   23  C4  UNL     1      24.129   7.953  50.127  1.00  0.00     0.198 C 
HETATM   24  C5  UNL     1      24.086   6.629  50.860  1.00  0.00     0.299 C 
ENDBRANCH  17  18
ENDBRANCH  16  17
ENDBRANCH  14  16
ENDBRANCH  11  13
ENDBRANCH   1  11
BRANCH   8  25
HETATM   25  C15 UNL     1      24.410   0.416  52.730  1.00  0.00    -0.010 A 
HETATM   26  C16 UNL     1      25.574  -0.219  52.936  1.00  0.00     0.011 A 
HETATM   27  C17 UNL     1      26.684   0.359  52.209  1.00  0.00    -0.002 A 
HETATM   28  C18 UNL     1      26.164   1.371  51.555  1.00  0.00    -0.006 A 
HETATM   29  C19 UNL     1      24.679   1.525  51.813  1.00  0.00     0.115 A 
HETATM   30 BR1  UNL     1      24.593   3.274  52.693  1.00  0.00    -0.082 Br
ENDBRANCH   8  25
TORSDOF 6
ENDMDL
MODEL 2
REMARK VINA RESULT:      -8.1      2.116      4.091
REMARK  6 active torsions:
REMARK  status: ('A' for Active; 'I' for Inactive)
REMARK    1  A    between atoms: N1_7  and  C6_8 
REMARK    2  A    between atoms: C6_8  and  C7_9 
REMARK    3  A    between atoms: C7_9  and  S1_10 
REMARK    4  A    between atoms: C8_11  and  N2_13 
REMARK    5  A    between atoms: N2_13  and  C9_14 
REMARK    6  A    between atoms: C14_21  and  C15_22 
ROOT
HETATM    1  C9  UNL     1      24.603   2.533  50.590  1.00  0.00     0.035 A 
HETATM    2  C10 UNL     1      25.956   2.755  50.515  1.00  0.00     0.032 A 
HETATM    3  C11 UNL     1      26.752   2.130  51.445  1.00  0.00     0.035 A 
HETATM    4  C12 UNL     1      26.198   1.319  52.401  1.00  0.00     0.070 A 
HETATM    5  N3  UNL     1      27.014   0.737  53.299  1.00  0.00    -0.241 NA
HETATM    6  C13 UNL     1      26.499  -0.054  54.251  1.00  0.00     0.234 A 
HETATM    7  N4  UNL     1      25.186  -0.257  54.307  1.00  0.00    -0.241 NA
HETATM    8  C14 UNL     1      24.274   0.256  53.484  1.00  0.00     0.078 A 
HETATM    9  C20 UNL     1      24.852   1.053  52.532  1.00  0.00     0.024 A 
HETATM   10  C21 UNL     1      24.119   1.709  51.574  1.00  0.00     0.045 A 
ENDROOT
BRANCH   1  11
HETATM   11  N2  UNL     1      23.790   3.184  49.626  1.00  0.00    -0.330 N 
HETATM   12  H15 UNL     1      23.613   3.339  48.611  1.00  0.00     0.168 HD
BRANCH  11  13
HETATM   13  C8  UNL     1      22.741   3.984  50.154  1.00  0.00     0.210 A 
HETATM   14  S1  UNL     1      22.366   5.425  51.127  1.00  0.00    -0.001 SA
HETATM   15  O2  UNL     1      21.462   4.039  50.174  1.00  0.00    -0.257 OA
BRANCH  14  16
HETATM   16  C7  UNL     1      23.951   6.112  51.744  1.00  0.00     0.131 C 
BRANCH  16  17
HETATM   17  C6  UNL     1      24.411   7.273  50.894  1.00  0.00     0.285 C 
BRANCH  17  18
HETATM   18  N1  UNL     1      25.651   6.996  50.237  1.00  0.00     0.097 N 
HETATM   19  C2  UNL     1      25.579   6.226  49.039  1.00  0.00     0.242 C 
HETATM   20  C1  UNL     1      26.986   5.826  48.623  1.00  0.00     0.045 C 
HETATM   21  C3  UNL     1      24.987   7.098  47.951  1.00  0.00     0.203 C 
HETATM   22  O1  UNL     1      25.874   8.143  47.694  1.00  0.00    -0.387 OA
HETATM   23  C4  UNL     1      25.935   8.965  48.815  1.00  0.00     0.198 C 
HETATM   24  C5  UNL     1      26.436   8.214  50.031  1.00  0.00     0.299 C 
ENDBRANCH  17  18
ENDBRANCH  16  17
ENDBRANCH  14  16
ENDBRANCH  11  13
ENDBRANCH   1  11
BRANCH   8  25
HETATM   25  C15 UNL     1      22.810   0.036  53.553  1.00  0.00    -0.010 A 
HETATM   26  C16 UNL     1      22.600  -1.084  54.261  1.00  0.00     0.011 A 
HETATM   27  C17 UNL     1      21.200  -1.422  54.408  1.00  0.00    -0.002 A 
HETATM   28  C18 UNL     1      20.559  -0.475  53.764  1.00  0.00    -0.006 A 
HETATM   29  C19 UNL     1      21.497   0.544  53.150  1.00  0.00     0.115 A 
HETATM   30 BR1  UNL     1      21.155   0.317  51.233  1.00  0.00    -0.082 Br
ENDBRANCH   8  25
TORSDOF 6
ENDMDL
MODEL 3
REMARK VINA RESULT:      -8.0      1.723      2.319
REMARK  6 active torsions:
REMARK  status: ('A' for Active; 'I' for Inactive)
REMARK    1  A    between atoms: N1_7  and  C6_8 
REMARK    2  A    between atoms: C6_8  and  C7_9 
REMARK    3  A    between atoms: C7_9  and  S1_10 
REMARK    4  A    between atoms: C8_11  and  N2_13 
REMARK    5  A    between atoms: N2_13  and  C9_14 
REMARK    6  A    between atoms: C14_21  and  C15_22 
ROOT
HETATM    1  C9  UNL     1      22.887   0.964  51.607  1.00  0.00     0.035 A 
HETATM    2  C10 UNL     1      21.614   0.599  51.974  1.00  0.00     0.032 A 
HETATM    3  C11 UNL     1      21.474  -0.144  53.121  1.00  0.00     0.035 A 
HETATM    4  C12 UNL     1      22.574  -0.499  53.858  1.00  0.00     0.070 A 
HETATM    5  N3  UNL     1      22.392  -1.237  54.968  1.00  0.00    -0.241 NA
HETATM    6  C13 UNL     1      23.451  -1.605  55.703  1.00  0.00     0.234 A 
HETATM    7  N4  UNL     1      24.675  -1.242  55.333  1.00  0.00    -0.241 NA
HETATM    8  C14 UNL     1      24.991  -0.515  54.263  1.00  0.00     0.078 A 
HETATM    9  C20 UNL     1      23.876  -0.166  53.549  1.00  0.00     0.024 A 
HETATM   10  C21 UNL     1      23.940   0.573  52.394  1.00  0.00     0.045 A 
ENDROOT
BRANCH   1  11
HETATM   11  N2  UNL     1      23.020   1.730  50.421  1.00  0.00    -0.330 N 
HETATM   12  H15 UNL     1      23.604   2.418  49.901  1.00  0.00     0.168 HD
BRANCH  11  13
HETATM   13  C8  UNL     1      21.980   1.564  49.467  1.00  0.00     0.210 A 
HETATM   14  S1  UNL     1      20.563   2.335  48.719  1.00  0.00    -0.001 SA
HETATM   15  O2  UNL     1      21.542   0.698  48.631  1.00  0.00    -0.257 OA
BRANCH  14  16
HETATM   16  C7  UNL     1      20.305   3.952  49.544  1.00  0.00     0.131 C 
BRANCH  16  17
HETATM   17  C6  UNL     1      21.582   4.759  49.578  1.00  0.00     0.285 C 
BRANCH  17  18
HETATM   18  N1  UNL     1      21.968   5.092  50.914  1.00  0.00     0.097 N 
HETATM   19  C2  UNL     1      23.277   4.694  51.318  1.00  0.00     0.242 C 
HETATM   20  C1  UNL     1      23.418   4.905  52.817  1.00  0.00     0.045 C 
HETATM   21  C3  UNL     1      24.279   5.584  50.612  1.00  0.00     0.203 C 
HETATM   22  O1  UNL     1      24.107   6.889  51.069  1.00  0.00    -0.387 OA
HETATM   23  C4  UNL     1      22.864   7.351  50.647  1.00  0.00     0.198 C 
HETATM   24  C5  UNL     1      21.738   6.507  51.206  1.00  0.00     0.299 C 
ENDBRANCH  17  18
ENDBRANCH  16  17
ENDBRANCH  14  16
ENDBRANCH  11  13
ENDBRANCH   1  11
BRANCH   8  25
HETATM   25  C15 UNL     1      26.357  -0.119  53.846  1.00  0.00    -0.010 A 
HETATM   26  C16 UNL     1      27.095   0.027  54.957  1.00  0.00     0.011 A 
HETATM   27  C17 UNL     1      28.464   0.416  54.696  1.00  0.00    -0.002 A 
HETATM   28  C18 UNL     1      28.541   0.508  53.389  1.00  0.00    -0.006 A 
HETATM   29  C19 UNL     1      27.226   0.188  52.708  1.00  0.00     0.115 A 
HETATM   30 BR1  UNL     1      26.777   1.895  51.854  1.00  0.00    -0.082 Br
ENDBRANCH   8  25
TORSDOF 6
ENDMDL
MODEL 4
REMARK VINA RESULT:      -7.9      3.486      8.422
REMARK  6 active torsions:
REMARK  status: ('A' for Active; 'I' for Inactive)
REMARK    1  A    between atoms: N1_7  and  C6_8 
REMARK    2  A    between atoms: C6_8  and  C7_9 
REMARK    3  A    between atoms: C7_9  and  S1_10 
REMARK    4  A    between atoms: C8_11  and  N2_13 
REMARK    5  A    between atoms: N2_13  and  C9_14 
REMARK    6  A    between atoms: C14_21  and  C15_22 
ROOT
HETATM    1  C9  UNL     1      24.597   4.384  49.525  1.00  0.00     0.035 A 
HETATM    2  C10 UNL     1      25.487   3.365  49.763  1.00  0.00     0.032 A 
HETATM    3  C11 UNL     1      26.803   3.585  49.432  1.00  0.00     0.035 A 
HETATM    4  C12 UNL     1      27.192   4.781  48.888  1.00  0.00     0.070 A 
HETATM    5  N3  UNL     1      28.489   4.949  48.569  1.00  0.00    -0.241 NA
HETATM    6  C13 UNL     1      28.896   6.105  48.027  1.00  0.00     0.234 A 
HETATM    7  N4  UNL     1      28.019   7.080  47.805  1.00  0.00    -0.241 NA
HETATM    8  C14 UNL     1      26.716   7.043  48.075  1.00  0.00     0.078 A 
HETATM    9  C20 UNL     1      26.353   5.843  48.626  1.00  0.00     0.024 A 
HETATM   10  C21 UNL     1      25.058   5.554  48.978  1.00  0.00     0.045 A 
ENDROOT
BRANCH   1  11
HETATM   11  N2  UNL     1      23.241   4.146  49.869  1.00  0.00    -0.330 N 
HETATM   12  H15 UNL     1      22.270   4.024  49.512  1.00  0.00     0.168 HD
BRANCH  11  13
HETATM   13  C8  UNL     1      22.983   3.986  51.257  1.00  0.00     0.210 A 
HETATM   14  S1  UNL     1      23.032   2.843  52.618  1.00  0.00    -0.001 SA
HETATM   15  O2  UNL     1      22.552   4.656  52.260  1.00  0.00    -0.257 OA
BRANCH  14  16
HETATM   16  C7  UNL     1      23.566   1.215  51.963  1.00  0.00     0.131 C 
BRANCH  16  17
HETATM   17  C6  UNL     1      24.528   0.535  52.908  1.00  0.00     0.285 C 
BRANCH  17  18
HETATM   18  N1  UNL     1      25.874   0.979  52.713  1.00  0.00     0.097 N 
HETATM   19  C2  UNL     1      26.556   1.472  53.863  1.00  0.00     0.242 C 
HETATM   20  C1  UNL     1      27.861   2.120  53.425  1.00  0.00     0.045 C 
HETATM   21  C3  UNL     1      26.881   0.296  54.760  1.00  0.00     0.203 C 
HETATM   22  O1  UNL     1      27.785  -0.530  54.093  1.00  0.00    -0.387 OA
HETATM   23  C4  UNL     1      27.147  -1.090  52.989  1.00  0.00     0.198 C 
HETATM   24  C5  UNL     1      26.678  -0.027  52.018  1.00  0.00     0.299 C 
ENDBRANCH  17  18
ENDBRANCH  16  17
ENDBRANCH  14  16
ENDBRANCH  11  13
ENDBRANCH   1  11
BRANCH   8  25
HETATM   25  C15 UNL     1      25.738   8.127  47.818  1.00  0.00    -0.010 A 
HETATM   26  C16 UNL     1      25.188   7.901  46.615  1.00  0.00     0.011 A 
HETATM   27  C17 UNL     1      24.205   8.893  46.233  1.00  0.00    -0.002 A 
HETATM   28  C18 UNL     1      24.174   9.736  47.238  1.00  0.00    -0.006 A 
HETATM   29  C19 UNL     1      25.137   9.354  48.343  1.00  0.00     0.115 A 
HETATM   30 BR1  UNL     1      26.384  10.866  48.345  1.00  0.00    -0.082 Br
ENDBRANCH   8  25
TORSDOF 6
ENDMDL
MODEL 5
REMARK VINA RESULT:      -7.9      2.531      3.649
REMARK  6 active torsions:
REMARK  status: ('A' for Active; 'I' for Inactive)
REMARK    1  A    between atoms: N1_7  and  C6_8 
REMARK    2  A    between atoms: C6_8  and  C7_9 
REMARK    3  A    between atoms: C7_9  and  S1_10 
REMARK    4  A    between atoms: C8_11  and  N2_13 
REMARK    5  A    between atoms: N2_13  and  C9_14 
REMARK    6  A    between atoms: C14_21  and  C15_22 
ROOT
HETATM    1  C9  UNL     1      21.668   0.277  53.241  1.00  0.00     0.035 A 
HETATM    2  C10 UNL     1      21.731  -0.669  54.234  1.00  0.00     0.032 A 
HETATM    3  C11 UNL     1      22.978  -1.048  54.669  1.00  0.00     0.035 A 
HETATM    4  C12 UNL     1      24.104  -0.491  54.121  1.00  0.00     0.070 A 
HETATM    5  N3  UNL     1      25.305  -0.900  54.569  1.00  0.00    -0.241 NA
HETATM    6  C13 UNL     1      26.423  -0.379  54.044  1.00  0.00     0.234 A 
HETATM    7  N4  UNL     1      26.342   0.537  53.084  1.00  0.00    -0.241 NA
HETATM    8  C14 UNL     1      25.223   1.026  52.555  1.00  0.00     0.078 A 
HETATM    9  C20 UNL     1      24.113   0.462  53.125  1.00  0.00     0.024 A 
HETATM   10  C21 UNL     1      22.837   0.791  52.739  1.00  0.00     0.045 A 
ENDROOT
BRANCH   1  11
HETATM   11  N2  UNL     1      20.376   0.660  52.798  1.00  0.00    -0.330 N 
HETATM   12  H15 UNL     1      19.388   0.360  52.661  1.00  0.00     0.168 HD
BRANCH  11  13
HETATM   13  C8  UNL     1      20.263   1.996  52.328  1.00  0.00     0.210 A 
HETATM   14  S1  UNL     1      20.211   3.022  50.876  1.00  0.00    -0.001 SA
HETATM   15  O2  UNL     1      20.138   3.189  52.777  1.00  0.00    -0.257 OA
BRANCH  14  16
HETATM   16  C7  UNL     1      20.464   1.941  49.417  1.00  0.00     0.131 C 
BRANCH  16  17
HETATM   17  C6  UNL     1      20.102   2.657  48.136  1.00  0.00     0.285 C 
BRANCH  17  18
HETATM   18  N1  UNL     1      20.760   3.922  48.027  1.00  0.00     0.097 N 
HETATM   19  C2  UNL     1      22.053   3.917  47.426  1.00  0.00     0.242 C 
HETATM   20  C1  UNL     1      22.693   5.284  47.618  1.00  0.00     0.045 C 
HETATM   21  C3  UNL     1      21.884   3.671  45.941  1.00  0.00     0.203 C 
HETATM   22  O1  UNL     1      21.199   4.754  45.391  1.00  0.00    -0.387 OA
HETATM   23  C4  UNL     1      19.903   4.769  45.899  1.00  0.00     0.198 C 
HETATM   24  C5  UNL     1      19.898   4.927  47.405  1.00  0.00     0.299 C 
ENDBRANCH  17  18
ENDBRANCH  16  17
ENDBRANCH  14  16
ENDBRANCH  11  13
ENDBRANCH   1  11
BRANCH   8  25
HETATM   25  C15 UNL     1      25.134   2.040  51.477  1.00  0.00    -0.010 A 
HETATM   26  C16 UNL     1      26.368   2.213  50.980  1.00  0.00     0.011 A 
HETATM   27  C17 UNL     1      26.429   3.186  49.910  1.00  0.00    -0.002 A 
HETATM   28  C18 UNL     1      25.193   3.607  49.770  1.00  0.00    -0.006 A 
HETATM   29  C19 UNL     1      24.242   2.939  50.742  1.00  0.00     0.115 A 
HETATM   30 BR1  UNL     1      23.632   4.453  51.828  1.00  0.00    -0.082 Br
ENDBRANCH   8  25
TORSDOF 6
ENDMDL
MODEL 6
REMARK VINA RESULT:      -7.9      3.064      5.238
REMARK  6 active torsions:
REMARK  status: ('A' for Active; 'I' for Inactive)
REMARK    1  A    between atoms: N1_7  and  C6_8 
REMARK    2  A    between atoms: C6_8  and  C7_9 
REMARK    3  A    between atoms: C7_9  and  S1_10 
REMARK    4  A    between atoms: C8_11  and  N2_13 
REMARK    5  A    between atoms: N2_13  and  C9_14 
REMARK    6  A    between atoms: C14_21  and  C15_22 
ROOT
HETATM    1  C9  UNL     1      24.606   3.162  50.960  1.00  0.00     0.035 A 
HETATM    2  C10 UNL     1      25.937   3.188  50.623  1.00  0.00     0.032 A 
HETATM    3  C11 UNL     1      26.731   2.175  51.104  1.00  0.00     0.035 A 
HETATM    4  C12 UNL     1      26.198   1.186  51.889  1.00  0.00     0.070 A 
HETATM    5  N3  UNL     1      27.015   0.220  52.347  1.00  0.00    -0.241 NA
HETATM    6  C13 UNL     1      26.521  -0.755  53.125  1.00  0.00     0.234 A 
HETATM    7  N4  UNL     1      25.229  -0.763  53.440  1.00  0.00    -0.241 NA
HETATM    8  C14 UNL     1      24.319   0.128  53.053  1.00  0.00     0.078 A 
HETATM    9  C20 UNL     1      24.874   1.099  52.263  1.00  0.00     0.024 A 
HETATM   10  C21 UNL     1      24.142   2.141  51.750  1.00  0.00     0.045 A 
ENDROOT
BRANCH   1  11
HETATM   11  N2  UNL     1      23.795   4.213  50.460  1.00  0.00    -0.330 N 
HETATM   12  H15 UNL     1      22.928   4.458  49.937  1.00  0.00     0.168 HD
BRANCH  11  13
HETATM   13  C8  UNL     1      24.263   5.527  50.731  1.00  0.00     0.210 A 
HETATM   14  S1  UNL     1      25.313   6.840  50.151  1.00  0.00    -0.001 SA
HETATM   15  O2  UNL     1      24.132   6.457  51.602  1.00  0.00    -0.257 OA
BRANCH  14  16
HETATM   16  C7  UNL     1      26.180   6.242  48.649  1.00  0.00     0.131 C 
BRANCH  16  17
HETATM   17  C6  UNL     1      27.581   6.802  48.567  1.00  0.00     0.285 C 
BRANCH  17  18
HETATM   18  N1  UNL     1      27.579   8.219  48.376  1.00  0.00     0.097 N 
HETATM   19  C2  UNL     1      28.427   8.979  49.235  1.00  0.00     0.242 C 
HETATM   20  C1  UNL     1      28.113  10.457  49.060  1.00  0.00     0.045 C 
HETATM   21  C3  UNL     1      29.862   8.740  48.813  1.00  0.00     0.203 C 
HETATM   22  O1  UNL     1      30.036   9.259  47.531  1.00  0.00    -0.387 OA
HETATM   23  C4  UNL     1      29.274   8.510  46.638  1.00  0.00     0.198 C 
HETATM   24  C5  UNL     1      27.799   8.576  46.974  1.00  0.00     0.299 C 
ENDBRANCH  17  18
ENDBRANCH  16  17
ENDBRANCH  14  16
ENDBRANCH  11  13
ENDBRANCH   1  11
BRANCH   8  25
HETATM   25  C15 UNL     1      22.881   0.123  53.413  1.00  0.00    -0.010 A 
HETATM   26  C16 UNL     1      22.686  -0.870  54.294  1.00  0.00     0.011 A 
HETATM   27  C17 UNL     1      21.313  -0.991  54.736  1.00  0.00    -0.002 A 
HETATM   28  C18 UNL     1      20.672  -0.044  54.093  1.00  0.00    -0.006 A 
HETATM   29  C19 UNL     1      21.582   0.758  53.186  1.00  0.00     0.115 A 
HETATM   30 BR1  UNL     1      20.847   0.365  51.412  1.00  0.00    -0.082 Br
ENDBRANCH   8  25
TORSDOF 6
ENDMDL
MODEL 7
REMARK VINA RESULT:      -7.7      4.440      9.323
REMARK  6 active torsions:
REMARK  status: ('A' for Active; 'I' for Inactive)
REMARK    1  A    between atoms: N1_7  and  C6_8 
REMARK    2  A    between atoms: C6_8  and  C7_9 
REMARK    3  A    between atoms: C7_9  and  S1_10 
REMARK    4  A    between atoms: C8_11  and  N2_13 
REMARK    5  A    between atoms: N2_13  and  C9_14 
REMARK    6  A    between atoms: C14_21  and  C15_22 
ROOT
HETATM    1  C9  UNL     1      26.792   4.946  48.945  1.00  0.00     0.035 A 
HETATM    2  C10 UNL     1      25.667   5.713  48.759  1.00  0.00     0.032 A 
HETATM    3  C11 UNL     1      25.832   6.946  48.176  1.00  0.00     0.035 A 
HETATM    4  C12 UNL     1      27.078   7.376  47.800  1.00  0.00     0.070 A 
HETATM    5  N3  UNL     1      27.194   8.595  47.243  1.00  0.00    -0.241 NA
HETATM    6  C13 UNL     1      28.402   9.046  46.874  1.00  0.00     0.234 A 
HETATM    7  N4  UNL     1      29.479   8.288  47.061  1.00  0.00    -0.241 NA
HETATM    8  C14 UNL     1      29.501   7.070  47.597  1.00  0.00     0.078 A 
HETATM    9  C20 UNL     1      28.244   6.659  47.955  1.00  0.00     0.024 A 
HETATM   10  C21 UNL     1      28.006   5.442  48.544  1.00  0.00     0.045 A 
ENDROOT
BRANCH   1  11
HETATM   11  N2  UNL     1      26.611   3.675  49.549  1.00  0.00    -0.330 N 
HETATM   12  H15 UNL     1      27.082   2.837  49.950  1.00  0.00     0.168 HD
BRANCH  11  13
HETATM   13  C8  UNL     1      25.261   3.278  49.743  1.00  0.00     0.210 A 
HETATM   14  S1  UNL     1      24.065   2.746  50.947  1.00  0.00    -0.001 SA
HETATM   15  O2  UNL     1      24.182   3.103  49.075  1.00  0.00    -0.257 OA
BRANCH  14  16
HETATM   16  C7  UNL     1      24.926   2.587  52.558  1.00  0.00     0.131 C 
BRANCH  16  17
HETATM   17  C6  UNL     1      26.228   1.835  52.411  1.00  0.00     0.285 C 
BRANCH  17  18
HETATM   18  N1  UNL     1      26.065   0.433  52.645  1.00  0.00     0.097 N 
HETATM   19  C2  UNL     1      27.211  -0.387  52.428  1.00  0.00     0.242 C 
HETATM   20  C1  UNL     1      26.791  -1.848  52.482  1.00  0.00     0.045 C 
HETATM   21  C3  UNL     1      28.195  -0.128  53.550  1.00  0.00     0.203 C 
HETATM   22  O1  UNL     1      27.623  -0.561  54.746  1.00  0.00    -0.387 OA
HETATM   23  C4  UNL     1      26.531   0.250  55.038  1.00  0.00     0.198 C 
HETATM   24  C5  UNL     1      25.473   0.170  53.957  1.00  0.00     0.299 C 
ENDBRANCH  17  18
ENDBRANCH  16  17
ENDBRANCH  14  16
ENDBRANCH  11  13
ENDBRANCH   1  11
BRANCH   8  25
HETATM   25  C15 UNL     1      30.703   6.231  47.814  1.00  0.00    -0.010 A 
HETATM   26  C16 UNL     1      31.251   6.601  48.981  1.00  0.00     0.011 A 
HETATM   27  C17 UNL     1      32.445   5.857  49.322  1.00  0.00    -0.002 A 
HETATM   28  C18 UNL     1      32.613   5.022  48.323  1.00  0.00    -0.006 A 
HETATM   29  C19 UNL     1      31.543   5.167  47.261  1.00  0.00     0.115 A 
HETATM   30 BR1  UNL     1      32.581   5.753  45.706  1.00  0.00    -0.082 Br
ENDBRANCH   8  25
TORSDOF 6
ENDMDL
MODEL 8
REMARK VINA RESULT:      -7.4      2.472      4.566
REMARK  6 active torsions:
REMARK  status: ('A' for Active; 'I' for Inactive)
REMARK    1  A    between atoms: N1_7  and  C6_8 
REMARK    2  A    between atoms: C6_8  and  C7_9 
REMARK    3  A    between atoms: C7_9  and  S1_10 
REMARK    4  A    between atoms: C8_11  and  N2_13 
REMARK    5  A    between atoms: N2_13  and  C9_14 
REMARK    6  A    between atoms: C14_21  and  C15_22 
ROOT
HETATM    1  C9  UNL     1      24.069   3.379  49.948  1.00  0.00     0.035 A 
HETATM    2  C10 UNL     1      25.299   3.836  49.543  1.00  0.00     0.032 A 
HETATM    3  C11 UNL     1      26.402   3.359  50.210  1.00  0.00     0.035 A 
HETATM    4  C12 UNL     1      26.259   2.460  51.235  1.00  0.00     0.070 A 
HETATM    5  N3  UNL     1      27.366   2.028  51.867  1.00  0.00    -0.241 NA
HETATM    6  C13 UNL     1      27.255   1.156  52.879  1.00  0.00     0.234 A 
HETATM    7  N4  UNL     1      26.056   0.723  53.256  1.00  0.00    -0.241 NA
HETATM    8  C14 UNL     1      24.889   1.070  52.716  1.00  0.00     0.078 A 
HETATM    9  C20 UNL     1      25.058   1.960  51.689  1.00  0.00     0.024 A 
HETATM   10  C21 UNL     1      24.003   2.479  50.981  1.00  0.00     0.045 A 
ENDROOT
BRANCH   1  11
HETATM   11  N2  UNL     1      22.937   3.879  49.254  1.00  0.00    -0.330 N 
HETATM   12  H15 UNL     1      22.415   3.893  48.352  1.00  0.00     0.168 HD
BRANCH  11  13
HETATM   13  C8  UNL     1      22.080   4.722  50.012  1.00  0.00     0.210 A 
HETATM   14  S1  UNL     1      21.560   6.402  50.272  1.00  0.00    -0.001 SA
HETATM   15  O2  UNL     1      21.208   4.651  50.947  1.00  0.00    -0.257 OA
BRANCH  14  16
HETATM   16  C7  UNL     1      22.567   7.476  49.179  1.00  0.00     0.131 C 
BRANCH  16  17
HETATM   17  C6  UNL     1      24.035   7.384  49.524  1.00  0.00     0.285 C 
BRANCH  17  18
HETATM   18  N1  UNL     1      24.830   8.253  48.712  1.00  0.00     0.097 N 
HETATM   19  C2  UNL     1      25.582   9.253  49.395  1.00  0.00     0.242 C 
HETATM   20  C1  UNL     1      26.158  10.223  48.374  1.00  0.00     0.045 C 
HETATM   21  C3  UNL     1      26.730   8.574  50.112  1.00  0.00     0.203 C 
HETATM   22  O1  UNL     1      27.584   8.026  49.155  1.00  0.00    -0.387 OA
HETATM   23  C4  UNL     1      26.917   6.997  48.498  1.00  0.00     0.198 C 
HETATM   24  C5  UNL     1      25.679   7.501  47.787  1.00  0.00     0.299 C 
ENDBRANCH  17  18
ENDBRANCH  16  17
ENDBRANCH  14  16
ENDBRANCH  11  13
ENDBRANCH   1  11
BRANCH   8  25
HETATM   25  C15 UNL     1      23.552   0.594  53.143  1.00  0.00    -0.010 A 
HETATM   26  C16 UNL     1      23.732  -0.494  53.906  1.00  0.00     0.011 A 
HETATM   27  C17 UNL     1      22.497  -1.068  54.396  1.00  0.00    -0.002 A 
HETATM   28  C18 UNL     1      21.554  -0.299  53.905  1.00  0.00    -0.006 A 
HETATM   29  C19 UNL     1      22.109   0.828  53.058  1.00  0.00     0.115 A 
HETATM   30 BR1  UNL     1      21.378   0.412  51.288  1.00  0.00    -0.082 Br
ENDBRANCH   8  25
TORSDOF 6
ENDMDL
MODEL 9
REMARK VINA RESULT:      -7.3      2.811      5.794
REMARK  6 active torsions:
REMARK  status: ('A' for Active; 'I' for Inactive)
REMARK    1  A    between atoms: N1_7  and  C6_8 
REMARK    2  A    between atoms: C6_8  and  C7_9 
REMARK    3  A    between atoms: C7_9  and  S1_10 
REMARK    4  A    between atoms: C8_11  and  N2_13 
REMARK    5  A    between atoms: N2_13  and  C9_14 
REMARK    6  A    between atoms: C14_21  and  C15_22 
ROOT
HETATM    1  C9  UNL     1      24.623   3.019  50.923  1.00  0.00     0.035 A 
HETATM    2  C10 UNL     1      25.968   3.071  50.648  1.00  0.00     0.032 A 
HETATM    3  C11 UNL     1      26.768   2.110  51.217  1.00  0.00     0.035 A 
HETATM    4  C12 UNL     1      26.226   1.144  52.025  1.00  0.00     0.070 A 
HETATM    5  N3  UNL     1      27.049   0.230  52.571  1.00  0.00    -0.241 NA
HETATM    6  C13 UNL     1      26.547  -0.721  53.372  1.00  0.00     0.234 A 
HETATM    7  N4  UNL     1      25.242  -0.757  53.626  1.00  0.00    -0.241 NA
HETATM    8  C14 UNL     1      24.326   0.084  53.151  1.00  0.00     0.078 A 
HETATM    9  C20 UNL     1      24.889   1.033  52.340  1.00  0.00     0.024 A 
HETATM   10  C21 UNL     1      24.152   2.023  51.740  1.00  0.00     0.045 A 
ENDROOT
BRANCH   1  11
HETATM   11  N2  UNL     1      23.807   4.017  50.331  1.00  0.00    -0.330 N 
HETATM   12  H15 UNL     1      23.591   5.035  50.280  1.00  0.00     0.168 HD
BRANCH  11  13
HETATM   13  C8  UNL     1      22.847   3.544  49.396  1.00  0.00     0.210 A 
HETATM   14  S1  UNL     1      21.146   3.643  48.889  1.00  0.00    -0.001 SA
HETATM   15  O2  UNL     1      22.760   2.752  48.393  1.00  0.00    -0.257 OA
BRANCH  14  16
HETATM   16  C7  UNL     1      20.271   4.734  50.076  1.00  0.00     0.131 C 
BRANCH  16  17
HETATM   17  C6  UNL     1      19.256   3.960  50.884  1.00  0.00     0.285 C 
BRANCH  17  18
HETATM   18  N1  UNL     1      17.914   4.300  50.523  1.00  0.00     0.097 N 
HETATM   19  C2  UNL     1      17.460   3.842  49.252  1.00  0.00     0.242 C 
HETATM   20  C1  UNL     1      16.124   4.498  48.938  1.00  0.00     0.045 C 
HETATM   21  C3  UNL     1      17.251   2.345  49.336  1.00  0.00     0.203 C 
HETATM   22  O1  UNL     1      16.216   2.095  50.236  1.00  0.00    -0.387 OA
HETATM   23  C4  UNL     1      16.632   2.467  51.511  1.00  0.00     0.198 C 
HETATM   24  C5  UNL     1      16.965   3.943  51.578  1.00  0.00     0.299 C 
ENDBRANCH  17  18
ENDBRANCH  16  17
ENDBRANCH  14  16
ENDBRANCH  11  13
ENDBRANCH   1  11
BRANCH   8  25
HETATM   25  C15 UNL     1      22.873   0.050  53.443  1.00  0.00    -0.010 A 
HETATM   26  C16 UNL     1      22.644  -1.000  54.246  1.00  0.00     0.011 A 
HETATM   27  C17 UNL     1      21.253  -1.155  54.614  1.00  0.00    -0.002 A 
HETATM   28  C18 UNL     1      20.635  -0.169  54.006  1.00  0.00    -0.006 A 
HETATM   29  C19 UNL     1      21.581   0.695  53.198  1.00  0.00     0.115 A 
HETATM   30 BR1  UNL     1      20.933   0.417  51.369  1.00  0.00    -0.082 Br
ENDBRANCH   8  25
TORSDOF 6
ENDMDL
