MODEL 1
REMARK VINA RESULT:      -6.4      0.000      0.000
REMARK  7 active torsions:
REMARK  status: ('A' for Active; 'I' for Inactive)
REMARK    1  A    between atoms: C1_2  and  C2_3 
REMARK    2  A    between atoms: C1_2  and  C12_16 
REMARK    3  A    between atoms: C5_6  and  N1_7 
REMARK    4  A    between atoms: N1_7  and  C6_8 
REMARK    5  A    between atoms: N1_7  and  C8_11 
REMARK    6  A    between atoms: C6_8  and  C7_9 
REMARK    7  A    between atoms: C8_11  and  C9_12 
ROOT
HETATM    1  C2  UNL     1      26.254   0.344  52.378  1.00  0.00     0.010 A 
HETATM    2  C3  UNL     1      24.995   0.638  52.849  1.00  0.00     0.017 A 
HETATM    3  C4  UNL     1      24.404   1.817  52.459  1.00  0.00     0.030 A 
HETATM    4  C5  UNL     1      24.938   2.772  51.625  1.00  0.00     0.030 A 
HETATM    5  C10 UNL     1      26.197   2.411  51.195  1.00  0.00     0.030 A 
HETATM    6  C11 UNL     1      26.856   1.255  51.536  1.00  0.00     0.017 A 
ENDROOT
BRANCH   1   7
HETATM    7  C1  UNL     1      26.928  -0.877  52.760  1.00  0.00     0.163 C 
HETATM    8  O1  UNL     1      26.765  -1.916  52.062  1.00  0.00    -0.292 OA
BRANCH   7   9
HETATM    9  C12 UNL     1      27.800  -0.961  53.935  1.00  0.00     0.060 C 
HETATM   10  C13 UNL     1      27.932   0.323  54.709  1.00  0.00     0.012 C 
HETATM   11  C14 UNL     1      29.224   0.956  54.268  1.00  0.00     0.001 C 
HETATM   12  C15 UNL     1      29.881   0.017  53.283  1.00  0.00     0.001 C 
HETATM   13  C16 UNL     1      29.221  -1.291  53.556  1.00  0.00     0.012 C 
ENDBRANCH   7   9
ENDBRANCH   1   7
BRANCH   4  14
HETATM   14  N1  UNL     1      24.294   3.999  51.232  1.00  0.00    -0.379 N 
BRANCH  14  15
HETATM   15  C6  UNL     1      23.515   4.671  52.239  1.00  0.00     0.138 C 
BRANCH  15  16
HETATM   16  C7  UNL     1      22.114   5.028  51.902  1.00  0.00     0.134 C 
HETATM   17 CL1  UNL     1      21.136   3.546  52.287  1.00  0.00    -0.129 Cl
ENDBRANCH  15  16
ENDBRANCH  14  15
BRANCH  14  18
HETATM   18  C8  UNL     1      24.479   4.414  49.861  1.00  0.00     0.138 C 
BRANCH  18  19
HETATM   19  C9  UNL     1      25.369   5.589  49.636  1.00  0.00     0.134 C 
HETATM   20 CL2  UNL     1      26.897   5.062  48.820  1.00  0.00    -0.129 Cl
ENDBRANCH  18  19
ENDBRANCH  14  18
ENDBRANCH   4  14
TORSDOF 7
ENDMDL
MODEL 2
REMARK VINA RESULT:      -6.4      3.409      5.013
REMARK  7 active torsions:
REMARK  status: ('A' for Active; 'I' for Inactive)
REMARK    1  A    between atoms: C1_2  and  C2_3 
REMARK    2  A    between atoms: C1_2  and  C12_16 
REMARK    3  A    between atoms: C5_6  and  N1_7 
REMARK    4  A    between atoms: N1_7  and  C6_8 
REMARK    5  A    between atoms: N1_7  and  C8_11 
REMARK    6  A    between atoms: C6_8  and  C7_9 
REMARK    7  A    between atoms: C8_11  and  C9_12 
ROOT
HETATM    1  C2  UNL     1      24.775  -0.075  53.672  1.00  0.00     0.010 A 
HETATM    2  C3  UNL     1      24.357   0.751  52.653  1.00  0.00     0.017 A 
HETATM    3  C4  UNL     1      23.011   0.836  52.384  1.00  0.00     0.030 A 
HETATM    4  C5  UNL     1      21.996   0.173  53.033  1.00  0.00     0.030 A 
HETATM    5  C10 UNL     1      22.488  -0.633  54.036  1.00  0.00     0.030 A 
HETATM    6  C11 UNL     1      23.813  -0.774  54.369  1.00  0.00     0.017 A 
ENDROOT
BRANCH   1   7
HETATM    7  C1  UNL     1      26.178  -0.211  53.995  1.00  0.00     0.163 C 
HETATM    8  O1  UNL     1      26.516  -0.439  55.190  1.00  0.00    -0.292 OA
BRANCH   7   9
HETATM    9  C12 UNL     1      27.234  -0.095  52.986  1.00  0.00     0.060 C 
HETATM   10  C13 UNL     1      28.366  -1.072  53.150  1.00  0.00     0.012 C 
HETATM   11  C14 UNL     1      29.474  -0.327  53.846  1.00  0.00     0.001 C 
HETATM   12  C15 UNL     1      29.018   1.101  54.033  1.00  0.00     0.001 C 
HETATM   13  C16 UNL     1      27.916   1.249  53.041  1.00  0.00     0.012 C 
ENDBRANCH   7   9
ENDBRANCH   1   7
BRANCH   4  14
HETATM   14  N1  UNL     1      20.592   0.284  52.729  1.00  0.00    -0.379 N 
BRANCH  14  15
HETATM   15  C6  UNL     1      20.234   1.147  51.633  1.00  0.00     0.138 C 
BRANCH  15  16
HETATM   16  C7  UNL     1      19.486   2.389  51.951  1.00  0.00     0.134 C 
HETATM   17 CL1  UNL     1      20.758   3.639  52.298  1.00  0.00    -0.129 Cl
ENDBRANCH  15  16
ENDBRANCH  14  15
BRANCH  14  18
HETATM   18  C8  UNL     1      19.689  -0.465  53.571  1.00  0.00     0.138 C 
BRANCH  18  19
HETATM   19  C9  UNL     1      18.454  -0.990  52.922  1.00  0.00     0.134 C 
HETATM   20 CL2  UNL     1      17.951  -2.542  53.707  1.00  0.00    -0.129 Cl
ENDBRANCH  18  19
ENDBRANCH  14  18
ENDBRANCH   4  14
TORSDOF 7
ENDMDL
MODEL 3
REMARK VINA RESULT:      -6.4      0.108      2.683
REMARK  7 active torsions:
REMARK  status: ('A' for Active; 'I' for Inactive)
REMARK    1  A    between atoms: C1_2  and  C2_3 
REMARK    2  A    between atoms: C1_2  and  C12_16 
REMARK    3  A    between atoms: C5_6  and  N1_7 
REMARK    4  A    between atoms: N1_7  and  C6_8 
REMARK    5  A    between atoms: N1_7  and  C8_11 
REMARK    6  A    between atoms: C6_8  and  C7_9 
REMARK    7  A    between atoms: C8_11  and  C9_12 
ROOT
HETATM    1  C2  UNL     1      26.248   0.381  52.385  1.00  0.00     0.010 A 
HETATM    2  C3  UNL     1      24.999   0.691  52.873  1.00  0.00     0.017 A 
HETATM    3  C4  UNL     1      24.416   1.875  52.486  1.00  0.00     0.030 A 
HETATM    4  C5  UNL     1      24.949   2.820  51.640  1.00  0.00     0.030 A 
HETATM    5  C10 UNL     1      26.197   2.443  51.195  1.00  0.00     0.030 A 
HETATM    6  C11 UNL     1      26.848   1.281  51.531  1.00  0.00     0.017 A 
ENDROOT
BRANCH   1   7
HETATM    7  C1  UNL     1      26.914  -0.846  52.764  1.00  0.00     0.163 C 
HETATM    8  O1  UNL     1      26.730  -1.886  52.072  1.00  0.00    -0.292 OA
BRANCH   7   9
HETATM    9  C12 UNL     1      27.802  -0.934  53.926  1.00  0.00     0.060 C 
HETATM   10  C13 UNL     1      27.966   0.354  54.687  1.00  0.00     0.012 C 
HETATM   11  C14 UNL     1      29.263   0.961  54.221  1.00  0.00     0.001 C 
HETATM   12  C15 UNL     1      29.889   0.001  53.236  1.00  0.00     0.001 C 
HETATM   13  C16 UNL     1      29.211  -1.293  53.529  1.00  0.00     0.012 C 
ENDBRANCH   7   9
ENDBRANCH   1   7
BRANCH   4  14
HETATM   14  N1  UNL     1      24.313   4.053  51.251  1.00  0.00    -0.379 N 
BRANCH  14  15
HETATM   15  C6  UNL     1      24.623   4.553  49.937  1.00  0.00     0.138 C 
BRANCH  15  16
HETATM   16  C7  UNL     1      25.539   5.718  49.843  1.00  0.00     0.134 C 
HETATM   17 CL1  UNL     1      26.911   5.165  48.788  1.00  0.00    -0.129 Cl
ENDBRANCH  15  16
ENDBRANCH  14  15
BRANCH  14  18
HETATM   18  C8  UNL     1      23.448   4.669  52.230  1.00  0.00     0.138 C 
BRANCH  18  19
HETATM   19  C9  UNL     1      22.033   4.897  51.818  1.00  0.00     0.134 C 
HETATM   20 CL2  UNL     1      21.002   3.504  52.344  1.00  0.00    -0.129 Cl
ENDBRANCH  18  19
ENDBRANCH  14  18
ENDBRANCH   4  14
TORSDOF 7
ENDMDL
MODEL 4
REMARK VINA RESULT:      -6.4      2.820      3.775
REMARK  7 active torsions:
REMARK  status: ('A' for Active; 'I' for Inactive)
REMARK    1  A    between atoms: C1_2  and  C2_3 
REMARK    2  A    between atoms: C1_2  and  C12_16 
REMARK    3  A    between atoms: C5_6  and  N1_7 
REMARK    4  A    between atoms: N1_7  and  C6_8 
REMARK    5  A    between atoms: N1_7  and  C8_11 
REMARK    6  A    between atoms: C6_8  and  C7_9 
REMARK    7  A    between atoms: C8_11  and  C9_12 
ROOT
HETATM    1  C2  UNL     1      24.724   0.049  53.327  1.00  0.00     0.010 A 
HETATM    2  C3  UNL     1      23.606  -0.457  53.950  1.00  0.00     0.017 A 
HETATM    3  C4  UNL     1      22.367  -0.033  53.529  1.00  0.00     0.030 A 
HETATM    4  C5  UNL     1      22.101   0.866  52.524  1.00  0.00     0.030 A 
HETATM    5  C10 UNL     1      23.264   1.330  51.948  1.00  0.00     0.030 A 
HETATM    6  C11 UNL     1      24.536   0.959  52.309  1.00  0.00     0.017 A 
ENDROOT
BRANCH   1   7
HETATM    7  C1  UNL     1      26.052  -0.354  53.733  1.00  0.00     0.163 C 
HETATM    8  O1  UNL     1      26.218  -0.868  54.874  1.00  0.00    -0.292 OA
BRANCH   7   9
HETATM    9  C12 UNL     1      27.224  -0.188  52.870  1.00  0.00     0.060 C 
HETATM   10  C13 UNL     1      28.331  -1.176  53.122  1.00  0.00     0.012 C 
HETATM   11  C14 UNL     1      29.342  -0.472  53.987  1.00  0.00     0.001 C 
HETATM   12  C15 UNL     1      28.861   0.947  54.190  1.00  0.00     0.001 C 
HETATM   13  C16 UNL     1      27.890   1.148  53.078  1.00  0.00     0.012 C 
ENDBRANCH   7   9
ENDBRANCH   1   7
BRANCH   4  14
HETATM   14  N1  UNL     1      20.790   1.291  52.102  1.00  0.00    -0.379 N 
BRANCH  14  15
HETATM   15  C6  UNL     1      20.081   0.411  51.211  1.00  0.00     0.138 C 
BRANCH  15  16
HETATM   16  C7  UNL     1      18.671   0.087  51.540  1.00  0.00     0.134 C 
HETATM   17 CL1  UNL     1      18.743  -0.842  53.099  1.00  0.00    -0.129 Cl
ENDBRANCH  15  16
ENDBRANCH  14  15
BRANCH  14  18
HETATM   18  C8  UNL     1      20.335   2.568  52.601  1.00  0.00     0.138 C 
BRANCH  18  19
HETATM   19  C9  UNL     1      20.532   3.742  51.703  1.00  0.00     0.134 C 
HETATM   20 CL2  UNL     1      21.972   4.699  52.240  1.00  0.00    -0.129 Cl
ENDBRANCH  18  19
ENDBRANCH  14  18
ENDBRANCH   4  14
TORSDOF 7
ENDMDL
MODEL 5
REMARK VINA RESULT:      -6.3      2.581      3.574
REMARK  7 active torsions:
REMARK  status: ('A' for Active; 'I' for Inactive)
REMARK    1  A    between atoms: C1_2  and  C2_3 
REMARK    2  A    between atoms: C1_2  and  C12_16 
REMARK    3  A    between atoms: C5_6  and  N1_7 
REMARK    4  A    between atoms: N1_7  and  C6_8 
REMARK    5  A    between atoms: N1_7  and  C8_11 
REMARK    6  A    between atoms: C6_8  and  C7_9 
REMARK    7  A    between atoms: C8_11  and  C9_12 
ROOT
HETATM    1  C2  UNL     1      24.758   0.154  53.231  1.00  0.00     0.010 A 
HETATM    2  C3  UNL     1      24.659   1.142  52.277  1.00  0.00     0.017 A 
HETATM    3  C4  UNL     1      23.409   1.576  51.905  1.00  0.00     0.030 A 
HETATM    4  C5  UNL     1      22.202   1.128  52.390  1.00  0.00     0.030 A 
HETATM    5  C10 UNL     1      22.379   0.143  53.336  1.00  0.00     0.030 A 
HETATM    6  C11 UNL     1      23.589  -0.346  53.763  1.00  0.00     0.017 A 
ENDROOT
BRANCH   1   7
HETATM    7  C1  UNL     1      26.046  -0.349  53.655  1.00  0.00     0.163 C 
HETATM    8  O1  UNL     1      26.136  -0.965  54.753  1.00  0.00    -0.292 OA
BRANCH   7   9
HETATM    9  C12 UNL     1      27.262  -0.172  52.857  1.00  0.00     0.060 C 
HETATM   10  C13 UNL     1      28.339  -1.189  53.126  1.00  0.00     0.012 C 
HETATM   11  C14 UNL     1      29.317  -0.536  54.066  1.00  0.00     0.001 C 
HETATM   12  C15 UNL     1      28.850   0.882  54.299  1.00  0.00     0.001 C 
HETATM   13  C16 UNL     1      27.938   1.143  53.149  1.00  0.00     0.012 C 
ENDBRANCH   7   9
ENDBRANCH   1   7
BRANCH   4  14
HETATM   14  N1  UNL     1      20.905   1.605  51.982  1.00  0.00    -0.379 N 
BRANCH  14  15
HETATM   15  C6  UNL     1      20.526   2.918  52.436  1.00  0.00     0.138 C 
BRANCH  15  16
HETATM   16  C7  UNL     1      20.786   4.062  51.526  1.00  0.00     0.134 C 
HETATM   17 CL1  UNL     1      22.165   4.972  52.281  1.00  0.00    -0.129 Cl
ENDBRANCH  15  16
ENDBRANCH  14  15
BRANCH  14  18
HETATM   18  C8  UNL     1      20.110   0.705  51.179  1.00  0.00     0.138 C 
BRANCH  18  19
HETATM   19  C9  UNL     1      19.865   1.114  49.766  1.00  0.00     0.134 C 
HETATM   20 CL2  UNL     1      21.410   1.049  48.825  1.00  0.00    -0.129 Cl
ENDBRANCH  18  19
ENDBRANCH  14  18
ENDBRANCH   4  14
TORSDOF 7
ENDMDL
MODEL 6
REMARK VINA RESULT:      -6.2      2.270      3.010
REMARK  7 active torsions:
REMARK  status: ('A' for Active; 'I' for Inactive)
REMARK    1  A    between atoms: C1_2  and  C2_3 
REMARK    2  A    between atoms: C1_2  and  C12_16 
REMARK    3  A    between atoms: C5_6  and  N1_7 
REMARK    4  A    between atoms: N1_7  and  C6_8 
REMARK    5  A    between atoms: N1_7  and  C8_11 
REMARK    6  A    between atoms: C6_8  and  C7_9 
REMARK    7  A    between atoms: C8_11  and  C9_12 
ROOT
HETATM    1  C2  UNL     1      26.370   2.238  52.697  1.00  0.00     0.010 A 
HETATM    2  C3  UNL     1      25.253   2.479  53.463  1.00  0.00     0.017 A 
HETATM    3  C4  UNL     1      24.089   2.851  52.832  1.00  0.00     0.030 A 
HETATM    4  C5  UNL     1      23.900   3.016  51.480  1.00  0.00     0.030 A 
HETATM    5  C10 UNL     1      25.058   2.760  50.779  1.00  0.00     0.030 A 
HETATM    6  C11 UNL     1      26.258   2.384  51.331  1.00  0.00     0.017 A 
ENDROOT
BRANCH   1   7
HETATM    7  C1  UNL     1      27.624   1.852  53.306  1.00  0.00     0.163 C 
HETATM    8  O1  UNL     1      28.666   2.516  53.044  1.00  0.00    -0.292 OA
BRANCH   7   9
HETATM    9  C12 UNL     1      27.739   0.714  54.221  1.00  0.00     0.060 C 
HETATM   10  C13 UNL     1      29.109   0.095  54.279  1.00  0.00     0.012 C 
HETATM   11  C14 UNL     1      29.068  -1.116  53.385  1.00  0.00     0.001 C 
HETATM   12  C15 UNL     1      27.660  -1.244  52.852  1.00  0.00     0.001 C 
HETATM   13  C16 UNL     1      26.851  -0.431  53.805  1.00  0.00     0.012 C 
ENDBRANCH   7   9
ENDBRANCH   1   7
BRANCH   4  14
HETATM   14  N1  UNL     1      22.666   3.406  50.846  1.00  0.00    -0.379 N 
BRANCH  14  15
HETATM   15  C6  UNL     1      22.630   4.718  50.253  1.00  0.00     0.138 C 
BRANCH  15  16
HETATM   16  C7  UNL     1      22.504   5.882  51.165  1.00  0.00     0.134 C 
HETATM   17 CL1  UNL     1      24.159   6.629  51.221  1.00  0.00    -0.129 Cl
ENDBRANCH  15  16
ENDBRANCH  14  15
BRANCH  14  18
HETATM   18  C8  UNL     1      21.587   2.447  50.892  1.00  0.00     0.138 C 
BRANCH  18  19
HETATM   19  C9  UNL     1      21.805   1.164  50.165  1.00  0.00     0.134 C 
HETATM   20 CL2  UNL     1      21.926   1.472  48.385  1.00  0.00    -0.129 Cl
ENDBRANCH  18  19
ENDBRANCH  14  18
ENDBRANCH   4  14
TORSDOF 7
ENDMDL
MODEL 7
REMARK VINA RESULT:      -6.2      2.239      2.852
REMARK  7 active torsions:
REMARK  status: ('A' for Active; 'I' for Inactive)
REMARK    1  A    between atoms: C1_2  and  C2_3 
REMARK    2  A    between atoms: C1_2  and  C12_16 
REMARK    3  A    between atoms: C5_6  and  N1_7 
REMARK    4  A    between atoms: N1_7  and  C6_8 
REMARK    5  A    between atoms: N1_7  and  C8_11 
REMARK    6  A    between atoms: C6_8  and  C7_9 
REMARK    7  A    between atoms: C8_11  and  C9_12 
ROOT
HETATM    1  C2  UNL     1      26.379   2.249  52.639  1.00  0.00     0.010 A 
HETATM    2  C3  UNL     1      26.298   2.404  51.274  1.00  0.00     0.017 A 
HETATM    3  C4  UNL     1      25.096   2.782  50.723  1.00  0.00     0.030 A 
HETATM    4  C5  UNL     1      23.923   3.032  51.395  1.00  0.00     0.030 A 
HETATM    5  C10 UNL     1      24.078   2.855  52.753  1.00  0.00     0.030 A 
HETATM    6  C11 UNL     1      25.241   2.481  53.381  1.00  0.00     0.017 A 
ENDROOT
BRANCH   1   7
HETATM    7  C1  UNL     1      27.614   1.845  53.273  1.00  0.00     0.163 C 
HETATM    8  O1  UNL     1      28.674   2.481  53.018  1.00  0.00    -0.292 OA
BRANCH   7   9
HETATM    9  C12 UNL     1      27.689   0.718  54.207  1.00  0.00     0.060 C 
HETATM   10  C13 UNL     1      29.069   0.149  54.391  1.00  0.00     0.012 C 
HETATM   11  C14 UNL     1      29.149  -1.069  53.510  1.00  0.00     0.001 C 
HETATM   12  C15 UNL     1      27.797  -1.251  52.859  1.00  0.00     0.001 C 
HETATM   13  C16 UNL     1      26.881  -0.461  53.729  1.00  0.00     0.012 C 
ENDBRANCH   7   9
ENDBRANCH   1   7
BRANCH   4  14
HETATM   14  N1  UNL     1      22.677   3.428  50.790  1.00  0.00    -0.379 N 
BRANCH  14  15
HETATM   15  C6  UNL     1      21.606   2.466  50.826  1.00  0.00     0.138 C 
BRANCH  15  16
HETATM   16  C7  UNL     1      21.854   1.137  50.213  1.00  0.00     0.134 C 
HETATM   17 CL1  UNL     1      21.853   1.428  48.420  1.00  0.00    -0.129 Cl
ENDBRANCH  15  16
ENDBRANCH  14  15
BRANCH  14  18
HETATM   18  C8  UNL     1      22.640   4.742  50.191  1.00  0.00     0.138 C 
BRANCH  18  19
HETATM   19  C9  UNL     1      22.738   5.901  51.123  1.00  0.00     0.134 C 
HETATM   20 CL2  UNL     1      24.396   6.624  51.042  1.00  0.00    -0.129 Cl
ENDBRANCH  18  19
ENDBRANCH  14  18
ENDBRANCH   4  14
TORSDOF 7
ENDMDL
MODEL 8
REMARK VINA RESULT:      -6.2      2.687      3.835
REMARK  7 active torsions:
REMARK  status: ('A' for Active; 'I' for Inactive)
REMARK    1  A    between atoms: C1_2  and  C2_3 
REMARK    2  A    between atoms: C1_2  and  C12_16 
REMARK    3  A    between atoms: C5_6  and  N1_7 
REMARK    4  A    between atoms: N1_7  and  C6_8 
REMARK    5  A    between atoms: N1_7  and  C8_11 
REMARK    6  A    between atoms: C6_8  and  C7_9 
REMARK    7  A    between atoms: C8_11  and  C9_12 
ROOT
HETATM    1  C2  UNL     1      25.017   0.728  53.216  1.00  0.00     0.010 A 
HETATM    2  C3  UNL     1      23.943  -0.060  52.871  1.00  0.00     0.017 A 
HETATM    3  C4  UNL     1      22.800   0.548  52.407  1.00  0.00     0.030 A 
HETATM    4  C5  UNL     1      22.594   1.898  52.241  1.00  0.00     0.030 A 
HETATM    5  C10 UNL     1      23.707   2.622  52.607  1.00  0.00     0.030 A 
HETATM    6  C11 UNL     1      24.884   2.093  53.078  1.00  0.00     0.017 A 
ENDROOT
BRANCH   1   7
HETATM    7  C1  UNL     1      26.241   0.145  53.718  1.00  0.00     0.163 C 
HETATM    8  O1  UNL     1      26.252  -0.366  54.873  1.00  0.00    -0.292 OA
BRANCH   7   9
HETATM    9  C12 UNL     1      27.481   0.121  52.937  1.00  0.00     0.060 C 
HETATM   10  C13 UNL     1      28.409  -1.014  53.274  1.00  0.00     0.012 C 
HETATM   11  C14 UNL     1      29.453  -0.451  54.202  1.00  0.00     0.001 C 
HETATM   12  C15 UNL     1      29.174   1.026  54.360  1.00  0.00     0.001 C 
HETATM   13  C16 UNL     1      28.321   1.348  53.182  1.00  0.00     0.012 C 
ENDBRANCH   7   9
ENDBRANCH   1   7
BRANCH   4  14
HETATM   14  N1  UNL     1      21.384   2.508  51.750  1.00  0.00    -0.379 N 
BRANCH  14  15
HETATM   15  C6  UNL     1      21.484   3.239  50.514  1.00  0.00     0.138 C 
BRANCH  15  16
HETATM   16  C7  UNL     1      22.199   2.591  49.386  1.00  0.00     0.134 C 
HETATM   17 CL1  UNL     1      21.232   1.103  48.997  1.00  0.00    -0.129 Cl
ENDBRANCH  15  16
ENDBRANCH  14  15
BRANCH  14  18
HETATM   18  C8  UNL     1      20.202   2.341  52.563  1.00  0.00     0.138 C 
BRANCH  18  19
HETATM   19  C9  UNL     1      18.989   1.816  51.874  1.00  0.00     0.134 C 
HETATM   20 CL2  UNL     1      19.150   0.032  51.606  1.00  0.00    -0.129 Cl
ENDBRANCH  18  19
ENDBRANCH  14  18
ENDBRANCH   4  14
TORSDOF 7
ENDMDL
MODEL 9
REMARK VINA RESULT:      -6.1      2.503      3.668
REMARK  7 active torsions:
REMARK  status: ('A' for Active; 'I' for Inactive)
REMARK    1  A    between atoms: C1_2  and  C2_3 
REMARK    2  A    between atoms: C1_2  and  C12_16 
REMARK    3  A    between atoms: C5_6  and  N1_7 
REMARK    4  A    between atoms: N1_7  and  C6_8 
REMARK    5  A    between atoms: N1_7  and  C8_11 
REMARK    6  A    between atoms: C6_8  and  C7_9 
REMARK    7  A    between atoms: C8_11  and  C9_12 
ROOT
HETATM    1  C2  UNL     1      26.375   2.092  52.720  1.00  0.00     0.010 A 
HETATM    2  C3  UNL     1      26.094   1.906  51.385  1.00  0.00     0.017 A 
HETATM    3  C4  UNL     1      24.806   2.105  50.948  1.00  0.00     0.030 A 
HETATM    4  C5  UNL     1      23.725   2.481  51.711  1.00  0.00     0.030 A 
HETATM    5  C10 UNL     1      24.080   2.646  53.033  1.00  0.00     0.030 A 
HETATM    6  C11 UNL     1      25.341   2.469  53.548  1.00  0.00     0.017 A 
ENDROOT
BRANCH   1   7
HETATM    7  C1  UNL     1      27.710   1.889  53.237  1.00  0.00     0.163 C 
HETATM    8  O1  UNL     1      28.650   2.626  52.825  1.00  0.00    -0.292 OA
BRANCH   7   9
HETATM    9  C12 UNL     1      28.023   0.855  54.227  1.00  0.00     0.060 C 
HETATM   10  C13 UNL     1      29.458   0.403  54.227  1.00  0.00     0.012 C 
HETATM   11  C14 UNL     1      29.501  -0.878  53.437  1.00  0.00     0.001 C 
HETATM   12  C15 UNL     1      28.084  -1.211  53.029  1.00  0.00     0.001 C 
HETATM   13  C16 UNL     1      27.252  -0.415  53.975  1.00  0.00     0.012 C 
ENDBRANCH   7   9
ENDBRANCH   1   7
BRANCH   4  14
HETATM   14  N1  UNL     1      22.384   2.683  51.225  1.00  0.00    -0.379 N 
BRANCH  14  15
HETATM   15  C6  UNL     1      22.232   3.563  50.096  1.00  0.00     0.138 C 
BRANCH  15  16
HETATM   16  C7  UNL     1      21.449   3.067  48.937  1.00  0.00     0.134 C 
HETATM   17 CL1  UNL     1      22.663   2.277  47.841  1.00  0.00    -0.129 Cl
ENDBRANCH  15  16
ENDBRANCH  14  15
BRANCH  14  18
HETATM   18  C8  UNL     1      21.330   1.999  51.938  1.00  0.00     0.138 C 
BRANCH  18  19
HETATM   19  C9  UNL     1      21.221   0.529  51.714  1.00  0.00     0.134 C 
HETATM   20 CL2  UNL     1      22.018  -0.365  53.071  1.00  0.00    -0.129 Cl
ENDBRANCH  18  19
ENDBRANCH  14  18
ENDBRANCH   4  14
TORSDOF 7
ENDMDL
