MODEL 1
REMARK VINA RESULT:      -8.4      0.000      0.000
REMARK  7 active torsions:
REMARK  status: ('A' for Active; 'I' for Inactive)
REMARK    1  A    between atoms: C6_8  and  C7_9 
REMARK    2  A    between atoms: C8_10  and  C9_11 
REMARK    3  A    between atoms: C9_11  and  N2_12 
REMARK    4  A    between atoms: C9_11  and  C10_13 
REMARK    5  A    between atoms: N3_14  and  C11_15 
REMARK    6  A    between atoms: C13_17  and  N4_18 
REMARK    7  A    between atoms: C14_20  and  N6_21 
ROOT
HETATM    1  C9  UNL     1      24.447   3.255  51.893  1.00  0.00     0.281 C 
ENDROOT
BRANCH   1   2
HETATM    2  C8  UNL     1      25.681   2.872  51.204  1.00  0.00     0.014 C 
HETATM    3  C7  UNL     1      26.671   2.073  51.459  1.00  0.00     0.014 C 
BRANCH   3   4
HETATM    4  C6  UNL     1      27.245   1.125  52.396  1.00  0.00     0.012 C 
HETATM    5  C1  UNL     1      28.163   1.576  53.464  1.00  0.00     0.167 C 
HETATM    6  N1  UNL     1      27.806   2.743  53.933  1.00  0.00    -0.277 NA
HETATM    7  O1  UNL     1      29.275   0.852  53.922  1.00  0.00    -0.334 OA
HETATM    8  H1  UNL     1      28.365   3.178  54.689  1.00  0.00     0.189 HD
HETATM    9  C2  UNL     1      29.387  -0.536  54.197  1.00  0.00     0.178 C 
HETATM   10  C3  UNL     1      28.836  -1.421  53.132  1.00  0.00     0.030 C 
HETATM   11  C4  UNL     1      27.306  -1.373  53.040  1.00  0.00     0.030 C 
HETATM   12  C5  UNL     1      26.914  -0.150  52.266  1.00  0.00    -0.011 C 
ENDBRANCH   3   4
ENDBRANCH   1   2
BRANCH   1  13
HETATM   13  N2  UNL     1      23.345   3.481  50.935  1.00  0.00     0.091 N 
HETATM   14  H12 UNL     1      22.439   3.461  51.455  1.00  0.00     0.314 HD
HETATM   15  H13 UNL     1      23.453   4.494  50.645  1.00  0.00     0.314 HD
ENDBRANCH   1  13
BRANCH   1  16
HETATM   16  C10 UNL     1      23.915   2.193  52.796  1.00  0.00     0.131 C 
HETATM   17  N3  UNL     1      23.271   1.216  52.262  1.00  0.00    -0.242 NA
BRANCH  17  18
HETATM   18  C11 UNL     1      22.783   0.223  53.185  1.00  0.00     0.171 A 
HETATM   19  C12 UNL     1      23.755  -0.225  54.082  1.00  0.00     0.103 A 
HETATM   20  C13 UNL     1      23.502  -1.181  55.060  1.00  0.00     0.144 A 
HETATM   21  N5  UNL     1      22.230  -1.667  55.096  1.00  0.00    -0.046 NA
HETATM   22  C14 UNL     1      21.311  -1.211  54.211  1.00  0.00     0.724 A 
HETATM   23  N7  UNL     1      21.538  -0.288  53.260  1.00  0.00    -0.043 NA
BRANCH  20  24
HETATM   24  N4  UNL     1      24.523  -1.607  55.953  1.00  0.00    -0.383 N 
HETATM   25  H16 UNL     1      24.543  -2.652  56.008  1.00  0.00     0.157 HD
HETATM   26  H17 UNL     1      25.064  -0.832  56.392  1.00  0.00     0.157 HD
ENDBRANCH  20  24
BRANCH  22  27
HETATM   27  N6  UNL     1      20.013  -1.764  54.312  1.00  0.00    -0.231 N 
HETATM   28  H18 UNL     1      19.226  -1.359  54.875  1.00  0.00     0.174 HD
HETATM   29  H19 UNL     1      19.640  -2.624  53.865  1.00  0.00     0.174 HD
ENDBRANCH  22  27
ENDBRANCH  17  18
ENDBRANCH   1  16
TORSDOF 7
ENDMDL
MODEL 2
REMARK VINA RESULT:      -7.6      2.993      5.602
REMARK  7 active torsions:
REMARK  status: ('A' for Active; 'I' for Inactive)
REMARK    1  A    between atoms: C6_8  and  C7_9 
REMARK    2  A    between atoms: C8_10  and  C9_11 
REMARK    3  A    between atoms: C9_11  and  N2_12 
REMARK    4  A    between atoms: C9_11  and  C10_13 
REMARK    5  A    between atoms: N3_14  and  C11_15 
REMARK    6  A    between atoms: C13_17  and  N4_18 
REMARK    7  A    between atoms: C14_20  and  N6_21 
ROOT
HETATM    1  C9  UNL     1      23.223   1.385  52.607  1.00  0.00     0.281 C 
ENDROOT
BRANCH   1   2
HETATM    2  C8  UNL     1      23.005   1.841  51.233  1.00  0.00     0.014 C 
HETATM    3  C7  UNL     1      23.551   2.723  50.455  1.00  0.00     0.014 C 
BRANCH   3   4
HETATM    4  C6  UNL     1      24.577   3.741  50.319  1.00  0.00     0.012 C 
HETATM    5  C1  UNL     1      24.442   5.048  50.997  1.00  0.00     0.167 C 
HETATM    6  N1  UNL     1      23.877   4.917  52.169  1.00  0.00    -0.277 NA
HETATM    7  O1  UNL     1      24.863   6.275  50.462  1.00  0.00    -0.334 OA
HETATM    8  H1  UNL     1      23.722   5.758  52.754  1.00  0.00     0.189 HD
HETATM    9  C2  UNL     1      26.061   6.584  49.767  1.00  0.00     0.178 C 
HETATM   10  C3  UNL     1      26.415   5.617  48.689  1.00  0.00     0.030 C 
HETATM   11  C4  UNL     1      26.857   4.251  49.226  1.00  0.00     0.030 C 
HETATM   12  C5  UNL     1      25.634   3.458  49.576  1.00  0.00    -0.011 C 
ENDBRANCH   3   4
ENDBRANCH   1   2
BRANCH   1  13
HETATM   13  N2  UNL     1      22.426   0.177  52.906  1.00  0.00     0.091 N 
HETATM   14  H12 UNL     1      22.180  -0.293  52.006  1.00  0.00     0.314 HD
HETATM   15  H13 UNL     1      23.116  -0.486  53.361  1.00  0.00     0.314 HD
ENDBRANCH   1  13
BRANCH   1  16
HETATM   16  C10 UNL     1      24.627   0.955  52.875  1.00  0.00     0.131 C 
HETATM   17  N3  UNL     1      24.844  -0.296  53.081  1.00  0.00    -0.242 NA
BRANCH  17  18
HETATM   18  C11 UNL     1      26.218  -0.649  53.334  1.00  0.00     0.171 A 
HETATM   19  C12 UNL     1      26.953   0.379  53.928  1.00  0.00     0.103 A 
HETATM   20  C13 UNL     1      28.298   0.255  54.261  1.00  0.00     0.144 A 
HETATM   21  N5  UNL     1      28.870  -0.945  53.970  1.00  0.00    -0.046 NA
HETATM   22  C14 UNL     1      28.129  -1.922  53.393  1.00  0.00     0.724 A 
HETATM   23  N7  UNL     1      26.829  -1.820  53.066  1.00  0.00    -0.043 NA
BRANCH  20  24
HETATM   24  N4  UNL     1      29.008   1.329  54.865  1.00  0.00    -0.383 N 
HETATM   25  H16 UNL     1      29.723   1.709  54.203  1.00  0.00     0.157 HD
HETATM   26  H17 UNL     1      28.707   1.552  55.838  1.00  0.00     0.157 HD
ENDBRANCH  20  24
BRANCH  22  27
HETATM   27  N6  UNL     1      28.795  -3.141  53.122  1.00  0.00    -0.231 N 
HETATM   28  H18 UNL     1      29.252  -3.390  52.213  1.00  0.00     0.174 HD
HETATM   29  H19 UNL     1      28.934  -3.955  53.752  1.00  0.00     0.174 HD
ENDBRANCH  22  27
ENDBRANCH  17  18
ENDBRANCH   1  16
TORSDOF 7
ENDMDL
MODEL 3
REMARK VINA RESULT:      -7.6      2.602      6.429
REMARK  7 active torsions:
REMARK  status: ('A' for Active; 'I' for Inactive)
REMARK    1  A    between atoms: C6_8  and  C7_9 
REMARK    2  A    between atoms: C8_10  and  C9_11 
REMARK    3  A    between atoms: C9_11  and  N2_12 
REMARK    4  A    between atoms: C9_11  and  C10_13 
REMARK    5  A    between atoms: N3_14  and  C11_15 
REMARK    6  A    between atoms: C13_17  and  N4_18 
REMARK    7  A    between atoms: C14_20  and  N6_21 
ROOT
HETATM    1  C9  UNL     1      27.857   0.967  53.804  1.00  0.00     0.281 C 
ENDROOT
BRANCH   1   2
HETATM    2  C8  UNL     1      27.275  -0.364  53.626  1.00  0.00     0.014 C 
HETATM    3  C7  UNL     1      26.089  -0.877  53.742  1.00  0.00     0.014 C 
BRANCH   3   4
HETATM    4  C6  UNL     1      24.694  -0.631  54.059  1.00  0.00     0.012 C 
HETATM    5  C1  UNL     1      24.074  -1.227  55.261  1.00  0.00     0.167 C 
HETATM    6  N1  UNL     1      24.918  -1.268  56.259  1.00  0.00    -0.277 NA
HETATM    7  O1  UNL     1      22.751  -1.689  55.334  1.00  0.00    -0.334 OA
HETATM    8  H1  UNL     1      24.612  -1.662  57.166  1.00  0.00     0.189 HD
HETATM    9  C2  UNL     1      21.566  -1.095  54.826  1.00  0.00     0.178 C 
HETATM   10  C3  UNL     1      21.670  -0.619  53.417  1.00  0.00     0.030 C 
HETATM   11  C4  UNL     1      22.577   0.608  53.261  1.00  0.00     0.030 C 
HETATM   12  C5  UNL     1      24.003   0.147  53.241  1.00  0.00    -0.011 C 
ENDBRANCH   3   4
ENDBRANCH   1   2
BRANCH   1  13
HETATM   13  N2  UNL     1      29.293   0.977  53.457  1.00  0.00     0.091 N 
HETATM   14  H12 UNL     1      29.431   1.583  52.617  1.00  0.00     0.314 HD
HETATM   15  H13 UNL     1      29.748   1.522  54.244  1.00  0.00     0.314 HD
ENDBRANCH   1  13
BRANCH   1  16
HETATM   16  C10 UNL     1      27.270   1.998  52.897  1.00  0.00     0.131 C 
HETATM   17  N3  UNL     1      27.074   1.676  51.668  1.00  0.00    -0.242 NA
BRANCH  17  18
HETATM   18  C11 UNL     1      26.507   2.713  50.843  1.00  0.00     0.171 A 
HETATM   19  C12 UNL     1      25.111   2.744  50.877  1.00  0.00     0.103 A 
HETATM   20  C13 UNL     1      24.355   3.665  50.158  1.00  0.00     0.144 A 
HETATM   21  N5  UNL     1      25.064   4.549  49.402  1.00  0.00    -0.046 NA
HETATM   22  C14 UNL     1      26.417   4.491  49.391  1.00  0.00     0.724 A 
HETATM   23  N7  UNL     1      27.163   3.609  50.080  1.00  0.00    -0.043 NA
BRANCH  20  24
HETATM   24  N4  UNL     1      22.935   3.661  50.222  1.00  0.00    -0.383 N 
HETATM   25  H16 UNL     1      22.532   3.306  49.324  1.00  0.00     0.157 HD
HETATM   26  H17 UNL     1      22.543   4.002  51.126  1.00  0.00     0.157 HD
ENDBRANCH  20  24
BRANCH  22  27
HETATM   27  N6  UNL     1      27.082   5.443  48.583  1.00  0.00    -0.231 N 
HETATM   28  H18 UNL     1      27.269   6.438  48.853  1.00  0.00     0.174 HD
HETATM   29  H19 UNL     1      27.477   5.319  47.631  1.00  0.00     0.174 HD
ENDBRANCH  22  27
ENDBRANCH  17  18
ENDBRANCH   1  16
TORSDOF 7
ENDMDL
MODEL 4
REMARK VINA RESULT:      -7.5      2.878      5.820
REMARK  7 active torsions:
REMARK  status: ('A' for Active; 'I' for Inactive)
REMARK    1  A    between atoms: C6_8  and  C7_9 
REMARK    2  A    between atoms: C8_10  and  C9_11 
REMARK    3  A    between atoms: C9_11  and  N2_12 
REMARK    4  A    between atoms: C9_11  and  C10_13 
REMARK    5  A    between atoms: N3_14  and  C11_15 
REMARK    6  A    between atoms: C13_17  and  N4_18 
REMARK    7  A    between atoms: C14_20  and  N6_21 
ROOT
HETATM    1  C9  UNL     1      24.226   3.304  51.112  1.00  0.00     0.281 C 
ENDROOT
BRANCH   1   2
HETATM    2  C8  UNL     1      22.868   3.355  51.656  1.00  0.00     0.014 C 
HETATM    3  C7  UNL     1      22.069   2.507  52.226  1.00  0.00     0.014 C 
BRANCH   3   4
HETATM    4  C6  UNL     1      21.890   1.143  52.691  1.00  0.00     0.012 C 
HETATM    5  C1  UNL     1      20.635   0.410  52.422  1.00  0.00     0.167 C 
HETATM    6  N1  UNL     1      20.154   0.710  51.244  1.00  0.00    -0.277 NA
HETATM    7  O1  UNL     1      20.030  -0.495  53.309  1.00  0.00    -0.334 OA
HETATM    8  H1  UNL     1      19.274   0.264  50.927  1.00  0.00     0.189 HD
HETATM    9  C2  UNL     1      20.633  -1.503  54.106  1.00  0.00     0.178 C 
HETATM   10  C3  UNL     1      21.834  -1.054  54.865  1.00  0.00     0.030 C 
HETATM   11  C4  UNL     1      23.046  -0.778  53.966  1.00  0.00     0.030 C 
HETATM   12  C5  UNL     1      22.887   0.582  53.356  1.00  0.00    -0.011 C 
ENDBRANCH   3   4
ENDBRANCH   1   2
BRANCH   1  13
HETATM   13  N2  UNL     1      24.803   4.657  50.979  1.00  0.00     0.091 N 
HETATM   14  H12 UNL     1      24.817   4.918  49.967  1.00  0.00     0.314 HD
HETATM   15  H13 UNL     1      24.070   5.297  51.399  1.00  0.00     0.314 HD
ENDBRANCH   1  13
BRANCH   1  16
HETATM   16  C10 UNL     1      25.196   2.595  51.999  1.00  0.00     0.131 C 
HETATM   17  N3  UNL     1      25.743   1.520  51.553  1.00  0.00    -0.242 NA
BRANCH  17  18
HETATM   18  C11 UNL     1      26.669   0.881  52.455  1.00  0.00     0.171 A 
HETATM   19  C12 UNL     1      26.727  -0.505  52.296  1.00  0.00     0.103 A 
HETATM   20  C13 UNL     1      27.555  -1.321  53.060  1.00  0.00     0.144 A 
HETATM   21  N5  UNL     1      28.317  -0.684  53.991  1.00  0.00    -0.046 NA
HETATM   22  C14 UNL     1      28.236   0.662  54.119  1.00  0.00     0.724 A 
HETATM   23  N7  UNL     1      27.443   1.466  53.389  1.00  0.00    -0.043 NA
BRANCH  20  24
HETATM   24  N4  UNL     1      27.583  -2.730  52.864  1.00  0.00    -0.383 N 
HETATM   25  H16 UNL     1      28.364  -2.990  52.219  1.00  0.00     0.157 HD
HETATM   26  H17 UNL     1      26.843  -3.252  53.380  1.00  0.00     0.157 HD
ENDBRANCH  20  24
BRANCH  22  27
HETATM   27  N6  UNL     1      29.060   1.252  55.107  1.00  0.00    -0.231 N 
HETATM   28  H18 UNL     1      28.818   2.106  55.664  1.00  0.00     0.174 HD
HETATM   29  H19 UNL     1      30.000   0.949  55.429  1.00  0.00     0.174 HD
ENDBRANCH  22  27
ENDBRANCH  17  18
ENDBRANCH   1  16
TORSDOF 7
ENDMDL
MODEL 5
REMARK VINA RESULT:      -7.3      3.027      5.391
REMARK  7 active torsions:
REMARK  status: ('A' for Active; 'I' for Inactive)
REMARK    1  A    between atoms: C6_8  and  C7_9 
REMARK    2  A    between atoms: C8_10  and  C9_11 
REMARK    3  A    between atoms: C9_11  and  N2_12 
REMARK    4  A    between atoms: C9_11  and  C10_13 
REMARK    5  A    between atoms: N3_14  and  C11_15 
REMARK    6  A    between atoms: C13_17  and  N4_18 
REMARK    7  A    between atoms: C14_20  and  N6_21 
ROOT
HETATM    1  C9  UNL     1      25.701   3.947  49.663  1.00  0.00     0.281 C 
ENDROOT
BRANCH   1   2
HETATM    2  C8  UNL     1      24.443   3.484  49.075  1.00  0.00     0.014 C 
HETATM    3  C7  UNL     1      23.411   2.824  49.502  1.00  0.00     0.014 C 
BRANCH   3   4
HETATM    4  C6  UNL     1      22.789   2.158  50.632  1.00  0.00     0.012 C 
HETATM    5  C1  UNL     1      23.017   2.636  52.012  1.00  0.00     0.167 C 
HETATM    6  N1  UNL     1      23.098   3.940  52.055  1.00  0.00    -0.277 NA
HETATM    7  O1  UNL     1      23.131   1.806  53.138  1.00  0.00    -0.334 OA
HETATM    8  H1  UNL     1      23.256   4.409  52.965  1.00  0.00     0.189 HD
HETATM    9  C2  UNL     1      22.359   0.668  53.493  1.00  0.00     0.178 C 
HETATM   10  C3  UNL     1      22.155  -0.308  52.385  1.00  0.00     0.030 C 
HETATM   11  C4  UNL     1      21.223   0.215  51.285  1.00  0.00     0.030 C 
HETATM   12  C5  UNL     1      22.010   1.117  50.383  1.00  0.00    -0.011 C 
ENDBRANCH   3   4
ENDBRANCH   1   2
BRANCH   1  13
HETATM   13  N2  UNL     1      25.468   5.012  50.660  1.00  0.00     0.091 N 
HETATM   14  H12 UNL     1      26.200   5.748  50.541  1.00  0.00     0.314 HD
HETATM   15  H13 UNL     1      24.576   5.483  50.337  1.00  0.00     0.314 HD
ENDBRANCH   1  13
BRANCH   1  16
HETATM   16  C10 UNL     1      26.420   2.892  50.437  1.00  0.00     0.131 C 
HETATM   17  N3  UNL     1      26.197   2.817  51.701  1.00  0.00    -0.242 NA
BRANCH  17  18
HETATM   18  C11 UNL     1      26.920   1.780  52.393  1.00  0.00     0.171 A 
HETATM   19  C12 UNL     1      27.939   2.269  53.212  1.00  0.00     0.103 A 
HETATM   20  C13 UNL     1      28.762   1.444  53.973  1.00  0.00     0.144 A 
HETATM   21  N5  UNL     1      28.515   0.109  53.872  1.00  0.00    -0.046 NA
HETATM   22  C14 UNL     1      27.518  -0.332  53.068  1.00  0.00     0.724 A 
HETATM   23  N7  UNL     1      26.714   0.450  52.327  1.00  0.00    -0.043 NA
BRANCH  20  24
HETATM   24  N4  UNL     1      29.789   1.985  54.794  1.00  0.00    -0.383 N 
HETATM   25  H16 UNL     1      29.558   1.844  55.804  1.00  0.00     0.157 HD
HETATM   26  H17 UNL     1      30.578   2.420  54.269  1.00  0.00     0.157 HD
ENDBRANCH  20  24
BRANCH  22  27
HETATM   27  N6  UNL     1      27.323  -1.733  53.017  1.00  0.00    -0.231 N 
HETATM   28  H18 UNL     1      26.429  -2.226  53.255  1.00  0.00     0.174 HD
HETATM   29  H19 UNL     1      28.003  -2.471  52.749  1.00  0.00     0.174 HD
ENDBRANCH  22  27
ENDBRANCH  17  18
ENDBRANCH   1  16
TORSDOF 7
ENDMDL
MODEL 6
REMARK VINA RESULT:      -7.3      2.656      5.412
REMARK  7 active torsions:
REMARK  status: ('A' for Active; 'I' for Inactive)
REMARK    1  A    between atoms: C6_8  and  C7_9 
REMARK    2  A    between atoms: C8_10  and  C9_11 
REMARK    3  A    between atoms: C9_11  and  N2_12 
REMARK    4  A    between atoms: C9_11  and  C10_13 
REMARK    5  A    between atoms: N3_14  and  C11_15 
REMARK    6  A    between atoms: C13_17  and  N4_18 
REMARK    7  A    between atoms: C14_20  and  N6_21 
ROOT
HETATM    1  C9  UNL     1      25.747   3.834  49.848  1.00  0.00     0.281 C 
ENDROOT
BRANCH   1   2
HETATM    2  C8  UNL     1      24.513   3.388  49.198  1.00  0.00     0.014 C 
HETATM    3  C7  UNL     1      23.448   2.751  49.577  1.00  0.00     0.014 C 
BRANCH   3   4
HETATM    4  C6  UNL     1      22.755   2.108  50.678  1.00  0.00     0.012 C 
HETATM    5  C1  UNL     1      22.931   2.586  52.066  1.00  0.00     0.167 C 
HETATM    6  N1  UNL     1      23.047   3.887  52.108  1.00  0.00    -0.277 NA
HETATM    7  O1  UNL     1      22.968   1.758  53.199  1.00  0.00    -0.334 OA
HETATM    8  H1  UNL     1      23.175   4.356  53.024  1.00  0.00     0.189 HD
HETATM    9  C2  UNL     1      22.149   0.644  53.520  1.00  0.00     0.178 C 
HETATM   10  C3  UNL     1      21.971  -0.331  52.407  1.00  0.00     0.030 C 
HETATM   11  C4  UNL     1      21.107   0.212  51.263  1.00  0.00     0.030 C 
HETATM   12  C5  UNL     1      21.960   1.089  50.396  1.00  0.00    -0.011 C 
ENDBRANCH   3   4
ENDBRANCH   1   2
BRANCH   1  13
HETATM   13  N2  UNL     1      25.482   4.905  50.830  1.00  0.00     0.091 N 
HETATM   14  H12 UNL     1      24.894   4.514  51.601  1.00  0.00     0.314 HD
HETATM   15  H13 UNL     1      26.422   5.079  51.287  1.00  0.00     0.314 HD
ENDBRANCH   1  13
BRANCH   1  16
HETATM   16  C10 UNL     1      26.410   2.770  50.658  1.00  0.00     0.131 C 
HETATM   17  N3  UNL     1      26.313   2.841  51.939  1.00  0.00    -0.242 NA
BRANCH  17  18
HETATM   18  C11 UNL     1      26.973   1.786  52.666  1.00  0.00     0.171 A 
HETATM   19  C12 UNL     1      26.089   0.934  53.329  1.00  0.00     0.103 A 
HETATM   20  C13 UNL     1      26.509  -0.152  54.090  1.00  0.00     0.144 A 
HETATM   21  N5  UNL     1      27.856  -0.342  54.155  1.00  0.00    -0.046 NA
HETATM   22  C14 UNL     1      28.686   0.504  53.501  1.00  0.00     0.724 A 
HETATM   23  N7  UNL     1      28.298   1.557  52.761  1.00  0.00    -0.043 NA
BRANCH  20  24
HETATM   24  N4  UNL     1      25.572  -0.996  54.749  1.00  0.00    -0.383 N 
HETATM   25  H16 UNL     1      25.195  -0.522  55.602  1.00  0.00     0.157 HD
HETATM   26  H17 UNL     1      25.421  -1.917  54.286  1.00  0.00     0.157 HD
ENDBRANCH  20  24
BRANCH  22  27
HETATM   27  N6  UNL     1      30.072   0.241  53.616  1.00  0.00    -0.231 N 
HETATM   28  H18 UNL     1      30.655  -0.252  52.898  1.00  0.00     0.174 HD
HETATM   29  H19 UNL     1      30.712   0.482  54.398  1.00  0.00     0.174 HD
ENDBRANCH  22  27
ENDBRANCH  17  18
ENDBRANCH   1  16
TORSDOF 7
ENDMDL
MODEL 7
REMARK VINA RESULT:      -7.2      2.140      5.477
REMARK  7 active torsions:
REMARK  status: ('A' for Active; 'I' for Inactive)
REMARK    1  A    between atoms: C6_8  and  C7_9 
REMARK    2  A    between atoms: C8_10  and  C9_11 
REMARK    3  A    between atoms: C9_11  and  N2_12 
REMARK    4  A    between atoms: C9_11  and  C10_13 
REMARK    5  A    between atoms: N3_14  and  C11_15 
REMARK    6  A    between atoms: C13_17  and  N4_18 
REMARK    7  A    between atoms: C14_20  and  N6_21 
ROOT
HETATM    1  C9  UNL     1      22.347   0.650  51.864  1.00  0.00     0.281 C 
ENDROOT
BRANCH   1   2
HETATM    2  C8  UNL     1      22.561  -0.043  53.136  1.00  0.00     0.014 C 
HETATM    3  C7  UNL     1      23.598  -0.432  53.812  1.00  0.00     0.014 C 
BRANCH   3   4
HETATM    4  C6  UNL     1      25.047  -0.493  53.870  1.00  0.00     0.012 C 
HETATM    5  C1  UNL     1      25.752  -0.553  55.168  1.00  0.00     0.167 C 
HETATM    6  N1  UNL     1      25.086  -1.269  56.036  1.00  0.00    -0.277 NA
HETATM    7  O1  UNL     1      26.978   0.073  55.443  1.00  0.00    -0.334 OA
HETATM    8  H1  UNL     1      25.469  -1.394  56.991  1.00  0.00     0.189 HD
HETATM    9  C2  UNL     1      28.143   0.150  54.636  1.00  0.00     0.178 C 
HETATM   10  C3  UNL     1      27.888   0.536  53.220  1.00  0.00     0.030 C 
HETATM   11  C4  UNL     1      27.176  -0.558  52.415  1.00  0.00     0.030 C 
HETATM   12  C5  UNL     1      25.710  -0.500  52.725  1.00  0.00    -0.011 C 
ENDBRANCH   3   4
ENDBRANCH   1   2
BRANCH   1  13
HETATM   13  N2  UNL     1      20.943   1.089  51.722  1.00  0.00     0.091 N 
HETATM   14  H12 UNL     1      20.316   0.283  51.939  1.00  0.00     0.314 HD
HETATM   15  H13 UNL     1      20.794   1.756  52.531  1.00  0.00     0.314 HD
ENDBRANCH   1  13
BRANCH   1  16
HETATM   16  C10 UNL     1      23.126   1.917  51.738  1.00  0.00     0.131 C 
HETATM   17  N3  UNL     1      22.855   2.694  50.750  1.00  0.00    -0.242 NA
BRANCH  17  18
HETATM   18  C11 UNL     1      23.640   3.900  50.682  1.00  0.00     0.171 A 
HETATM   19  C12 UNL     1      24.865   3.726  50.035  1.00  0.00     0.103 A 
HETATM   20  C13 UNL     1      25.781   4.758  49.855  1.00  0.00     0.144 A 
HETATM   21  N5  UNL     1      25.412   5.969  50.355  1.00  0.00    -0.046 NA
HETATM   22  C14 UNL     1      24.216   6.104  50.978  1.00  0.00     0.724 A 
HETATM   23  N7  UNL     1      23.319   5.118  51.159  1.00  0.00    -0.043 NA
BRANCH  20  24
HETATM   24  N4  UNL     1      27.018   4.536  49.190  1.00  0.00    -0.383 N 
HETATM   25  H16 UNL     1      27.191   5.290  48.485  1.00  0.00     0.157 HD
HETATM   26  H17 UNL     1      27.531   3.685  49.504  1.00  0.00     0.157 HD
ENDBRANCH  20  24
BRANCH  22  27
HETATM   27  N6  UNL     1      23.903   7.393  51.469  1.00  0.00    -0.231 N 
HETATM   28  H18 UNL     1      23.777   7.639  52.480  1.00  0.00     0.174 HD
HETATM   29  H19 UNL     1      23.753   8.270  50.934  1.00  0.00     0.174 HD
ENDBRANCH  22  27
ENDBRANCH  17  18
ENDBRANCH   1  16
TORSDOF 7
ENDMDL
MODEL 8
REMARK VINA RESULT:      -7.2      3.157      5.995
REMARK  7 active torsions:
REMARK  status: ('A' for Active; 'I' for Inactive)
REMARK    1  A    between atoms: C6_8  and  C7_9 
REMARK    2  A    between atoms: C8_10  and  C9_11 
REMARK    3  A    between atoms: C9_11  and  N2_12 
REMARK    4  A    between atoms: C9_11  and  C10_13 
REMARK    5  A    between atoms: N3_14  and  C11_15 
REMARK    6  A    between atoms: C13_17  and  N4_18 
REMARK    7  A    between atoms: C14_20  and  N6_21 
ROOT
HETATM    1  C9  UNL     1      22.473  -0.554  54.071  1.00  0.00     0.281 C 
ENDROOT
BRANCH   1   2
HETATM    2  C8  UNL     1      22.113   0.827  53.746  1.00  0.00     0.014 C 
HETATM    3  C7  UNL     1      22.088   1.545  52.665  1.00  0.00     0.014 C 
BRANCH   3   4
HETATM    4  C6  UNL     1      22.329   1.580  51.235  1.00  0.00     0.012 C 
HETATM    5  C1  UNL     1      23.542   2.223  50.686  1.00  0.00     0.167 C 
HETATM    6  N1  UNL     1      24.574   2.028  51.463  1.00  0.00    -0.277 NA
HETATM    7  O1  UNL     1      23.590   2.949  49.486  1.00  0.00    -0.334 OA
HETATM    8  H1  UNL     1      25.493   2.425  51.196  1.00  0.00     0.189 HD
HETATM    9  C2  UNL     1      22.993   2.648  48.234  1.00  0.00     0.178 C 
HETATM   10  C3  UNL     1      21.561   2.243  48.315  1.00  0.00     0.030 C 
HETATM   11  C4  UNL     1      21.360   0.864  48.954  1.00  0.00     0.030 C 
HETATM   12  C5  UNL     1      21.432   1.014  50.443  1.00  0.00    -0.011 C 
ENDBRANCH   3   4
ENDBRANCH   1   2
BRANCH   1  13
HETATM   13  N2  UNL     1      22.099  -1.478  52.980  1.00  0.00     0.091 N 
HETATM   14  H12 UNL     1      22.052  -0.939  52.086  1.00  0.00     0.314 HD
HETATM   15  H13 UNL     1      22.949  -2.100  52.860  1.00  0.00     0.314 HD
ENDBRANCH   1  13
BRANCH   1  16
HETATM   16  C10 UNL     1      23.943  -0.767  54.222  1.00  0.00     0.131 C 
HETATM   17  N3  UNL     1      24.674  -0.685  53.168  1.00  0.00    -0.242 NA
BRANCH  17  18
HETATM   18  C11 UNL     1      26.084  -0.900  53.378  1.00  0.00     0.171 A 
HETATM   19  C12 UNL     1      26.730   0.196  53.953  1.00  0.00     0.103 A 
HETATM   20  C13 UNL     1      28.090   0.207  54.245  1.00  0.00     0.144 A 
HETATM   21  N5  UNL     1      28.770  -0.931  53.932  1.00  0.00    -0.046 NA
HETATM   22  C14 UNL     1      28.113  -1.976  53.374  1.00  0.00     0.724 A 
HETATM   23  N7  UNL     1      26.800  -2.003  53.086  1.00  0.00    -0.043 NA
BRANCH  20  24
HETATM   24  N4  UNL     1      28.708   1.345  54.831  1.00  0.00    -0.383 N 
HETATM   25  H16 UNL     1      29.653   1.094  55.204  1.00  0.00     0.157 HD
HETATM   26  H17 UNL     1      28.134   2.214  54.795  1.00  0.00     0.157 HD
ENDBRANCH  20  24
BRANCH  22  27
HETATM   27  N6  UNL     1      28.888  -3.122  53.078  1.00  0.00    -0.231 N 
HETATM   28  H18 UNL     1      29.679  -3.155  52.391  1.00  0.00     0.174 HD
HETATM   29  H19 UNL     1      28.805  -4.078  53.475  1.00  0.00     0.174 HD
ENDBRANCH  22  27
ENDBRANCH  17  18
ENDBRANCH   1  16
TORSDOF 7
ENDMDL
MODEL 9
REMARK VINA RESULT:      -7.0      3.212      6.498
REMARK  7 active torsions:
REMARK  status: ('A' for Active; 'I' for Inactive)
REMARK    1  A    between atoms: C6_8  and  C7_9 
REMARK    2  A    between atoms: C8_10  and  C9_11 
REMARK    3  A    between atoms: C9_11  and  N2_12 
REMARK    4  A    between atoms: C9_11  and  C10_13 
REMARK    5  A    between atoms: N3_14  and  C11_15 
REMARK    6  A    between atoms: C13_17  and  N4_18 
REMARK    7  A    between atoms: C14_20  and  N6_21 
ROOT
HETATM    1  C9  UNL     1      22.098  -0.234  53.782  1.00  0.00     0.281 C 
ENDROOT
BRANCH   1   2
HETATM    2  C8  UNL     1      21.660   0.213  52.459  1.00  0.00     0.014 C 
HETATM    3  C7  UNL     1      21.556   1.358  51.858  1.00  0.00     0.014 C 
BRANCH   3   4
HETATM    4  C6  UNL     1      21.739   2.794  51.960  1.00  0.00     0.012 C 
HETATM    5  C1  UNL     1      20.604   3.719  51.759  1.00  0.00     0.167 C 
HETATM    6  N1  UNL     1      19.496   3.220  52.240  1.00  0.00    -0.277 NA
HETATM    7  O1  UNL     1      20.694   4.973  51.135  1.00  0.00    -0.334 OA
HETATM    8  H1  UNL     1      18.619   3.767  52.167  1.00  0.00     0.189 HD
HETATM    9  C2  UNL     1      21.687   5.976  51.282  1.00  0.00     0.178 C 
HETATM   10  C3  UNL     1      23.087   5.472  51.207  1.00  0.00     0.030 C 
HETATM   11  C4  UNL     1      23.491   4.630  52.424  1.00  0.00     0.030 C 
HETATM   12  C5  UNL     1      22.951   3.243  52.244  1.00  0.00    -0.011 C 
ENDBRANCH   3   4
ENDBRANCH   1   2
BRANCH   1  13
HETATM   13  N2  UNL     1      21.502  -1.540  54.133  1.00  0.00     0.091 N 
HETATM   14  H12 UNL     1      22.194  -2.083  54.698  1.00  0.00     0.314 HD
HETATM   15  H13 UNL     1      20.736  -1.302  54.825  1.00  0.00     0.314 HD
ENDBRANCH   1  13
BRANCH   1  16
HETATM   16  C10 UNL     1      23.567  -0.483  53.870  1.00  0.00     0.131 C 
HETATM   17  N3  UNL     1      24.353   0.534  53.827  1.00  0.00    -0.242 NA
BRANCH  17  18
HETATM   18  C11 UNL     1      25.759   0.230  53.916  1.00  0.00     0.171 A 
HETATM   19  C12 UNL     1      26.090  -1.016  53.381  1.00  0.00     0.103 A 
HETATM   20  C13 UNL     1      27.390  -1.511  53.360  1.00  0.00     0.144 A 
HETATM   21  N5  UNL     1      28.340  -0.700  53.901  1.00  0.00    -0.046 NA
HETATM   22  C14 UNL     1      27.985   0.504  54.412  1.00  0.00     0.724 A 
HETATM   23  N7  UNL     1      26.734   0.998  54.440  1.00  0.00    -0.043 NA
BRANCH  20  24
HETATM   24  N4  UNL     1      27.682  -2.788  52.805  1.00  0.00    -0.383 N 
HETATM   25  H16 UNL     1      26.808  -3.357  52.724  1.00  0.00     0.157 HD
HETATM   26  H17 UNL     1      28.688  -2.940  52.578  1.00  0.00     0.157 HD
ENDBRANCH  20  24
BRANCH  22  27
HETATM   27  N6  UNL     1      29.028   1.290  54.955  1.00  0.00    -0.231 N 
HETATM   28  H18 UNL     1      29.101   1.587  55.958  1.00  0.00     0.174 HD
HETATM   29  H19 UNL     1      29.857   1.686  54.472  1.00  0.00     0.174 HD
ENDBRANCH  22  27
ENDBRANCH  17  18
ENDBRANCH   1  16
TORSDOF 7
ENDMDL
