MODEL 1
REMARK VINA RESULT:      -8.7      0.000      0.000
REMARK  3 active torsions:
REMARK  status: ('A' for Active; 'I' for Inactive)
REMARK    1  A    between atoms: C4_5  and  N2_6 
REMARK    2  A    between atoms: N2_6  and  C5_7 
REMARK    3  A    between atoms: C13_19  and  O3_20 
ROOT
HETATM    1  N1  UNL     1      29.760   2.122  54.959  1.00  0.00    -0.191 NA
HETATM    2  C1  UNL     1      29.019   1.390  54.504  1.00  0.00     0.102 C 
HETATM    3  C2  UNL     1      28.096   0.451  53.941  1.00  0.00     0.085 A 
HETATM    4  C3  UNL     1      26.776   0.776  54.056  1.00  0.00     0.055 A 
HETATM    5  C4  UNL     1      25.764  -0.056  53.550  1.00  0.00     0.035 A 
HETATM    6  C15 UNL     1      26.126  -1.246  52.907  1.00  0.00     0.032 A 
HETATM    7  C16 UNL     1      27.477  -1.612  52.772  1.00  0.00     0.046 A 
HETATM    8  C17 UNL     1      28.377  -0.727  53.306  1.00  0.00     0.137 A 
HETATM    9  F1  UNL     1      29.710  -0.957  53.248  1.00  0.00    -0.204 F 
ENDROOT
BRANCH   5  10
HETATM   10  N2  UNL     1      24.382  -0.054  53.540  1.00  0.00    -0.340 N 
HETATM   11  H2  UNL     1      24.427   0.987  53.799  1.00  0.00     0.167 HD
BRANCH  10  12
HETATM   12  C5  UNL     1      22.995  -0.015  53.534  1.00  0.00     0.140 A 
HETATM   13  N3  UNL     1      22.521  -1.185  54.077  1.00  0.00    -0.224 NA
HETATM   14  C6  UNL     1      21.137  -1.179  54.149  1.00  0.00     0.235 A 
HETATM   15  N4  UNL     1      20.362  -0.163  53.738  1.00  0.00    -0.241 NA
HETATM   16  C7  UNL     1      20.798   0.960  53.212  1.00  0.00     0.072 A 
HETATM   17  C8  UNL     1      22.213   1.031  53.105  1.00  0.00     0.040 A 
HETATM   18  C14 UNL     1      20.322   2.241  52.704  1.00  0.00     0.066 C 
HETATM   19  C9  UNL     1      22.839   2.242  52.548  1.00  0.00     0.212 C 
HETATM   20  O1  UNL     1      22.411   2.766  51.408  1.00  0.00    -0.384 OA
HETATM   21  C10 UNL     1      22.454   2.290  50.186  1.00  0.00     0.194 C 
HETATM   22  C11 UNL     1      21.795   1.102  49.677  1.00  0.00     0.194 C 
HETATM   23  O2  UNL     1      20.481   0.926  49.658  1.00  0.00    -0.383 OA
HETATM   24  C12 UNL     1      19.788   0.877  50.793  1.00  0.00     0.231 C 
HETATM   25  C13 UNL     1      19.817   2.189  51.497  1.00  0.00     0.069 C 
BRANCH  25  26
HETATM   26  O3  UNL     1      19.417   3.455  51.184  1.00  0.00    -0.363 OA
HETATM   27  H12 UNL     1      18.690   3.631  50.509  1.00  0.00     0.217 HD
ENDBRANCH  25  26
ENDBRANCH  10  12
ENDBRANCH   5  10
TORSDOF 3
ENDMDL
MODEL 2
REMARK VINA RESULT:      -8.0      2.188      2.742
REMARK  3 active torsions:
REMARK  status: ('A' for Active; 'I' for Inactive)
REMARK    1  A    between atoms: C4_5  and  N2_6 
REMARK    2  A    between atoms: N2_6  and  C5_7 
REMARK    3  A    between atoms: C13_19  and  O3_20 
ROOT
HETATM    1  N1  UNL     1      28.721  -2.808  53.196  1.00  0.00    -0.191 NA
HETATM    2  C1  UNL     1      28.296  -1.756  53.243  1.00  0.00     0.102 C 
HETATM    3  C2  UNL     1      27.775  -0.423  53.289  1.00  0.00     0.085 A 
HETATM    4  C3  UNL     1      26.427  -0.307  53.119  1.00  0.00     0.055 A 
HETATM    5  C4  UNL     1      25.784   0.942  53.140  1.00  0.00     0.035 A 
HETATM    6  C15 UNL     1      26.553   2.094  53.344  1.00  0.00     0.032 A 
HETATM    7  C16 UNL     1      27.946   2.011  53.521  1.00  0.00     0.046 A 
HETATM    8  C17 UNL     1      28.464   0.743  53.479  1.00  0.00     0.137 A 
HETATM    9  F1  UNL     1      29.790   0.519  53.632  1.00  0.00    -0.204 F 
ENDROOT
BRANCH   5  10
HETATM   10  N2  UNL     1      24.494   1.404  52.959  1.00  0.00    -0.340 N 
HETATM   11  H2  UNL     1      24.432   0.759  52.103  1.00  0.00     0.167 HD
BRANCH  10  12
HETATM   12  C5  UNL     1      23.194   1.842  52.749  1.00  0.00     0.140 A 
HETATM   13  N3  UNL     1      22.328   0.864  53.175  1.00  0.00    -0.224 NA
HETATM   14  C6  UNL     1      21.010   1.269  53.041  1.00  0.00     0.235 A 
HETATM   15  N4  UNL     1      20.631   2.461  52.556  1.00  0.00    -0.241 NA
HETATM   16  C7  UNL     1      21.444   3.406  52.140  1.00  0.00     0.072 A 
HETATM   17  C8  UNL     1      22.820   3.065  52.246  1.00  0.00     0.040 A 
HETATM   18  C14 UNL     1      21.438   4.765  51.611  1.00  0.00     0.066 C 
HETATM   19  C9  UNL     1      23.843   4.039  51.830  1.00  0.00     0.212 C 
HETATM   20  O1  UNL     1      23.762   4.653  50.658  1.00  0.00    -0.384 OA
HETATM   21  C10 UNL     1      23.851   4.173  49.440  1.00  0.00     0.194 C 
HETATM   22  C11 UNL     1      22.965   3.221  48.798  1.00  0.00     0.194 C 
HETATM   23  O2  UNL     1      21.674   3.431  48.579  1.00  0.00    -0.383 OA
HETATM   24  C12 UNL     1      20.832   3.595  49.597  1.00  0.00     0.231 C 
HETATM   25  C13 UNL     1      21.128   4.849  50.342  1.00  0.00     0.069 C 
BRANCH  25  26
HETATM   26  O3  UNL     1      21.160   6.173  50.018  1.00  0.00    -0.363 OA
HETATM   27  H12 UNL     1      20.446   6.814  50.326  1.00  0.00     0.217 HD
ENDBRANCH  25  26
ENDBRANCH  10  12
ENDBRANCH   5  10
TORSDOF 3
ENDMDL
MODEL 3
REMARK VINA RESULT:      -7.8      5.016      6.971
REMARK  3 active torsions:
REMARK  status: ('A' for Active; 'I' for Inactive)
REMARK    1  A    between atoms: C4_5  and  N2_6 
REMARK    2  A    between atoms: N2_6  and  C5_7 
REMARK    3  A    between atoms: C13_19  and  O3_20 
ROOT
HETATM    1  N1  UNL     1      25.422   9.418  48.651  1.00  0.00    -0.191 NA
HETATM    2  C1  UNL     1      25.744   8.336  48.778  1.00  0.00     0.102 C 
HETATM    3  C2  UNL     1      26.169   6.978  48.940  1.00  0.00     0.085 A 
HETATM    4  C3  UNL     1      25.390   6.207  49.753  1.00  0.00     0.055 A 
HETATM    5  C4  UNL     1      25.693   4.858  50.001  1.00  0.00     0.035 A 
HETATM    6  C15 UNL     1      26.822   4.296  49.394  1.00  0.00     0.032 A 
HETATM    7  C16 UNL     1      27.648   5.063  48.552  1.00  0.00     0.046 A 
HETATM    8  C17 UNL     1      27.258   6.366  48.385  1.00  0.00     0.137 A 
HETATM    9  F1  UNL     1      27.963   7.217  47.603  1.00  0.00    -0.204 F 
ENDROOT
BRANCH   5  10
HETATM   10  N2  UNL     1      25.168   3.844  50.780  1.00  0.00    -0.340 N 
HETATM   11  H2  UNL     1      26.102   3.828  51.309  1.00  0.00     0.167 HD
BRANCH  10  12
HETATM   12  C5  UNL     1      24.670   2.828  51.584  1.00  0.00     0.140 A 
HETATM   13  N3  UNL     1      23.446   3.216  52.074  1.00  0.00    -0.224 NA
HETATM   14  C6  UNL     1      22.874   2.216  52.842  1.00  0.00     0.235 A 
HETATM   15  N4  UNL     1      23.445   1.024  53.079  1.00  0.00    -0.241 NA
HETATM   16  C7  UNL     1      24.616   0.638  52.623  1.00  0.00     0.072 A 
HETATM   17  C8  UNL     1      25.268   1.614  51.822  1.00  0.00     0.040 A 
HETATM   18  C14 UNL     1      25.516  -0.509  52.619  1.00  0.00     0.066 C 
HETATM   19  C9  UNL     1      26.582   1.308  51.232  1.00  0.00     0.212 C 
HETATM   20  O1  UNL     1      27.560   0.805  51.972  1.00  0.00    -0.384 OA
HETATM   21  C10 UNL     1      28.230   1.335  52.968  1.00  0.00     0.194 C 
HETATM   22  C11 UNL     1      27.713   1.753  54.257  1.00  0.00     0.194 C 
HETATM   23  O2  UNL     1      27.136   0.939  55.130  1.00  0.00    -0.383 OA
HETATM   24  C12 UNL     1      25.999   0.317  54.827  1.00  0.00     0.231 C 
HETATM   25  C13 UNL     1      26.200  -0.663  53.724  1.00  0.00     0.069 C 
BRANCH  25  26
HETATM   26  O3  UNL     1      26.975  -1.772  53.556  1.00  0.00    -0.363 OA
HETATM   27  H12 UNL     1      27.257  -2.090  52.642  1.00  0.00     0.217 HD
ENDBRANCH  25  26
ENDBRANCH  10  12
ENDBRANCH   5  10
TORSDOF 3
ENDMDL
MODEL 4
REMARK VINA RESULT:      -7.8      3.099      4.707
REMARK  3 active torsions:
REMARK  status: ('A' for Active; 'I' for Inactive)
REMARK    1  A    between atoms: C4_5  and  N2_6 
REMARK    2  A    between atoms: N2_6  and  C5_7 
REMARK    3  A    between atoms: C13_19  and  O3_20 
ROOT
HETATM    1  N1  UNL     1      27.641  -2.950  52.771  1.00  0.00    -0.191 NA
HETATM    2  C1  UNL     1      27.643  -1.815  52.809  1.00  0.00     0.102 C 
HETATM    3  C2  UNL     1      27.666  -0.384  52.857  1.00  0.00     0.085 A 
HETATM    4  C3  UNL     1      26.858   0.253  51.961  1.00  0.00     0.055 A 
HETATM    5  C4  UNL     1      26.785   1.654  51.898  1.00  0.00     0.035 A 
HETATM    6  C15 UNL     1      27.562   2.412  52.782  1.00  0.00     0.032 A 
HETATM    7  C16 UNL     1      28.408   1.788  53.718  1.00  0.00     0.046 A 
HETATM    8  C17 UNL     1      28.400   0.418  53.687  1.00  0.00     0.137 A 
HETATM    9  F1  UNL     1      29.168  -0.310  54.531  1.00  0.00    -0.204 F 
ENDROOT
BRANCH   5  10
HETATM   10  N2  UNL     1      26.136   2.586  51.110  1.00  0.00    -0.340 N 
HETATM   11  H2  UNL     1      26.496   2.047  50.255  1.00  0.00     0.167 HD
BRANCH  10  12
HETATM   12  C5  UNL     1      25.491   3.500  50.289  1.00  0.00     0.140 A 
HETATM   13  N3  UNL     1      26.390   4.475  49.929  1.00  0.00    -0.224 NA
HETATM   14  C6  UNL     1      25.816   5.389  49.060  1.00  0.00     0.235 A 
HETATM   15  N4  UNL     1      24.546   5.330  48.631  1.00  0.00    -0.241 NA
HETATM   16  C7  UNL     1      23.672   4.408  48.968  1.00  0.00     0.072 A 
HETATM   17  C8  UNL     1      24.187   3.429  49.860  1.00  0.00     0.040 A 
HETATM   18  C14 UNL     1      22.298   3.991  48.712  1.00  0.00     0.066 C 
HETATM   19  C9  UNL     1      23.320   2.327  50.309  1.00  0.00     0.212 C 
HETATM   20  O1  UNL     1      22.102   2.566  50.775  1.00  0.00    -0.384 OA
HETATM   21  C10 UNL     1      21.716   3.193  51.860  1.00  0.00     0.194 C 
HETATM   22  C11 UNL     1      21.921   4.589  52.195  1.00  0.00     0.194 C 
HETATM   23  O2  UNL     1      21.446   5.605  51.488  1.00  0.00    -0.383 OA
HETATM   24  C12 UNL     1      21.845   5.801  50.233  1.00  0.00     0.231 C 
HETATM   25  C13 UNL     1      21.393   4.694  49.346  1.00  0.00     0.069 C 
BRANCH  25  26
HETATM   26  O3  UNL     1      20.180   4.183  48.992  1.00  0.00    -0.363 OA
HETATM   27  H12 UNL     1      19.441   4.767  48.633  1.00  0.00     0.217 HD
ENDBRANCH  25  26
ENDBRANCH  10  12
ENDBRANCH   5  10
TORSDOF 3
ENDMDL
MODEL 5
REMARK VINA RESULT:      -7.8      2.514      3.106
REMARK  3 active torsions:
REMARK  status: ('A' for Active; 'I' for Inactive)
REMARK    1  A    between atoms: C4_5  and  N2_6 
REMARK    2  A    between atoms: N2_6  and  C5_7 
REMARK    3  A    between atoms: C13_19  and  O3_20 
ROOT
HETATM    1  N1  UNL     1      29.855   2.169  55.047  1.00  0.00    -0.191 NA
HETATM    2  C1  UNL     1      29.041   1.628  54.468  1.00  0.00     0.102 C 
HETATM    3  C2  UNL     1      28.015   0.930  53.752  1.00  0.00     0.085 A 
HETATM    4  C3  UNL     1      26.935   1.678  53.386  1.00  0.00     0.055 A 
HETATM    5  C4  UNL     1      25.856   1.119  52.681  1.00  0.00     0.035 A 
HETATM    6  C15 UNL     1      25.898  -0.239  52.346  1.00  0.00     0.032 A 
HETATM    7  C16 UNL     1      26.996  -1.040  52.709  1.00  0.00     0.046 A 
HETATM    8  C17 UNL     1      27.988  -0.390  53.396  1.00  0.00     0.137 A 
HETATM    9  F1  UNL     1      29.100  -1.041  53.809  1.00  0.00    -0.204 F 
ENDROOT
BRANCH   5  10
HETATM   10  N2  UNL     1      24.631   1.561  52.216  1.00  0.00    -0.340 N 
HETATM   11  H2  UNL     1      24.648   2.292  53.003  1.00  0.00     0.167 HD
BRANCH  10  12
HETATM   12  C5  UNL     1      23.404   2.034  51.774  1.00  0.00     0.140 A 
HETATM   13  N3  UNL     1      22.695   0.984  51.242  1.00  0.00    -0.224 NA
HETATM   14  C6  UNL     1      21.435   1.386  50.832  1.00  0.00     0.235 A 
HETATM   15  N4  UNL     1      20.969   2.641  50.939  1.00  0.00    -0.241 NA
HETATM   16  C7  UNL     1      21.634   3.658  51.441  1.00  0.00     0.072 A 
HETATM   17  C8  UNL     1      22.942   3.324  51.886  1.00  0.00     0.040 A 
HETATM   18  C14 UNL     1      21.486   5.075  51.751  1.00  0.00     0.066 C 
HETATM   19  C9  UNL     1      23.793   4.365  52.485  1.00  0.00     0.212 C 
HETATM   20  O1  UNL     1      23.954   5.538  51.889  1.00  0.00    -0.384 OA
HETATM   21  C10 UNL     1      24.537   5.841  50.754  1.00  0.00     0.194 C 
HETATM   22  C11 UNL     1      24.148   5.421  49.421  1.00  0.00     0.194 C 
HETATM   23  O2  UNL     1      22.984   5.713  48.856  1.00  0.00    -0.383 OA
HETATM   24  C12 UNL     1      21.846   5.263  49.378  1.00  0.00     0.231 C 
HETATM   25  C13 UNL     1      21.591   5.868  50.714  1.00  0.00     0.069 C 
BRANCH  25  26
HETATM   26  O3  UNL     1      21.422   7.140  51.175  1.00  0.00    -0.363 OA
HETATM   27  H12 UNL     1      21.787   7.938  50.680  1.00  0.00     0.217 HD
ENDBRANCH  25  26
ENDBRANCH  10  12
ENDBRANCH   5  10
TORSDOF 3
ENDMDL
MODEL 6
REMARK VINA RESULT:      -7.6      2.808      4.357
REMARK  3 active torsions:
REMARK  status: ('A' for Active; 'I' for Inactive)
REMARK    1  A    between atoms: C4_5  and  N2_6 
REMARK    2  A    between atoms: N2_6  and  C5_7 
REMARK    3  A    between atoms: C13_19  and  O3_20 
ROOT
HETATM    1  N1  UNL     1      28.190  -0.148  54.936  1.00  0.00    -0.191 NA
HETATM    2  C1  UNL     1      27.154  -0.060  54.477  1.00  0.00     0.102 C 
HETATM    3  C2  UNL     1      25.840   0.053  53.919  1.00  0.00     0.085 A 
HETATM    4  C3  UNL     1      25.718   0.902  52.858  1.00  0.00     0.055 A 
HETATM    5  C4  UNL     1      24.486   1.108  52.216  1.00  0.00     0.035 A 
HETATM    6  C15 UNL     1      23.359   0.420  52.679  1.00  0.00     0.032 A 
HETATM    7  C16 UNL     1      23.449  -0.462  53.772  1.00  0.00     0.046 A 
HETATM    8  C17 UNL     1      24.699  -0.583  54.321  1.00  0.00     0.137 A 
HETATM    9  F1  UNL     1      24.926  -1.396  55.379  1.00  0.00    -0.204 F 
ENDROOT
BRANCH   5  10
HETATM   10  N2  UNL     1      24.018   1.903  51.187  1.00  0.00    -0.340 N 
HETATM   11  H2  UNL     1      24.218   2.753  51.813  1.00  0.00     0.167 HD
BRANCH  10  12
HETATM   12  C5  UNL     1      23.559   2.733  50.173  1.00  0.00     0.140 A 
HETATM   13  N3  UNL     1      24.349   3.856  50.134  1.00  0.00    -0.224 NA
HETATM   14  C6  UNL     1      23.972   4.699  49.102  1.00  0.00     0.235 A 
HETATM   15  N4  UNL     1      22.963   4.450  48.252  1.00  0.00    -0.241 NA
HETATM   16  C7  UNL     1      22.194   3.384  48.277  1.00  0.00     0.072 A 
HETATM   17  C8  UNL     1      22.521   2.466  49.313  1.00  0.00     0.040 A 
HETATM   18  C14 UNL     1      21.089   2.757  47.561  1.00  0.00     0.066 C 
HETATM   19  C9  UNL     1      21.750   1.219  49.448  1.00  0.00     0.212 C 
HETATM   20  O1  UNL     1      20.424   1.235  49.449  1.00  0.00    -0.384 OA
HETATM   21  C10 UNL     1      19.582   1.745  50.316  1.00  0.00     0.194 C 
HETATM   22  C11 UNL     1      19.419   3.141  50.674  1.00  0.00     0.194 C 
HETATM   23  O2  UNL     1      19.059   4.093  49.825  1.00  0.00    -0.383 OA
HETATM   24  C12 UNL     1      19.834   4.404  48.788  1.00  0.00     0.231 C 
HETATM   25  C13 UNL     1      19.915   3.276  47.821  1.00  0.00     0.069 C 
BRANCH  25  26
HETATM   26  O3  UNL     1      19.008   2.588  47.071  1.00  0.00    -0.363 OA
HETATM   27  H12 UNL     1      18.810   1.613  47.237  1.00  0.00     0.217 HD
ENDBRANCH  25  26
ENDBRANCH  10  12
ENDBRANCH   5  10
TORSDOF 3
ENDMDL
MODEL 7
REMARK VINA RESULT:      -7.6      2.419      3.795
REMARK  3 active torsions:
REMARK  status: ('A' for Active; 'I' for Inactive)
REMARK    1  A    between atoms: C4_5  and  N2_6 
REMARK    2  A    between atoms: N2_6  and  C5_7 
REMARK    3  A    between atoms: C13_19  and  O3_20 
ROOT
HETATM    1  N1  UNL     1      28.158  -2.765  52.998  1.00  0.00    -0.191 NA
HETATM    2  C1  UNL     1      27.665  -1.744  53.073  1.00  0.00     0.102 C 
HETATM    3  C2  UNL     1      27.063  -0.449  53.171  1.00  0.00     0.085 A 
HETATM    4  C3  UNL     1      26.134  -0.154  52.217  1.00  0.00     0.055 A 
HETATM    5  C4  UNL     1      25.467   1.082  52.194  1.00  0.00     0.035 A 
HETATM    6  C15 UNL     1      25.766   2.031  53.179  1.00  0.00     0.032 A 
HETATM    7  C16 UNL     1      26.721   1.760  54.176  1.00  0.00     0.046 A 
HETATM    8  C17 UNL     1      27.309   0.525  54.099  1.00  0.00     0.137 A 
HETATM    9  F1  UNL     1      28.247   0.135  54.994  1.00  0.00    -0.204 F 
ENDROOT
BRANCH   5  10
HETATM   10  N2  UNL     1      24.543   1.703  51.374  1.00  0.00    -0.340 N 
HETATM   11  H2  UNL     1      24.132   2.156  52.256  1.00  0.00     0.167 HD
BRANCH  10  12
HETATM   12  C5  UNL     1      23.604   2.346  50.580  1.00  0.00     0.140 A 
HETATM   13  N3  UNL     1      24.123   3.552  50.176  1.00  0.00    -0.224 NA
HETATM   14  C6  UNL     1      23.249   4.217  49.333  1.00  0.00     0.235 A 
HETATM   15  N4  UNL     1      22.048   3.744  48.962  1.00  0.00    -0.241 NA
HETATM   16  C7  UNL     1      21.534   2.596  49.342  1.00  0.00     0.072 A 
HETATM   17  C8  UNL     1      22.375   1.851  50.212  1.00  0.00     0.040 A 
HETATM   18  C14 UNL     1      20.358   1.754  49.151  1.00  0.00     0.066 C 
HETATM   19  C9  UNL     1      21.930   0.536  50.703  1.00  0.00     0.212 C 
HETATM   20  O1  UNL     1      20.721   0.378  51.224  1.00  0.00    -0.384 OA
HETATM   21  C10 UNL     1      20.201   0.866  52.325  1.00  0.00     0.194 C 
HETATM   22  C11 UNL     1      19.958   2.260  52.646  1.00  0.00     0.194 C 
HETATM   23  O2  UNL     1      19.151   3.055  51.958  1.00  0.00    -0.383 OA
HETATM   24  C12 UNL     1      19.411   3.348  50.686  1.00  0.00     0.231 C 
HETATM   25  C13 UNL     1      19.304   2.139  49.824  1.00  0.00     0.069 C 
BRANCH  25  26
HETATM   26  O3  UNL     1      18.306   1.258  49.527  1.00  0.00    -0.363 OA
HETATM   27  H12 UNL     1      17.333   1.518  49.580  1.00  0.00     0.217 HD
ENDBRANCH  25  26
ENDBRANCH  10  12
ENDBRANCH   5  10
TORSDOF 3
ENDMDL
MODEL 8
REMARK VINA RESULT:      -7.5      3.614      5.173
REMARK  3 active torsions:
REMARK  status: ('A' for Active; 'I' for Inactive)
REMARK    1  A    between atoms: C4_5  and  N2_6 
REMARK    2  A    between atoms: N2_6  and  C5_7 
REMARK    3  A    between atoms: C13_19  and  O3_20 
ROOT
HETATM    1  N1  UNL     1      26.301  -1.228  53.854  1.00  0.00    -0.191 NA
HETATM    2  C1  UNL     1      25.234  -0.837  53.830  1.00  0.00     0.102 C 
HETATM    3  C2  UNL     1      23.889  -0.345  53.821  1.00  0.00     0.085 A 
HETATM    4  C3  UNL     1      23.652   0.716  52.997  1.00  0.00     0.055 A 
HETATM    5  C4  UNL     1      22.378   1.299  52.892  1.00  0.00     0.035 A 
HETATM    6  C15 UNL     1      21.329   0.771  53.654  1.00  0.00     0.032 A 
HETATM    7  C16 UNL     1      21.539  -0.322  54.515  1.00  0.00     0.046 A 
HETATM    8  C17 UNL     1      22.821  -0.806  54.538  1.00  0.00     0.137 A 
HETATM    9  F1  UNL     1      23.162  -1.854  55.324  1.00  0.00    -0.204 F 
ENDROOT
BRANCH   5  10
HETATM   10  N2  UNL     1      21.824   2.371  52.220  1.00  0.00    -0.340 N 
HETATM   11  H2  UNL     1      21.563   1.687  51.435  1.00  0.00     0.167 HD
BRANCH  10  12
HETATM   12  C5  UNL     1      21.253   3.425  51.519  1.00  0.00     0.140 A 
HETATM   13  N3  UNL     1      20.062   2.998  50.981  1.00  0.00    -0.224 NA
HETATM   14  C6  UNL     1      19.418   4.027  50.314  1.00  0.00     0.235 A 
HETATM   15  N4  UNL     1      19.897   5.276  50.205  1.00  0.00    -0.241 NA
HETATM   16  C7  UNL     1      21.034   5.700  50.709  1.00  0.00     0.072 A 
HETATM   17  C8  UNL     1      21.757   4.698  51.413  1.00  0.00     0.040 A 
HETATM   18  C14 UNL     1      21.846   6.905  50.839  1.00  0.00     0.066 C 
HETATM   19  C9  UNL     1      23.044   5.040  52.043  1.00  0.00     0.212 C 
HETATM   20  O1  UNL     1      23.982   5.688  51.367  1.00  0.00    -0.384 OA
HETATM   21  C10 UNL     1      24.692   5.314  50.329  1.00  0.00     0.194 C 
HETATM   22  C11 UNL     1      24.210   4.994  48.999  1.00  0.00     0.194 C 
HETATM   23  O2  UNL     1      23.575   5.847  48.208  1.00  0.00    -0.383 OA
HETATM   24  C12 UNL     1      22.393   6.348  48.562  1.00  0.00     0.231 C 
HETATM   25  C13 UNL     1      22.518   7.221  49.762  1.00  0.00     0.069 C 
BRANCH  25  26
HETATM   26  O3  UNL     1      23.207   8.362  50.050  1.00  0.00    -0.363 OA
HETATM   27  H12 UNL     1      24.212   8.372  50.127  1.00  0.00     0.217 HD
ENDBRANCH  25  26
ENDBRANCH  10  12
ENDBRANCH   5  10
TORSDOF 3
ENDMDL
MODEL 9
REMARK VINA RESULT:      -7.5      2.355      3.572
REMARK  3 active torsions:
REMARK  status: ('A' for Active; 'I' for Inactive)
REMARK    1  A    between atoms: C4_5  and  N2_6 
REMARK    2  A    between atoms: N2_6  and  C5_7 
REMARK    3  A    between atoms: C13_19  and  O3_20 
ROOT
HETATM    1  N1  UNL     1      29.799   2.212  55.049  1.00  0.00    -0.191 NA
HETATM    2  C1  UNL     1      28.977   1.818  54.372  1.00  0.00     0.102 C 
HETATM    3  C2  UNL     1      27.935   1.306  53.533  1.00  0.00     0.085 A 
HETATM    4  C3  UNL     1      27.124   2.240  52.959  1.00  0.00     0.055 A 
HETATM    5  C4  UNL     1      26.061   1.876  52.115  1.00  0.00     0.035 A 
HETATM    6  C15 UNL     1      25.836   0.519  51.859  1.00  0.00     0.032 A 
HETATM    7  C16 UNL     1      26.652  -0.471  52.436  1.00  0.00     0.046 A 
HETATM    8  C17 UNL     1      27.654  -0.001  53.244  1.00  0.00     0.137 A 
HETATM    9  F1  UNL     1      28.512  -0.845  53.865  1.00  0.00    -0.204 F 
ENDROOT
BRANCH   5  10
HETATM   10  N2  UNL     1      25.056   2.537  51.435  1.00  0.00    -0.340 N 
HETATM   11  H2  UNL     1      25.508   3.458  51.752  1.00  0.00     0.167 HD
BRANCH  10  12
HETATM   12  C5  UNL     1      24.064   3.234  50.759  1.00  0.00     0.140 A 
HETATM   13  N3  UNL     1      24.492   4.524  50.560  1.00  0.00    -0.224 NA
HETATM   14  C6  UNL     1      23.563   5.255  49.838  1.00  0.00     0.235 A 
HETATM   15  N4  UNL     1      22.395   4.765  49.394  1.00  0.00    -0.241 NA
HETATM   16  C7  UNL     1      21.967   3.536  49.579  1.00  0.00     0.072 A 
HETATM   17  C8  UNL     1      22.869   2.720  50.314  1.00  0.00     0.040 A 
HETATM   18  C14 UNL     1      20.852   2.655  49.251  1.00  0.00     0.066 C 
HETATM   19  C9  UNL     1      22.524   1.313  50.580  1.00  0.00     0.212 C 
HETATM   20  O1  UNL     1      21.335   0.986  51.068  1.00  0.00    -0.384 OA
HETATM   21  C10 UNL     1      20.794   1.247  52.234  1.00  0.00     0.194 C 
HETATM   22  C11 UNL     1      20.458   2.547  52.781  1.00  0.00     0.194 C 
HETATM   23  O2  UNL     1      19.589   3.386  52.235  1.00  0.00    -0.383 OA
HETATM   24  C12 UNL     1      19.813   3.902  51.028  1.00  0.00     0.231 C 
HETATM   25  C13 UNL     1      19.781   2.848  49.978  1.00  0.00     0.069 C 
BRANCH  25  26
HETATM   26  O3  UNL     1      18.844   1.959  49.540  1.00  0.00    -0.363 OA
HETATM   27  H12 UNL     1      18.747   1.043  49.949  1.00  0.00     0.217 HD
ENDBRANCH  25  26
ENDBRANCH  10  12
ENDBRANCH   5  10
TORSDOF 3
ENDMDL
