MODEL 1
REMARK VINA RESULT:      -8.6      0.000      0.000
REMARK  5 active torsions:
REMARK  status: ('A' for Active; 'I' for Inactive)
REMARK    1  A    between atoms: N1_7  and  C7_8 
REMARK    2  A    between atoms: C7_8  and  O1_9 
REMARK    3  A    between atoms: O1_9  and  C8_10 
REMARK    4  A    between atoms: C8_10  and  C9_11 
REMARK       I    between atoms: C9_11  and  N2_13 
REMARK    5  A    between atoms: N2_13  and  C10_14 
ROOT
HETATM    1  C10 UNL     1      26.545   6.323  49.004  1.00  0.00     0.132 A 
HETATM    2  C11 UNL     1      27.689   5.922  48.150  1.00  0.00     0.000 A 
HETATM    3  C12 UNL     1      28.803   6.481  47.773  1.00  0.00     0.001 A 
HETATM    4  C13 UNL     1      29.126   7.889  48.266  1.00  0.00     0.139 A 
HETATM    5  N3  UNL     1      30.369   7.843  48.972  1.00  0.00    -0.429 NA
HETATM    6  C14 UNL     1      31.156   8.674  49.439  1.00  0.00     0.291 C 
HETATM    7  C15 UNL     1      30.739   9.974  49.260  1.00  0.00     0.007 C 
HETATM    8  C16 UNL     1      30.519  11.229  49.174  1.00  0.00     0.049 C 
HETATM    9  C17 UNL     1      29.852  12.438  48.877  1.00  0.00    -0.004 C 
HETATM   10  C18 UNL     1      28.697  12.745  48.369  1.00  0.00     0.085 C 
HETATM   11  N4  UNL     1      27.744  11.761  47.931  1.00  0.00    -0.361 N 
HETATM   12  C19 UNL     1      27.642  10.736  48.988  1.00  0.00     0.377 C 
HETATM   13  N5  UNL     1      27.649   9.626  49.672  1.00  0.00    -0.375 NA
HETATM   14  C20 UNL     1      28.004   8.397  49.040  1.00  0.00     0.024 A 
HETATM   15  C21 UNL     1      26.856   7.751  49.379  1.00  0.00     0.028 A 
HETATM   16  H25 UNL     1      27.065  11.059  47.623  1.00  0.00     0.166 HD
ENDROOT
BRANCH   1  17
HETATM   17  N2  UNL     1      26.356   5.474  50.129  1.00  0.00    -0.348 N 
HETATM   18  C9  UNL     1      25.379   4.460  50.125  1.00  0.00     0.242 C 
HETATM   19  O2  UNL     1      24.747   4.420  49.027  1.00  0.00    -0.271 OA
HETATM   20  H15 UNL     1      26.898   5.498  51.010  1.00  0.00     0.163 HD
BRANCH  18  21
HETATM   21  C8  UNL     1      24.842   3.414  50.995  1.00  0.00     0.272 C 
BRANCH  21  22
HETATM   22  O1  UNL     1      25.666   2.864  51.930  1.00  0.00    -0.363 OA
BRANCH  22  23
HETATM   23  C7  UNL     1      26.785   2.227  51.461  1.00  0.00     0.293 C 
BRANCH  23  24
HETATM   24  N1  UNL     1      27.391   1.541  52.624  1.00  0.00    -0.363 N 
HETATM   25  C2  UNL     1      27.049   0.240  53.076  1.00  0.00    -0.001 C 
HETATM   26  C1  UNL     1      26.497  -0.544  52.137  1.00  0.00     0.038 C 
HETATM   27  C3  UNL     1      27.373   0.060  54.511  1.00  0.00     0.056 C 
HETATM   28  C4  UNL     1      28.837   0.407  54.663  1.00  0.00     0.007 C 
HETATM   29  C5  UNL     1      29.121   1.836  54.367  1.00  0.00     0.020 C 
HETATM   30  C6  UNL     1      28.377   2.420  53.206  1.00  0.00     0.125 C 
ENDBRANCH  23  24
ENDBRANCH  22  23
ENDBRANCH  21  22
ENDBRANCH  18  21
ENDBRANCH   1  17
TORSDOF 5
ENDMDL
MODEL 2
REMARK VINA RESULT:      -8.4      3.106      9.115
REMARK  5 active torsions:
REMARK  status: ('A' for Active; 'I' for Inactive)
REMARK    1  A    between atoms: N1_7  and  C7_8 
REMARK    2  A    between atoms: C7_8  and  O1_9 
REMARK    3  A    between atoms: O1_9  and  C8_10 
REMARK    4  A    between atoms: C8_10  and  C9_11 
REMARK       I    between atoms: C9_11  and  N2_13 
REMARK    5  A    between atoms: N2_13  and  C10_14 
ROOT
HETATM    1  C10 UNL     1      24.129   2.121  51.833  1.00  0.00     0.132 A 
HETATM    2  C11 UNL     1      24.403   2.676  53.180  1.00  0.00     0.000 A 
HETATM    3  C12 UNL     1      25.346   2.530  54.067  1.00  0.00     0.001 A 
HETATM    4  C13 UNL     1      26.507   1.588  53.761  1.00  0.00     0.139 A 
HETATM    5  N3  UNL     1      27.723   2.339  53.826  1.00  0.00    -0.429 NA
HETATM    6  C14 UNL     1      28.930   2.075  53.813  1.00  0.00     0.291 C 
HETATM    7  C15 UNL     1      29.189   0.729  53.687  1.00  0.00     0.007 C 
HETATM    8  C16 UNL     1      29.614  -0.472  53.590  1.00  0.00     0.049 C 
HETATM    9  C17 UNL     1      29.588  -1.876  53.435  1.00  0.00    -0.004 C 
HETATM   10  C18 UNL     1      28.656  -2.758  53.239  1.00  0.00     0.085 C 
HETATM   11  N4  UNL     1      27.261  -2.420  53.145  1.00  0.00    -0.361 N 
HETATM   12  C19 UNL     1      27.141  -1.260  52.241  1.00  0.00     0.377 C 
HETATM   13  N5  UNL     1      26.895  -0.094  51.713  1.00  0.00    -0.375 NA
HETATM   14  C20 UNL     1      26.267   0.925  52.488  1.00  0.00     0.024 A 
HETATM   15  C21 UNL     1      25.239   1.122  51.620  1.00  0.00     0.028 A 
HETATM   16  H25 UNL     1      26.269  -2.178  53.075  1.00  0.00     0.166 HD
ENDROOT
BRANCH   1  17
HETATM   17  N2  UNL     1      24.062   3.114  50.817  1.00  0.00    -0.348 N 
HETATM   18  C9  UNL     1      22.833   3.678  50.424  1.00  0.00     0.242 C 
HETATM   19  O2  UNL     1      21.864   3.201  51.087  1.00  0.00    -0.271 OA
HETATM   20  H15 UNL     1      24.864   3.516  50.302  1.00  0.00     0.163 HD
BRANCH  18  21
HETATM   21  C8  UNL     1      22.298   4.658  49.480  1.00  0.00     0.272 C 
BRANCH  21  22
HETATM   22  O1  UNL     1      23.171   5.487  48.843  1.00  0.00    -0.363 OA
BRANCH  22  23
HETATM   23  C7  UNL     1      23.771   6.451  49.610  1.00  0.00     0.293 C 
BRANCH  23  24
HETATM   24  N1  UNL     1      25.080   6.730  48.979  1.00  0.00    -0.363 N 
HETATM   25  C2  UNL     1      25.456   7.963  48.387  1.00  0.00    -0.001 C 
HETATM   26  C1  UNL     1      24.767   9.024  48.835  1.00  0.00     0.038 C 
HETATM   27  C3  UNL     1      26.530   7.779  47.382  1.00  0.00     0.056 C 
HETATM   28  C4  UNL     1      27.656   7.060  48.090  1.00  0.00     0.007 C 
HETATM   29  C5  UNL     1      27.276   5.688  48.522  1.00  0.00     0.020 C 
HETATM   30  C6  UNL     1      25.891   5.540  49.072  1.00  0.00     0.125 C 
ENDBRANCH  23  24
ENDBRANCH  22  23
ENDBRANCH  21  22
ENDBRANCH  18  21
ENDBRANCH   1  17
TORSDOF 5
ENDMDL
MODEL 3
REMARK VINA RESULT:      -8.3      1.390      1.745
REMARK  5 active torsions:
REMARK  status: ('A' for Active; 'I' for Inactive)
REMARK    1  A    between atoms: N1_7  and  C7_8 
REMARK    2  A    between atoms: C7_8  and  O1_9 
REMARK    3  A    between atoms: O1_9  and  C8_10 
REMARK    4  A    between atoms: C8_10  and  C9_11 
REMARK       I    between atoms: C9_11  and  N2_13 
REMARK    5  A    between atoms: N2_13  and  C10_14 
ROOT
HETATM    1  C10 UNL     1      26.036   7.024  49.261  1.00  0.00     0.132 A 
HETATM    2  C11 UNL     1      27.065   6.399  48.396  1.00  0.00     0.000 A 
HETATM    3  C12 UNL     1      28.238   6.749  47.953  1.00  0.00     0.001 A 
HETATM    4  C13 UNL     1      28.803   8.109  48.353  1.00  0.00     0.139 A 
HETATM    5  N3  UNL     1      30.050   7.898  49.021  1.00  0.00    -0.429 NA
HETATM    6  C14 UNL     1      30.979   8.613  49.414  1.00  0.00     0.291 C 
HETATM    7  C15 UNL     1      30.769   9.952  49.174  1.00  0.00     0.007 C 
HETATM    8  C16 UNL     1      30.750  11.220  49.023  1.00  0.00     0.049 C 
HETATM    9  C17 UNL     1      30.274  12.505  48.679  1.00  0.00    -0.004 C 
HETATM   10  C18 UNL     1      29.164  12.969  48.191  1.00  0.00     0.085 C 
HETATM   11  N4  UNL     1      28.048  12.132  47.842  1.00  0.00    -0.361 N 
HETATM   12  C19 UNL     1      27.826  11.192  48.958  1.00  0.00     0.377 C 
HETATM   13  N5  UNL     1      27.682  10.133  49.704  1.00  0.00    -0.375 NA
HETATM   14  C20 UNL     1      27.809   8.833  49.133  1.00  0.00     0.024 A 
HETATM   15  C21 UNL     1      26.587   8.400  49.544  1.00  0.00     0.028 A 
HETATM   16  H25 UNL     1      27.254  11.535  47.596  1.00  0.00     0.166 HD
ENDROOT
BRANCH   1  17
HETATM   17  N2  UNL     1      25.759   6.276  50.439  1.00  0.00    -0.348 N 
HETATM   18  C9  UNL     1      24.505   5.669  50.643  1.00  0.00     0.242 C 
HETATM   19  O2  UNL     1      23.720   5.873  49.669  1.00  0.00    -0.271 OA
HETATM   20  H15 UNL     1      26.418   6.093  51.216  1.00  0.00     0.163 HD
BRANCH  18  21
HETATM   21  C8  UNL     1      23.795   4.863  51.635  1.00  0.00     0.272 C 
BRANCH  21  22
HETATM   22  O1  UNL     1      24.094   3.537  51.726  1.00  0.00    -0.363 OA
BRANCH  22  23
HETATM   23  C7  UNL     1      24.174   3.013  52.990  1.00  0.00     0.293 C 
BRANCH  23  24
HETATM   24  N1  UNL     1      24.929   1.746  52.867  1.00  0.00    -0.363 N 
HETATM   25  C2  UNL     1      24.390   0.450  53.072  1.00  0.00    -0.001 C 
HETATM   26  C1  UNL     1      23.059   0.373  52.916  1.00  0.00     0.038 C 
HETATM   27  C3  UNL     1      25.445  -0.527  53.434  1.00  0.00     0.056 C 
HETATM   28  C4  UNL     1      26.486  -0.453  52.341  1.00  0.00     0.007 C 
HETATM   29  C5  UNL     1      27.168   0.868  52.289  1.00  0.00     0.020 C 
HETATM   30  C6  UNL     1      26.290   2.062  52.506  1.00  0.00     0.125 C 
ENDBRANCH  23  24
ENDBRANCH  22  23
ENDBRANCH  21  22
ENDBRANCH  18  21
ENDBRANCH   1  17
TORSDOF 5
ENDMDL
MODEL 4
REMARK VINA RESULT:      -8.2      1.912      2.355
REMARK  5 active torsions:
REMARK  status: ('A' for Active; 'I' for Inactive)
REMARK    1  A    between atoms: N1_7  and  C7_8 
REMARK    2  A    between atoms: C7_8  and  O1_9 
REMARK    3  A    between atoms: O1_9  and  C8_10 
REMARK    4  A    between atoms: C8_10  and  C9_11 
REMARK       I    between atoms: C9_11  and  N2_13 
REMARK    5  A    between atoms: N2_13  and  C10_14 
ROOT
HETATM    1  C10 UNL     1      26.003   4.750  49.239  1.00  0.00     0.132 A 
HETATM    2  C11 UNL     1      27.429   4.550  48.884  1.00  0.00     0.000 A 
HETATM    3  C12 UNL     1      28.364   5.289  48.359  1.00  0.00     0.001 A 
HETATM    4  C13 UNL     1      28.038   6.730  47.975  1.00  0.00     0.139 A 
HETATM    5  N3  UNL     1      28.925   7.596  48.690  1.00  0.00    -0.429 NA
HETATM    6  C14 UNL     1      29.204   8.799  48.661  1.00  0.00     0.291 C 
HETATM    7  C15 UNL     1      28.476   9.502  47.726  1.00  0.00     0.007 C 
HETATM    8  C16 UNL     1      27.908  10.304  46.911  1.00  0.00     0.049 C 
HETATM    9  C17 UNL     1      27.026  10.768  45.910  1.00  0.00    -0.004 C 
HETATM   10  C18 UNL     1      26.069  10.233  45.214  1.00  0.00     0.085 C 
HETATM   11  N4  UNL     1      25.682   8.854  45.339  1.00  0.00    -0.361 N 
HETATM   12  C19 UNL     1      25.572   8.549  46.779  1.00  0.00     0.377 C 
HETATM   13  N5  UNL     1      25.707   8.050  47.975  1.00  0.00    -0.375 NA
HETATM   14  C20 UNL     1      26.623   6.982  48.205  1.00  0.00     0.024 A 
HETATM   15  C21 UNL     1      25.699   6.144  48.747  1.00  0.00     0.028 A 
HETATM   16  H25 UNL     1      25.405   7.873  45.432  1.00  0.00     0.166 HD
ENDROOT
BRANCH   1  17
HETATM   17  N2  UNL     1      25.736   4.571  50.624  1.00  0.00    -0.348 N 
HETATM   18  C9  UNL     1      24.825   3.597  51.075  1.00  0.00     0.242 C 
HETATM   19  O2  UNL     1      24.325   2.940  50.113  1.00  0.00    -0.271 OA
HETATM   20  H15 UNL     1      26.172   5.095  51.403  1.00  0.00     0.163 HD
BRANCH  18  21
HETATM   21  C8  UNL     1      24.254   3.083  52.319  1.00  0.00     0.272 C 
BRANCH  21  22
HETATM   22  O1  UNL     1      25.069   2.405  53.174  1.00  0.00    -0.363 OA
BRANCH  22  23
HETATM   23  C7  UNL     1      25.345   1.101  52.853  1.00  0.00     0.293 C 
BRANCH  23  24
HETATM   24  N1  UNL     1      26.761   0.874  53.218  1.00  0.00    -0.363 N 
HETATM   25  C2  UNL     1      27.389  -0.395  53.306  1.00  0.00    -0.001 C 
HETATM   26  C1  UNL     1      26.792  -1.359  52.586  1.00  0.00     0.038 C 
HETATM   27  C3  UNL     1      28.568  -0.358  54.202  1.00  0.00     0.056 C 
HETATM   28  C4  UNL     1      29.463   0.744  53.682  1.00  0.00     0.007 C 
HETATM   29  C5  UNL     1      28.837   2.089  53.792  1.00  0.00     0.020 C 
HETATM   30  C6  UNL     1      27.377   2.155  53.464  1.00  0.00     0.125 C 
ENDBRANCH  23  24
ENDBRANCH  22  23
ENDBRANCH  21  22
ENDBRANCH  18  21
ENDBRANCH   1  17
TORSDOF 5
ENDMDL
MODEL 5
REMARK VINA RESULT:      -7.8      2.628      3.269
REMARK  5 active torsions:
REMARK  status: ('A' for Active; 'I' for Inactive)
REMARK    1  A    between atoms: N1_7  and  C7_8 
REMARK    2  A    between atoms: C7_8  and  O1_9 
REMARK    3  A    between atoms: O1_9  and  C8_10 
REMARK    4  A    between atoms: C8_10  and  C9_11 
REMARK       I    between atoms: C9_11  and  N2_13 
REMARK    5  A    between atoms: N2_13  and  C10_14 
ROOT
HETATM    1  C10 UNL     1      26.304   5.417  49.000  1.00  0.00     0.132 A 
HETATM    2  C11 UNL     1      27.627   4.884  48.595  1.00  0.00     0.000 A 
HETATM    3  C12 UNL     1      28.752   5.404  48.196  1.00  0.00     0.001 A 
HETATM    4  C13 UNL     1      28.862   6.921  48.076  1.00  0.00     0.139 A 
HETATM    5  N3  UNL     1      29.930   7.361  48.920  1.00  0.00    -0.429 NA
HETATM    6  C14 UNL     1      30.540   8.421  49.100  1.00  0.00     0.291 C 
HETATM    7  C15 UNL     1      30.076   9.452  48.314  1.00  0.00     0.007 C 
HETATM    8  C16 UNL     1      29.789  10.512  47.661  1.00  0.00     0.049 C 
HETATM    9  C17 UNL     1      29.112  11.374  46.770  1.00  0.00    -0.004 C 
HETATM   10  C18 UNL     1      28.070  11.264  46.005  1.00  0.00     0.085 C 
HETATM   11  N4  UNL     1      27.303  10.053  45.890  1.00  0.00    -0.361 N 
HETATM   12  C19 UNL     1      27.058   9.548  47.255  1.00  0.00     0.377 C 
HETATM   13  N5  UNL     1      27.002   8.831  48.343  1.00  0.00    -0.375 NA
HETATM   14  C20 UNL     1      27.569   7.522  48.368  1.00  0.00     0.024 A 
HETATM   15  C21 UNL     1      26.425   6.903  48.766  1.00  0.00     0.028 A 
HETATM   16  H25 UNL     1      26.756   9.190  45.813  1.00  0.00     0.166 HD
ENDROOT
BRANCH   1  17
HETATM   17  N2  UNL     1      25.947   5.085  50.336  1.00  0.00    -0.348 N 
HETATM   18  C9  UNL     1      24.839   4.262  50.615  1.00  0.00     0.242 C 
HETATM   19  O2  UNL     1      24.258   3.880  49.555  1.00  0.00    -0.271 OA
HETATM   20  H15 UNL     1      26.445   5.381  51.193  1.00  0.00     0.163 HD
BRANCH  18  21
HETATM   21  C8  UNL     1      24.122   3.692  51.755  1.00  0.00     0.272 C 
BRANCH  21  22
HETATM   22  O1  UNL     1      23.352   2.587  51.548  1.00  0.00    -0.363 OA
BRANCH  22  23
HETATM   23  C7  UNL     1      23.939   1.375  51.805  1.00  0.00     0.293 C 
BRANCH  23  24
HETATM   24  N1  UNL     1      23.074   0.696  52.795  1.00  0.00    -0.363 N 
HETATM   25  C2  UNL     1      23.494  -0.330  53.681  1.00  0.00    -0.001 C 
HETATM   26  C1  UNL     1      24.813  -0.341  53.928  1.00  0.00     0.038 C 
HETATM   27  C3  UNL     1      22.355  -1.172  54.116  1.00  0.00     0.056 C 
HETATM   28  C4  UNL     1      21.328  -0.229  54.700  1.00  0.00     0.007 C 
HETATM   29  C5  UNL     1      20.767   0.704  53.687  1.00  0.00     0.020 C 
HETATM   30  C6  UNL     1      21.748   1.257  52.699  1.00  0.00     0.125 C 
ENDBRANCH  23  24
ENDBRANCH  22  23
ENDBRANCH  21  22
ENDBRANCH  18  21
ENDBRANCH   1  17
TORSDOF 5
ENDMDL
MODEL 6
REMARK VINA RESULT:      -7.8      3.538      4.397
REMARK  5 active torsions:
REMARK  status: ('A' for Active; 'I' for Inactive)
REMARK    1  A    between atoms: N1_7  and  C7_8 
REMARK    2  A    between atoms: C7_8  and  O1_9 
REMARK    3  A    between atoms: O1_9  and  C8_10 
REMARK    4  A    between atoms: C8_10  and  C9_11 
REMARK       I    between atoms: C9_11  and  N2_13 
REMARK    5  A    between atoms: N2_13  and  C10_14 
ROOT
HETATM    1  C10 UNL     1      27.065   6.934  48.746  1.00  0.00     0.132 A 
HETATM    2  C11 UNL     1      27.664   5.620  48.410  1.00  0.00     0.000 A 
HETATM    3  C12 UNL     1      28.868   5.185  48.171  1.00  0.00     0.001 A 
HETATM    4  C13 UNL     1      30.032   6.171  48.221  1.00  0.00     0.139 A 
HETATM    5  N3  UNL     1      30.968   5.710  49.200  1.00  0.00    -0.429 NA
HETATM    6  C14 UNL     1      32.115   6.016  49.544  1.00  0.00     0.291 C 
HETATM    7  C15 UNL     1      32.629   7.076  48.832  1.00  0.00     0.007 C 
HETATM    8  C16 UNL     1      33.268   8.029  48.270  1.00  0.00     0.049 C 
HETATM    9  C17 UNL     1      33.529   9.123  47.416  1.00  0.00    -0.004 C 
HETATM   10  C18 UNL     1      32.833   9.796  46.551  1.00  0.00     0.085 C 
HETATM   11  N4  UNL     1      31.461   9.496  46.242  1.00  0.00    -0.361 N 
HETATM   12  C19 UNL     1      30.746   9.305  47.518  1.00  0.00     0.377 C 
HETATM   13  N5  UNL     1      30.050   8.834  48.515  1.00  0.00    -0.375 NA
HETATM   14  C20 UNL     1      29.518   7.512  48.455  1.00  0.00     0.024 A 
HETATM   15  C21 UNL     1      28.231   7.890  48.681  1.00  0.00     0.028 A 
HETATM   16  H25 UNL     1      30.483   9.282  46.025  1.00  0.00     0.166 HD
ENDROOT
BRANCH   1  17
HETATM   17  N2  UNL     1      26.398   6.945  50.002  1.00  0.00    -0.348 N 
HETATM   18  C9  UNL     1      24.996   7.043  50.085  1.00  0.00     0.242 C 
HETATM   19  O2  UNL     1      24.459   7.102  48.938  1.00  0.00    -0.271 OA
HETATM   20  H15 UNL     1      26.845   6.869  50.932  1.00  0.00     0.163 HD
BRANCH  18  21
HETATM   21  C8  UNL     1      23.931   7.100  51.086  1.00  0.00     0.272 C 
BRANCH  21  22
HETATM   22  O1  UNL     1      23.158   5.994  51.274  1.00  0.00    -0.363 OA
BRANCH  22  23
HETATM   23  C7  UNL     1      23.800   4.866  51.713  1.00  0.00     0.293 C 
BRANCH  23  24
HETATM   24  N1  UNL     1      23.227   3.736  50.948  1.00  0.00    -0.363 N 
HETATM   25  C2  UNL     1      23.764   3.204  49.748  1.00  0.00    -0.001 C 
HETATM   26  C1  UNL     1      25.074   3.442  49.575  1.00  0.00     0.038 C 
HETATM   27  C3  UNL     1      22.727   2.514  48.946  1.00  0.00     0.056 C 
HETATM   28  C4  UNL     1      22.101   1.483  49.858  1.00  0.00     0.007 C 
HETATM   29  C5  UNL     1      21.376   2.096  51.003  1.00  0.00     0.020 C 
HETATM   30  C6  UNL     1      22.041   3.281  51.632  1.00  0.00     0.125 C 
ENDBRANCH  23  24
ENDBRANCH  22  23
ENDBRANCH  21  22
ENDBRANCH  18  21
ENDBRANCH   1  17
TORSDOF 5
ENDMDL
MODEL 7
REMARK VINA RESULT:      -7.7      2.838      4.239
REMARK  5 active torsions:
REMARK  status: ('A' for Active; 'I' for Inactive)
REMARK    1  A    between atoms: N1_7  and  C7_8 
REMARK    2  A    between atoms: C7_8  and  O1_9 
REMARK    3  A    between atoms: O1_9  and  C8_10 
REMARK    4  A    between atoms: C8_10  and  C9_11 
REMARK       I    between atoms: C9_11  and  N2_13 
REMARK    5  A    between atoms: N2_13  and  C10_14 
ROOT
HETATM    1  C10 UNL     1      24.419   5.821  51.037  1.00  0.00     0.132 A 
HETATM    2  C11 UNL     1      24.046   7.255  50.985  1.00  0.00     0.000 A 
HETATM    3  C12 UNL     1      24.383   8.272  50.246  1.00  0.00     0.001 A 
HETATM    4  C13 UNL     1      25.401   8.067  49.127  1.00  0.00     0.139 A 
HETATM    5  N3  UNL     1      24.791   8.446  47.890  1.00  0.00    -0.429 NA
HETATM    6  C14 UNL     1      25.174   8.621  46.728  1.00  0.00     0.291 C 
HETATM    7  C15 UNL     1      26.518   8.374  46.559  1.00  0.00     0.007 C 
HETATM    8  C16 UNL     1      27.738   8.204  46.221  1.00  0.00     0.049 C 
HETATM    9  C17 UNL     1      29.106   7.871  46.329  1.00  0.00    -0.004 C 
HETATM   10  C18 UNL     1      29.861   7.398  47.273  1.00  0.00     0.085 C 
HETATM   11  N4  UNL     1      29.374   7.094  48.592  1.00  0.00    -0.361 N 
HETATM   12  C19 UNL     1      28.116   6.338  48.441  1.00  0.00     0.377 C 
HETATM   13  N5  UNL     1      26.880   5.926  48.487  1.00  0.00    -0.375 NA
HETATM   14  C20 UNL     1      25.893   6.697  49.169  1.00  0.00     0.024 A 
HETATM   15  C21 UNL     1      25.497   5.688  49.991  1.00  0.00     0.028 A 
HETATM   16  H25 UNL     1      29.025   6.876  49.529  1.00  0.00     0.166 HD
ENDROOT
BRANCH   1  17
HETATM   17  N2  UNL     1      23.319   4.944  50.827  1.00  0.00    -0.348 N 
HETATM   18  C9  UNL     1      22.838   4.111  51.856  1.00  0.00     0.242 C 
HETATM   19  O2  UNL     1      23.490   4.269  52.931  1.00  0.00    -0.271 OA
HETATM   20  H15 UNL     1      22.776   4.844  49.951  1.00  0.00     0.163 HD
BRANCH  18  21
HETATM   21  C8  UNL     1      21.809   3.101  52.095  1.00  0.00     0.272 C 
BRANCH  21  22
HETATM   22  O1  UNL     1      22.201   1.813  52.301  1.00  0.00    -0.363 OA
BRANCH  22  23
HETATM   23  C7  UNL     1      23.140   1.313  51.438  1.00  0.00     0.293 C 
BRANCH  23  24
HETATM   24  N1  UNL     1      24.222   0.754  52.278  1.00  0.00    -0.363 N 
HETATM   25  C2  UNL     1      25.608   0.999  52.097  1.00  0.00    -0.001 C 
HETATM   26  C1  UNL     1      25.887   2.132  51.434  1.00  0.00     0.038 C 
HETATM   27  C3  UNL     1      26.432  -0.086  52.680  1.00  0.00     0.056 C 
HETATM   28  C4  UNL     1      26.007  -0.213  54.125  1.00  0.00     0.007 C 
HETATM   29  C5  UNL     1      24.597  -0.664  54.270  1.00  0.00     0.020 C 
HETATM   30  C6  UNL     1      23.623  -0.071  53.299  1.00  0.00     0.125 C 
ENDBRANCH  23  24
ENDBRANCH  22  23
ENDBRANCH  21  22
ENDBRANCH  18  21
ENDBRANCH   1  17
TORSDOF 5
ENDMDL
MODEL 8
REMARK VINA RESULT:      -7.7      3.158      9.782
REMARK  5 active torsions:
REMARK  status: ('A' for Active; 'I' for Inactive)
REMARK    1  A    between atoms: N1_7  and  C7_8 
REMARK    2  A    between atoms: C7_8  and  O1_9 
REMARK    3  A    between atoms: O1_9  and  C8_10 
REMARK    4  A    between atoms: C8_10  and  C9_11 
REMARK       I    between atoms: C9_11  and  N2_13 
REMARK    5  A    between atoms: N2_13  and  C10_14 
ROOT
HETATM    1  C10 UNL     1      24.883   3.561  49.985  1.00  0.00     0.132 A 
HETATM    2  C11 UNL     1      23.750   3.119  49.137  1.00  0.00     0.000 A 
HETATM    3  C12 UNL     1      22.652   2.447  49.335  1.00  0.00     0.001 A 
HETATM    4  C13 UNL     1      22.343   1.936  50.739  1.00  0.00     0.139 A 
HETATM    5  N3  UNL     1      21.086   2.481  51.149  1.00  0.00    -0.429 NA
HETATM    6  C14 UNL     1      20.304   2.301  52.089  1.00  0.00     0.291 C 
HETATM    7  C15 UNL     1      20.747   1.355  52.987  1.00  0.00     0.007 C 
HETATM    8  C16 UNL     1      20.989   0.505  53.908  1.00  0.00     0.049 C 
HETATM    9  C17 UNL     1      21.682  -0.469  54.661  1.00  0.00    -0.004 C 
HETATM   10  C18 UNL     1      22.852  -1.026  54.580  1.00  0.00     0.085 C 
HETATM   11  N4  UNL     1      23.797  -0.722  53.539  1.00  0.00    -0.361 N 
HETATM   12  C19 UNL     1      23.860   0.746  53.406  1.00  0.00     0.377 C 
HETATM   13  N5  UNL     1      23.821   1.975  52.974  1.00  0.00    -0.375 NA
HETATM   14  C20 UNL     1      23.458   2.247  51.622  1.00  0.00     0.024 A 
HETATM   15  C21 UNL     1      24.588   2.947  51.332  1.00  0.00     0.028 A 
HETATM   16  H25 UNL     1      24.470  -0.503  52.799  1.00  0.00     0.166 HD
ENDROOT
BRANCH   1  17
HETATM   17  N2  UNL     1      25.035   4.974  50.033  1.00  0.00    -0.348 N 
HETATM   18  C9  UNL     1      26.070   5.623  49.333  1.00  0.00     0.242 C 
HETATM   19  O2  UNL     1      26.787   4.802  48.686  1.00  0.00    -0.271 OA
HETATM   20  H15 UNL     1      24.425   5.638  50.542  1.00  0.00     0.163 HD
BRANCH  18  21
HETATM   21  C8  UNL     1      26.600   6.967  49.102  1.00  0.00     0.272 C 
BRANCH  21  22
HETATM   22  O1  UNL     1      27.856   7.088  48.591  1.00  0.00    -0.363 OA
BRANCH  22  23
HETATM   23  C7  UNL     1      28.510   8.265  48.846  1.00  0.00     0.293 C 
BRANCH  23  24
HETATM   24  N1  UNL     1      29.955   7.976  48.708  1.00  0.00    -0.363 N 
HETATM   25  C2  UNL     1      30.997   8.928  48.853  1.00  0.00    -0.001 C 
HETATM   26  C1  UNL     1      30.667  10.001  49.588  1.00  0.00     0.038 C 
HETATM   27  C3  UNL     1      32.221   8.509  48.129  1.00  0.00     0.056 C 
HETATM   28  C4  UNL     1      32.565   7.128  48.638  1.00  0.00     0.007 C 
HETATM   29  C5  UNL     1      31.532   6.116  48.291  1.00  0.00     0.020 C 
HETATM   30  C6  UNL     1      30.110   6.574  48.405  1.00  0.00     0.125 C 
ENDBRANCH  23  24
ENDBRANCH  22  23
ENDBRANCH  21  22
ENDBRANCH  18  21
ENDBRANCH   1  17
TORSDOF 5
ENDMDL
MODEL 9
REMARK VINA RESULT:      -7.6      2.246      3.019
REMARK  5 active torsions:
REMARK  status: ('A' for Active; 'I' for Inactive)
REMARK    1  A    between atoms: N1_7  and  C7_8 
REMARK    2  A    between atoms: C7_8  and  O1_9 
REMARK    3  A    between atoms: O1_9  and  C8_10 
REMARK    4  A    between atoms: C8_10  and  C9_11 
REMARK       I    between atoms: C9_11  and  N2_13 
REMARK    5  A    between atoms: N2_13  and  C10_14 
ROOT
HETATM    1  C10 UNL     1      26.932   6.457  48.622  1.00  0.00     0.132 A 
HETATM    2  C11 UNL     1      28.006   5.451  48.442  1.00  0.00     0.000 A 
HETATM    3  C12 UNL     1      29.285   5.495  48.201  1.00  0.00     0.001 A 
HETATM    4  C13 UNL     1      29.960   6.855  48.048  1.00  0.00     0.139 A 
HETATM    5  N3  UNL     1      30.997   6.955  49.028  1.00  0.00    -0.429 NA
HETATM    6  C14 UNL     1      31.925   7.736  49.262  1.00  0.00     0.291 C 
HETATM    7  C15 UNL     1      31.979   8.792  48.379  1.00  0.00     0.007 C 
HETATM    8  C16 UNL     1      32.188   9.822  47.654  1.00  0.00     0.049 C 
HETATM    9  C17 UNL     1      31.997  10.788  46.641  1.00  0.00    -0.004 C 
HETATM   10  C18 UNL     1      31.095  10.992  45.730  1.00  0.00     0.085 C 
HETATM   11  N4  UNL     1      29.958  10.132  45.542  1.00  0.00    -0.361 N 
HETATM   12  C19 UNL     1      29.371   9.871  46.870  1.00  0.00     0.377 C 
HETATM   13  N5  UNL     1      28.915   9.320  47.961  1.00  0.00    -0.375 NA
HETATM   14  C20 UNL     1      28.953   7.903  48.117  1.00  0.00     0.024 A 
HETATM   15  C21 UNL     1      27.621   7.773  48.358  1.00  0.00     0.028 A 
HETATM   16  H25 UNL     1      29.148   9.520  45.412  1.00  0.00     0.166 HD
ENDROOT
BRANCH   1  17
HETATM   17  N2  UNL     1      26.309   6.394  49.899  1.00  0.00    -0.348 N 
HETATM   18  C9  UNL     1      25.160   5.608  50.116  1.00  0.00     0.242 C 
HETATM   19  O2  UNL     1      24.804   4.997  49.064  1.00  0.00    -0.271 OA
HETATM   20  H15 UNL     1      26.625   6.876  50.758  1.00  0.00     0.163 HD
BRANCH  18  21
HETATM   21  C8  UNL     1      24.223   5.259  51.182  1.00  0.00     0.272 C 
BRANCH  21  22
HETATM   22  O1  UNL     1      24.015   3.941  51.456  1.00  0.00    -0.363 OA
BRANCH  22  23
HETATM   23  C7  UNL     1      23.564   3.641  52.715  1.00  0.00     0.293 C 
BRANCH  23  24
HETATM   24  N1  UNL     1      23.729   2.180  52.878  1.00  0.00    -0.363 N 
HETATM   25  C2  UNL     1      24.944   1.526  53.208  1.00  0.00    -0.001 C 
HETATM   26  C1  UNL     1      25.839   2.305  53.837  1.00  0.00     0.038 C 
HETATM   27  C3  UNL     1      24.942   0.114  52.756  1.00  0.00     0.056 C 
HETATM   28  C4  UNL     1      23.710  -0.523  53.357  1.00  0.00     0.007 C 
HETATM   29  C5  UNL     1      22.448   0.064  52.832  1.00  0.00     0.020 C 
HETATM   30  C6  UNL     1      22.452   1.550  52.645  1.00  0.00     0.125 C 
ENDBRANCH  23  24
ENDBRANCH  22  23
ENDBRANCH  21  22
ENDBRANCH  18  21
ENDBRANCH   1  17
TORSDOF 5
ENDMDL
