MODEL 1
REMARK VINA RESULT:      -6.8      0.000      0.000
REMARK  6 active torsions:
REMARK  status: ('A' for Active; 'I' for Inactive)
REMARK    1  A    between atoms: N1_2  and  C3_4 
REMARK    2  A    between atoms: C3_4  and  C4_5 
REMARK    3  A    between atoms: C4_5  and  O1_6 
REMARK    4  A    between atoms: O1_6  and  C5_7 
REMARK    5  A    between atoms: C8_10  and  N2_11 
REMARK    6  A    between atoms: N2_11  and  C9_12 
ROOT
HETATM    1  C5  UNL     1      26.864   1.736  52.269  1.00  0.00     0.165 A 
HETATM    2  C6  UNL     1      25.572   1.285  52.371  1.00  0.00     0.074 A 
HETATM    3  C7  UNL     1      25.125   0.446  53.373  1.00  0.00     0.026 A 
HETATM    4  C8  UNL     1      23.835  -0.028  53.511  1.00  0.00     0.064 A 
HETATM    5  C10 UNL     1      23.580  -0.859  54.575  1.00  0.00     0.089 A 
HETATM    6  C11 UNL     1      22.232  -1.343  54.656  1.00  0.00     0.103 C 
HETATM    7  N3  UNL     1      21.125  -1.729  54.708  1.00  0.00    -0.191 NA
HETATM    8  C12 UNL     1      24.554  -1.220  55.484  1.00  0.00     0.142 A 
HETATM    9  N4  UNL     1      25.813  -0.749  55.342  1.00  0.00    -0.257 NA
HETATM   10  C13 UNL     1      26.095   0.067  54.307  1.00  0.00     0.086 A 
HETATM   11  C14 UNL     1      27.402   0.523  54.202  1.00  0.00     0.152 A 
HETATM   12  N5  UNL     1      27.762   1.345  53.191  1.00  0.00    -0.235 NA
ENDROOT
BRANCH   4  13
HETATM   13  N2  UNL     1      22.994   0.470  52.484  1.00  0.00    -0.379 N 
HETATM   14  H12 UNL     1      23.080   0.131  51.487  1.00  0.00     0.160 HD
BRANCH  13  15
HETATM   15  C9  UNL     1      21.969   1.477  52.783  1.00  0.00     0.205 C 
HETATM   16 BR1  UNL     1      22.393   3.122  51.910  1.00  0.00    -0.075 Br
ENDBRANCH  13  15
ENDBRANCH   4  13
BRANCH   1  17
HETATM   17  O1  UNL     1      27.147   2.570  51.204  1.00  0.00    -0.333 OA
BRANCH  17  18
HETATM   18  C4  UNL     1      26.217   3.110  50.311  1.00  0.00     0.207 C 
BRANCH  18  19
HETATM   19  C3  UNL     1      26.913   3.980  49.316  1.00  0.00     0.298 C 
BRANCH  19  20
HETATM   20  N1  UNL     1      26.129   5.164  48.983  1.00  0.00     0.082 N 
HETATM   21  C1  UNL     1      25.264   5.575  50.076  1.00  0.00     0.309 C 
HETATM   22  C2  UNL     1      27.024   6.193  48.549  1.00  0.00     0.309 C 
ENDBRANCH  19  20
ENDBRANCH  18  19
ENDBRANCH  17  18
ENDBRANCH   1  17
TORSDOF 6
ENDMDL
MODEL 2
REMARK VINA RESULT:      -6.7      1.214      1.519
REMARK  6 active torsions:
REMARK  status: ('A' for Active; 'I' for Inactive)
REMARK    1  A    between atoms: N1_2  and  C3_4 
REMARK    2  A    between atoms: C3_4  and  C4_5 
REMARK    3  A    between atoms: C4_5  and  O1_6 
REMARK    4  A    between atoms: O1_6  and  C5_7 
REMARK    5  A    between atoms: C8_10  and  N2_11 
REMARK    6  A    between atoms: N2_11  and  C9_12 
ROOT
HETATM    1  C5  UNL     1      26.891   2.141  51.895  1.00  0.00     0.165 A 
HETATM    2  C6  UNL     1      25.636   1.619  52.086  1.00  0.00     0.074 A 
HETATM    3  C7  UNL     1      25.309   0.748  53.107  1.00  0.00     0.026 A 
HETATM    4  C8  UNL     1      24.060   0.203  53.332  1.00  0.00     0.064 A 
HETATM    5  C10 UNL     1      23.930  -0.650  54.401  1.00  0.00     0.089 A 
HETATM    6  C11 UNL     1      22.619  -1.207  54.574  1.00  0.00     0.103 C 
HETATM    7  N3  UNL     1      21.541  -1.653  54.702  1.00  0.00    -0.191 NA
HETATM    8  C12 UNL     1      24.986  -0.967  55.231  1.00  0.00     0.142 A 
HETATM    9  N4  UNL     1      26.204  -0.427  55.003  1.00  0.00    -0.257 NA
HETATM   10  C13 UNL     1      26.365   0.413  53.962  1.00  0.00     0.086 A 
HETATM   11  C14 UNL     1      27.634   0.940  53.767  1.00  0.00     0.152 A 
HETATM   12  N5  UNL     1      27.874   1.790  52.744  1.00  0.00    -0.235 NA
ENDROOT
BRANCH   4  13
HETATM   13  N2  UNL     1      23.120   0.666  52.377  1.00  0.00    -0.379 N 
HETATM   14  H12 UNL     1      23.050   0.230  51.417  1.00  0.00     0.160 HD
BRANCH  13  15
HETATM   15  C9  UNL     1      22.210   1.770  52.702  1.00  0.00     0.205 C 
HETATM   16 BR1  UNL     1      20.396   1.197  52.528  1.00  0.00    -0.075 Br
ENDBRANCH  13  15
ENDBRANCH   4  13
BRANCH   1  17
HETATM   17  O1  UNL     1      27.049   3.000  50.824  1.00  0.00    -0.333 OA
BRANCH  17  18
HETATM   18  C4  UNL     1      26.110   3.242  49.817  1.00  0.00     0.207 C 
BRANCH  18  19
HETATM   19  C3  UNL     1      25.579   4.633  49.941  1.00  0.00     0.298 C 
BRANCH  19  20
HETATM   20  N1  UNL     1      24.128   4.651  50.084  1.00  0.00     0.082 N 
HETATM   21  C1  UNL     1      23.511   3.435  49.582  1.00  0.00     0.309 C 
HETATM   22  C2  UNL     1      23.811   4.926  51.453  1.00  0.00     0.309 C 
ENDBRANCH  19  20
ENDBRANCH  18  19
ENDBRANCH  17  18
ENDBRANCH   1  17
TORSDOF 6
ENDMDL
MODEL 3
REMARK VINA RESULT:      -6.6      2.240      5.006
REMARK  6 active torsions:
REMARK  status: ('A' for Active; 'I' for Inactive)
REMARK    1  A    between atoms: N1_2  and  C3_4 
REMARK    2  A    between atoms: C3_4  and  C4_5 
REMARK    3  A    between atoms: C4_5  and  O1_6 
REMARK    4  A    between atoms: O1_6  and  C5_7 
REMARK    5  A    between atoms: C8_10  and  N2_11 
REMARK    6  A    between atoms: N2_11  and  C9_12 
ROOT
HETATM    1  C5  UNL     1      26.834   2.528  51.569  1.00  0.00     0.165 A 
HETATM    2  C6  UNL     1      25.669   2.034  52.101  1.00  0.00     0.074 A 
HETATM    3  C7  UNL     1      24.432   2.160  51.498  1.00  0.00     0.026 A 
HETATM    4  C8  UNL     1      23.239   1.678  52.000  1.00  0.00     0.064 A 
HETATM    5  C10 UNL     1      22.106   1.904  51.256  1.00  0.00     0.089 A 
HETATM    6  C11 UNL     1      20.892   1.406  51.835  1.00  0.00     0.103 C 
HETATM    7  N3  UNL     1      19.909   0.991  52.322  1.00  0.00    -0.191 NA
HETATM    8  C12 UNL     1      22.132   2.581  50.053  1.00  0.00     0.142 A 
HETATM    9  N4  UNL     1      23.304   3.048  49.570  1.00  0.00    -0.257 NA
HETATM   10  C13 UNL     1      24.433   2.843  50.277  1.00  0.00     0.086 A 
HETATM   11  C14 UNL     1      25.612   3.342  49.741  1.00  0.00     0.152 A 
HETATM   12  N5  UNL     1      26.786   3.177  50.392  1.00  0.00    -0.235 NA
ENDROOT
BRANCH   4  13
HETATM   13  N2  UNL     1      23.436   1.007  53.233  1.00  0.00    -0.379 N 
HETATM   14  H12 UNL     1      23.625   1.539  54.126  1.00  0.00     0.160 HD
BRANCH  13  15
HETATM   15  C9  UNL     1      23.380  -0.458  53.301  1.00  0.00     0.205 C 
HETATM   16 BR1  UNL     1      22.142  -1.004  54.649  1.00  0.00    -0.075 Br
ENDBRANCH  13  15
ENDBRANCH   4  13
BRANCH   1  17
HETATM   17  O1  UNL     1      27.987   2.316  52.300  1.00  0.00    -0.333 OA
BRANCH  17  18
HETATM   18  C4  UNL     1      28.090   2.315  53.695  1.00  0.00     0.207 C 
BRANCH  18  19
HETATM   19  C3  UNL     1      29.209   1.422  54.121  1.00  0.00     0.298 C 
BRANCH  19  20
HETATM   20  N1  UNL     1      28.723   0.139  54.617  1.00  0.00     0.082 N 
HETATM   21  C1  UNL     1      27.287   0.144  54.840  1.00  0.00     0.309 C 
HETATM   22  C2  UNL     1      29.154  -0.887  53.716  1.00  0.00     0.309 C 
ENDBRANCH  19  20
ENDBRANCH  18  19
ENDBRANCH  17  18
ENDBRANCH   1  17
TORSDOF 6
ENDMDL
MODEL 4
REMARK VINA RESULT:      -6.6      2.572      5.674
REMARK  6 active torsions:
REMARK  status: ('A' for Active; 'I' for Inactive)
REMARK    1  A    between atoms: N1_2  and  C3_4 
REMARK    2  A    between atoms: C3_4  and  C4_5 
REMARK    3  A    between atoms: C4_5  and  O1_6 
REMARK    4  A    between atoms: O1_6  and  C5_7 
REMARK    5  A    between atoms: C8_10  and  N2_11 
REMARK    6  A    between atoms: N2_11  and  C9_12 
ROOT
HETATM    1  C5  UNL     1      24.296  -0.159  53.405  1.00  0.00     0.165 A 
HETATM    2  C6  UNL     1      24.281   1.142  52.967  1.00  0.00     0.074 A 
HETATM    3  C7  UNL     1      23.126   1.866  52.741  1.00  0.00     0.026 A 
HETATM    4  C8  UNL     1      23.069   3.174  52.302  1.00  0.00     0.064 A 
HETATM    5  C10 UNL     1      21.822   3.726  52.131  1.00  0.00     0.089 A 
HETATM    6  C11 UNL     1      21.820   5.078  51.649  1.00  0.00     0.103 C 
HETATM    7  N3  UNL     1      21.836   6.183  51.256  1.00  0.00    -0.191 NA
HETATM    8  C12 UNL     1      20.660   3.025  52.381  1.00  0.00     0.142 A 
HETATM    9  N4  UNL     1      20.726   1.746  52.812  1.00  0.00    -0.257 NA
HETATM   10  C13 UNL     1      21.935   1.176  52.988  1.00  0.00     0.086 A 
HETATM   11  C14 UNL     1      21.952  -0.140  53.430  1.00  0.00     0.152 A 
HETATM   12  N5  UNL     1      23.125  -0.781  53.630  1.00  0.00    -0.235 NA
ENDROOT
BRANCH   4  13
HETATM   13  N2  UNL     1      24.369   3.710  52.118  1.00  0.00    -0.379 N 
HETATM   14  H12 UNL     1      25.003   3.912  52.939  1.00  0.00     0.160 HD
BRANCH  13  15
HETATM   15  C9  UNL     1      24.872   3.998  50.770  1.00  0.00     0.205 C 
HETATM   16 BR1  UNL     1      26.410   2.926  50.403  1.00  0.00    -0.075 Br
ENDBRANCH  13  15
ENDBRANCH   4  13
BRANCH   1  17
HETATM   17  O1  UNL     1      25.538  -0.739  53.581  1.00  0.00    -0.333 OA
BRANCH  17  18
HETATM   18  C4  UNL     1      26.774  -0.108  53.408  1.00  0.00     0.207 C 
BRANCH  18  19
HETATM   19  C3  UNL     1      27.407   0.143  54.738  1.00  0.00     0.298 C 
BRANCH  19  20
HETATM   20  N1  UNL     1      28.863   0.174  54.651  1.00  0.00     0.082 N 
HETATM   21  C1  UNL     1      29.381  -0.834  53.741  1.00  0.00     0.309 C 
HETATM   22  C2  UNL     1      29.268   1.505  54.314  1.00  0.00     0.309 C 
ENDBRANCH  19  20
ENDBRANCH  18  19
ENDBRANCH  17  18
ENDBRANCH   1  17
TORSDOF 6
ENDMDL
MODEL 5
REMARK VINA RESULT:      -6.5      2.936      5.385
REMARK  6 active torsions:
REMARK  status: ('A' for Active; 'I' for Inactive)
REMARK    1  A    between atoms: N1_2  and  C3_4 
REMARK    2  A    between atoms: C3_4  and  C4_5 
REMARK    3  A    between atoms: C4_5  and  O1_6 
REMARK    4  A    between atoms: O1_6  and  C5_7 
REMARK    5  A    between atoms: C8_10  and  N2_11 
REMARK    6  A    between atoms: N2_11  and  C9_12 
ROOT
HETATM    1  C5  UNL     1      24.017  -0.883  54.630  1.00  0.00     0.165 A 
HETATM    2  C6  UNL     1      23.649  -0.198  53.498  1.00  0.00     0.074 A 
HETATM    3  C7  UNL     1      22.346  -0.086  53.054  1.00  0.00     0.026 A 
HETATM    4  C8  UNL     1      21.936   0.594  51.924  1.00  0.00     0.064 A 
HETATM    5  C10 UNL     1      20.591   0.590  51.641  1.00  0.00     0.089 A 
HETATM    6  C11 UNL     1      20.223   1.289  50.443  1.00  0.00     0.103 C 
HETATM    7  N3  UNL     1      19.939   1.865  49.461  1.00  0.00    -0.191 NA
HETATM    8  C12 UNL     1      19.667  -0.057  52.437  1.00  0.00     0.142 A 
HETATM    9  N4  UNL     1      20.078  -0.717  53.542  1.00  0.00    -0.257 NA
HETATM   10  C13 UNL     1      21.391  -0.734  53.845  1.00  0.00     0.086 A 
HETATM   11  C14 UNL     1      21.765  -1.427  54.988  1.00  0.00     0.152 A 
HETATM   12  N5  UNL     1      23.064  -1.489  55.359  1.00  0.00    -0.235 NA
ENDROOT
BRANCH   4  13
HETATM   13  N2  UNL     1      23.036   1.194  51.260  1.00  0.00    -0.379 N 
HETATM   14  H12 UNL     1      23.797   0.611  50.817  1.00  0.00     0.160 HD
BRANCH  13  15
HETATM   15  C9  UNL     1      23.143   2.655  51.168  1.00  0.00     0.205 C 
HETATM   16 BR1  UNL     1      24.081   3.339  52.685  1.00  0.00    -0.075 Br
ENDBRANCH  13  15
ENDBRANCH   4  13
BRANCH   1  17
HETATM   17  O1  UNL     1      25.365  -0.897  54.934  1.00  0.00    -0.333 OA
BRANCH  17  18
HETATM   18  C4  UNL     1      26.283   0.121  54.658  1.00  0.00     0.207 C 
BRANCH  18  19
HETATM   19  C3  UNL     1      27.339  -0.386  53.730  1.00  0.00     0.298 C 
BRANCH  19  20
HETATM   20  N1  UNL     1      28.670  -0.296  54.319  1.00  0.00     0.082 N 
HETATM   21  C1  UNL     1      29.655  -1.059  53.570  1.00  0.00     0.309 C 
HETATM   22  C2  UNL     1      29.011   1.087  54.461  1.00  0.00     0.309 C 
ENDBRANCH  19  20
ENDBRANCH  18  19
ENDBRANCH  17  18
ENDBRANCH   1  17
TORSDOF 6
ENDMDL
MODEL 6
REMARK VINA RESULT:      -6.5      3.125      6.525
REMARK  6 active torsions:
REMARK  status: ('A' for Active; 'I' for Inactive)
REMARK    1  A    between atoms: N1_2  and  C3_4 
REMARK    2  A    between atoms: C3_4  and  C4_5 
REMARK    3  A    between atoms: C4_5  and  O1_6 
REMARK    4  A    between atoms: O1_6  and  C5_7 
REMARK    5  A    between atoms: C8_10  and  N2_11 
REMARK    6  A    between atoms: N2_11  and  C9_12 
ROOT
HETATM    1  C5  UNL     1      21.686  -1.194  54.341  1.00  0.00     0.165 A 
HETATM    2  C6  UNL     1      22.377  -0.376  53.482  1.00  0.00     0.074 A 
HETATM    3  C7  UNL     1      23.727  -0.108  53.592  1.00  0.00     0.026 A 
HETATM    4  C8  UNL     1      24.457   0.708  52.749  1.00  0.00     0.064 A 
HETATM    5  C10 UNL     1      25.796   0.856  53.022  1.00  0.00     0.089 A 
HETATM    6  C11 UNL     1      26.501   1.734  52.132  1.00  0.00     0.103 C 
HETATM    7  N3  UNL     1      27.063   2.453  51.395  1.00  0.00    -0.191 NA
HETATM    8  C12 UNL     1      26.411   0.227  54.085  1.00  0.00     0.142 A 
HETATM    9  N4  UNL     1      25.688  -0.571  54.903  1.00  0.00    -0.257 NA
HETATM   10  C13 UNL     1      24.372  -0.735  54.663  1.00  0.00     0.086 A 
HETATM   11  C14 UNL     1      23.672  -1.562  55.531  1.00  0.00     0.152 A 
HETATM   12  N5  UNL     1      22.349  -1.777  55.356  1.00  0.00    -0.235 NA
ENDROOT
BRANCH   4  13
HETATM   13  N2  UNL     1      23.642   1.243  51.721  1.00  0.00    -0.379 N 
HETATM   14  H12 UNL     1      23.372   0.669  50.876  1.00  0.00     0.160 HD
BRANCH  13  15
HETATM   15  C9  UNL     1      23.144   2.621  51.805  1.00  0.00     0.205 C 
HETATM   16 BR1  UNL     1      21.247   2.646  51.586  1.00  0.00    -0.075 Br
ENDBRANCH  13  15
ENDBRANCH   4  13
BRANCH   1  17
HETATM   17  O1  UNL     1      20.337  -1.357  54.090  1.00  0.00    -0.333 OA
BRANCH  17  18
HETATM   18  C4  UNL     1      19.562  -0.586  53.217  1.00  0.00     0.207 C 
BRANCH  18  19
HETATM   19  C3  UNL     1      18.177  -1.141  53.143  1.00  0.00     0.298 C 
BRANCH  19  20
HETATM   20  N1  UNL     1      17.299  -0.310  52.327  1.00  0.00     0.082 N 
HETATM   21  C1  UNL     1      17.857  -0.049  51.011  1.00  0.00     0.309 C 
HETATM   22  C2  UNL     1      16.006  -0.923  52.285  1.00  0.00     0.309 C 
ENDBRANCH  19  20
ENDBRANCH  18  19
ENDBRANCH  17  18
ENDBRANCH   1  17
TORSDOF 6
ENDMDL
MODEL 7
REMARK VINA RESULT:      -6.3      2.542      5.057
REMARK  6 active torsions:
REMARK  status: ('A' for Active; 'I' for Inactive)
REMARK    1  A    between atoms: N1_2  and  C3_4 
REMARK    2  A    between atoms: C3_4  and  C4_5 
REMARK    3  A    between atoms: C4_5  and  O1_6 
REMARK    4  A    between atoms: O1_6  and  C5_7 
REMARK    5  A    between atoms: C8_10  and  N2_11 
REMARK    6  A    between atoms: N2_11  and  C9_12 
ROOT
HETATM    1  C5  UNL     1      22.321   0.684  52.445  1.00  0.00     0.165 A 
HETATM    2  C6  UNL     1      23.490   1.399  52.350  1.00  0.00     0.074 A 
HETATM    3  C7  UNL     1      24.661   1.051  52.994  1.00  0.00     0.026 A 
HETATM    4  C8  UNL     1      25.855   1.742  52.924  1.00  0.00     0.064 A 
HETATM    5  C10 UNL     1      26.915   1.241  53.641  1.00  0.00     0.089 A 
HETATM    6  C11 UNL     1      28.122   2.011  53.553  1.00  0.00     0.103 C 
HETATM    7  N3  UNL     1      29.102   2.651  53.470  1.00  0.00    -0.191 NA
HETATM    8  C12 UNL     1      26.818   0.097  54.407  1.00  0.00     0.142 A 
HETATM    9  N4  UNL     1      25.646  -0.573  54.468  1.00  0.00    -0.257 NA
HETATM   10  C13 UNL     1      24.587  -0.106  53.777  1.00  0.00     0.086 A 
HETATM   11  C14 UNL     1      23.404  -0.827  53.873  1.00  0.00     0.152 A 
HETATM   12  N5  UNL     1      22.298  -0.423  53.208  1.00  0.00    -0.235 NA
ENDROOT
BRANCH   4  13
HETATM   13  N2  UNL     1      25.742   2.874  52.078  1.00  0.00    -0.379 N 
HETATM   14  H12 UNL     1      25.220   3.740  52.383  1.00  0.00     0.160 HD
BRANCH  13  15
HETATM   15  C9  UNL     1      26.356   2.872  50.745  1.00  0.00     0.205 C 
HETATM   16 BR1  UNL     1      25.533   4.197  49.643  1.00  0.00    -0.075 Br
ENDBRANCH  13  15
ENDBRANCH   4  13
BRANCH   1  17
HETATM   17  O1  UNL     1      21.239   1.169  51.735  1.00  0.00    -0.333 OA
BRANCH  17  18
HETATM   18  C4  UNL     1      20.078   1.726  52.281  1.00  0.00     0.207 C 
BRANCH  18  19
HETATM   19  C3  UNL     1      20.198   3.214  52.321  1.00  0.00     0.298 C 
BRANCH  19  20
HETATM   20  N1  UNL     1      20.889   3.737  51.148  1.00  0.00     0.082 N 
HETATM   21  C1  UNL     1      19.967   4.262  50.155  1.00  0.00     0.309 C 
HETATM   22  C2  UNL     1      21.861   4.694  51.583  1.00  0.00     0.309 C 
ENDBRANCH  19  20
ENDBRANCH  18  19
ENDBRANCH  17  18
ENDBRANCH   1  17
TORSDOF 6
ENDMDL
MODEL 8
REMARK VINA RESULT:      -6.2      2.840      6.248
REMARK  6 active torsions:
REMARK  status: ('A' for Active; 'I' for Inactive)
REMARK    1  A    between atoms: N1_2  and  C3_4 
REMARK    2  A    between atoms: C3_4  and  C4_5 
REMARK    3  A    between atoms: C4_5  and  O1_6 
REMARK    4  A    between atoms: O1_6  and  C5_7 
REMARK    5  A    between atoms: C8_10  and  N2_11 
REMARK    6  A    between atoms: N2_11  and  C9_12 
ROOT
HETATM    1  C5  UNL     1      22.185   0.694  52.309  1.00  0.00     0.165 A 
HETATM    2  C6  UNL     1      23.366   1.394  52.324  1.00  0.00     0.074 A 
HETATM    3  C7  UNL     1      24.467   1.031  53.075  1.00  0.00     0.026 A 
HETATM    4  C8  UNL     1      25.671   1.706  53.118  1.00  0.00     0.064 A 
HETATM    5  C10 UNL     1      26.653   1.192  53.931  1.00  0.00     0.089 A 
HETATM    6  C11 UNL     1      27.873   1.946  53.957  1.00  0.00     0.103 C 
HETATM    7  N3  UNL     1      28.865   2.574  53.966  1.00  0.00    -0.191 NA
HETATM    8  C12 UNL     1      26.470   0.050  54.683  1.00  0.00     0.142 A 
HETATM    9  N4  UNL     1      25.289  -0.605  54.633  1.00  0.00    -0.257 NA
HETATM   10  C13 UNL     1      24.306  -0.125  53.847  1.00  0.00     0.086 A 
HETATM   11  C14 UNL     1      23.110  -0.830  53.831  1.00  0.00     0.152 A 
HETATM   12  N5  UNL     1      22.077  -0.412  53.066  1.00  0.00    -0.235 NA
ENDROOT
BRANCH   4  13
HETATM   13  N2  UNL     1      25.653   2.840  52.266  1.00  0.00    -0.379 N 
HETATM   14  H12 UNL     1      25.132   3.720  52.530  1.00  0.00     0.160 HD
BRANCH  13  15
HETATM   15  C9  UNL     1      26.368   2.820  50.984  1.00  0.00     0.205 C 
HETATM   16 BR1  UNL     1      25.637   4.135  49.807  1.00  0.00    -0.075 Br
ENDBRANCH  13  15
ENDBRANCH   4  13
BRANCH   1  17
HETATM   17  O1  UNL     1      21.181   1.193  51.501  1.00  0.00    -0.333 OA
BRANCH  17  18
HETATM   18  C4  UNL     1      20.136   0.456  50.934  1.00  0.00     0.207 C 
BRANCH  18  19
HETATM   19  C3  UNL     1      18.898   0.617  51.754  1.00  0.00     0.298 C 
BRANCH  19  20
HETATM   20  N1  UNL     1      18.085  -0.593  51.755  1.00  0.00     0.082 N 
HETATM   21  C1  UNL     1      17.854  -1.099  53.098  1.00  0.00     0.309 C 
HETATM   22  C2  UNL     1      16.877  -0.329  51.033  1.00  0.00     0.309 C 
ENDBRANCH  19  20
ENDBRANCH  18  19
ENDBRANCH  17  18
ENDBRANCH   1  17
TORSDOF 6
ENDMDL
MODEL 9
REMARK VINA RESULT:      -6.0      3.044      5.041
REMARK  6 active torsions:
REMARK  status: ('A' for Active; 'I' for Inactive)
REMARK    1  A    between atoms: N1_2  and  C3_4 
REMARK    2  A    between atoms: C3_4  and  C4_5 
REMARK    3  A    between atoms: C4_5  and  O1_6 
REMARK    4  A    between atoms: O1_6  and  C5_7 
REMARK    5  A    between atoms: C8_10  and  N2_11 
REMARK    6  A    between atoms: N2_11  and  C9_12 
ROOT
HETATM    1  C5  UNL     1      20.302   0.468  51.579  1.00  0.00     0.165 A 
HETATM    2  C6  UNL     1      21.647   0.499  51.855  1.00  0.00     0.074 A 
HETATM    3  C7  UNL     1      22.218  -0.074  52.974  1.00  0.00     0.026 A 
HETATM    4  C8  UNL     1      23.563  -0.065  53.286  1.00  0.00     0.064 A 
HETATM    5  C10 UNL     1      23.944  -0.687  54.450  1.00  0.00     0.089 A 
HETATM    6  C11 UNL     1      25.348  -0.625  54.739  1.00  0.00     0.103 C 
HETATM    7  N3  UNL     1      26.499  -0.567  54.959  1.00  0.00    -0.191 NA
HETATM    8  C12 UNL     1      23.040  -1.305  55.291  1.00  0.00     0.142 A 
HETATM    9  N4  UNL     1      21.725  -1.310  54.976  1.00  0.00    -0.257 NA
HETATM   10  C13 UNL     1      21.321  -0.706  53.841  1.00  0.00     0.086 A 
HETATM   11  C14 UNL     1      19.961  -0.736  53.562  1.00  0.00     0.152 A 
HETATM   12  N5  UNL     1      19.478  -0.152  52.442  1.00  0.00    -0.235 NA
ENDROOT
BRANCH   4  13
HETATM   13  N2  UNL     1      24.316   0.608  52.289  1.00  0.00    -0.379 N 
HETATM   14  H12 UNL     1      24.482   0.176  51.339  1.00  0.00     0.160 HD
BRANCH  13  15
HETATM   15  C9  UNL     1      24.886   1.934  52.554  1.00  0.00     0.205 C 
HETATM   16 BR1  UNL     1      26.331   2.276  51.354  1.00  0.00    -0.075 Br
ENDBRANCH  13  15
ENDBRANCH   4  13
BRANCH   1  17
HETATM   17  O1  UNL     1      19.894   1.091  50.415  1.00  0.00    -0.333 OA
BRANCH  17  18
HETATM   18  C4  UNL     1      19.459   2.415  50.297  1.00  0.00     0.207 C 
BRANCH  18  19
HETATM   19  C3  UNL     1      20.414   3.190  49.450  1.00  0.00     0.298 C 
BRANCH  19  20
HETATM   20  N1  UNL     1      21.183   4.149  50.234  1.00  0.00     0.082 N 
HETATM   21  C1  UNL     1      20.772   4.176  51.627  1.00  0.00     0.309 C 
HETATM   22  C2  UNL     1      22.576   3.865  50.058  1.00  0.00     0.309 C 
ENDBRANCH  19  20
ENDBRANCH  18  19
ENDBRANCH  17  18
ENDBRANCH   1  17
TORSDOF 6
ENDMDL
