MODEL 1
REMARK VINA RESULT:      -9.1      0.000      0.000
REMARK  5 active torsions:
REMARK  status: ('A' for Active; 'I' for Inactive)
REMARK    1  A    between atoms: N1_6  and  C6_7 
REMARK    2  A    between atoms: C6_7  and  C7_8 
REMARK    3  A    between atoms: C7_8  and  C8_9 
REMARK    4  A    between atoms: C8_9  and  C9_10 
REMARK    5  A    between atoms: C9_10  and  C10_11 
ROOT
HETATM    1  C1  UNL     1      26.501   2.568  50.864  1.00  0.00     0.000 A 
HETATM    2  C2  UNL     1      25.314   2.498  51.437  1.00  0.00     0.008 A 
HETATM    3  C3  UNL     1      24.159   3.268  51.017  1.00  0.00    -0.043 A 
HETATM    4  C4  UNL     1      23.016   3.013  51.650  1.00  0.00    -0.038 C 
HETATM    5  C5  UNL     1      22.978   1.968  52.732  1.00  0.00     0.153 C 
HETATM    6  N1  UNL     1      22.502   0.744  52.273  1.00  0.00    -0.403 N 
HETATM    7  C16 UNL     1      21.395   0.569  51.463  1.00  0.00     0.173 C 
HETATM    8  C17 UNL     1      21.339   1.405  50.196  1.00  0.00     0.024 C 
HETATM    9  C18 UNL     1      21.428   0.866  48.919  1.00  0.00     0.033 C 
HETATM   10  C19 UNL     1      21.828   2.118  48.127  1.00  0.00     0.164 C 
HETATM   11  C20 UNL     1      20.626   2.951  48.713  1.00  0.00     0.159 C 
HETATM   12  N2  UNL     1      21.208   2.881  50.090  1.00  0.00    -0.376 N 
HETATM   13  C21 UNL     1      21.709   3.696  51.228  1.00  0.00     0.159 C 
HETATM   14  O1  UNL     1      22.966   2.543  48.826  1.00  0.00    -0.379 OA
HETATM   15  C22 UNL     1      23.210   3.882  48.821  1.00  0.00     0.182 C 
HETATM   16  C23 UNL     1      24.270   4.223  49.888  1.00  0.00     0.065 A 
HETATM   17  C24 UNL     1      25.642   4.177  49.358  1.00  0.00    -0.015 A 
HETATM   18  C25 UNL     1      26.706   3.481  49.717  1.00  0.00    -0.003 A 
ENDROOT
BRANCH   6  19
HETATM   19  C6  UNL     1      23.116  -0.404  52.747  1.00  0.00     0.117 C 
BRANCH  19  20
HETATM   20  C7  UNL     1      23.532  -0.527  54.162  1.00  0.00     0.020 C 
BRANCH  20  21
HETATM   21  C8  UNL     1      24.979  -0.769  54.442  1.00  0.00     0.006 C 
BRANCH  21  22
HETATM   22  C9  UNL     1      25.734  -0.722  53.115  1.00  0.00     0.038 C 
BRANCH  22  23
HETATM   23  C10 UNL     1      27.193  -0.555  53.289  1.00  0.00    -0.058 A 
HETATM   24  C11 UNL     1      27.800   0.650  53.647  1.00  0.00     0.007 A 
HETATM   25  C12 UNL     1      29.174   0.764  53.800  1.00  0.00     0.001 A 
HETATM   26  C13 UNL     1      29.982  -0.346  53.593  1.00  0.00     0.000 A 
HETATM   27  C14 UNL     1      29.405  -1.553  53.238  1.00  0.00     0.001 A 
HETATM   28  C15 UNL     1      28.054  -1.615  53.100  1.00  0.00     0.007 A 
ENDBRANCH  22  23
ENDBRANCH  21  22
ENDBRANCH  20  21
ENDBRANCH  19  20
ENDBRANCH   6  19
TORSDOF 5
ENDMDL
MODEL 2
REMARK VINA RESULT:      -8.6      1.853      4.166
REMARK  5 active torsions:
REMARK  status: ('A' for Active; 'I' for Inactive)
REMARK    1  A    between atoms: N1_6  and  C6_7 
REMARK    2  A    between atoms: C6_7  and  C7_8 
REMARK    3  A    between atoms: C7_8  and  C8_9 
REMARK    4  A    between atoms: C8_9  and  C9_10 
REMARK    5  A    between atoms: C9_10  and  C10_11 
ROOT
HETATM    1  C1  UNL     1      22.262  -0.221  54.127  1.00  0.00     0.000 A 
HETATM    2  C2  UNL     1      22.479   0.282  52.926  1.00  0.00     0.008 A 
HETATM    3  C3  UNL     1      21.481   0.344  51.875  1.00  0.00    -0.043 A 
HETATM    4  C4  UNL     1      21.842   0.962  50.752  1.00  0.00    -0.038 C 
HETATM    5  C5  UNL     1      23.222   1.549  50.633  1.00  0.00     0.153 C 
HETATM    6  N1  UNL     1      23.240   2.917  50.886  1.00  0.00    -0.403 N 
HETATM    7  C16 UNL     1      22.334   3.835  50.389  1.00  0.00     0.173 C 
HETATM    8  C17 UNL     1      20.863   3.515  50.587  1.00  0.00     0.024 C 
HETATM    9  C18 UNL     1      20.022   4.254  51.410  1.00  0.00     0.033 C 
HETATM   10  C19 UNL     1      18.895   3.236  51.626  1.00  0.00     0.164 C 
HETATM   11  C20 UNL     1      18.723   3.001  50.078  1.00  0.00     0.159 C 
HETATM   12  N2  UNL     1      20.090   2.398  49.987  1.00  0.00    -0.376 N 
HETATM   13  C21 UNL     1      20.841   1.172  49.609  1.00  0.00     0.159 C 
HETATM   14  O1  UNL     1      19.604   2.127  52.106  1.00  0.00    -0.379 OA
HETATM   15  C22 UNL     1      19.076   0.905  51.820  1.00  0.00     0.182 C 
HETATM   16  C23 UNL     1      20.119  -0.194  52.107  1.00  0.00     0.065 A 
HETATM   17  C24 UNL     1      20.038  -0.707  53.484  1.00  0.00    -0.015 A 
HETATM   18  C25 UNL     1      20.927  -0.767  54.460  1.00  0.00    -0.003 A 
ENDROOT
BRANCH   6  19
HETATM   19  C6  UNL     1      24.310   3.424  51.606  1.00  0.00     0.117 C 
BRANCH  19  20
HETATM   20  C7  UNL     1      24.357   3.334  53.083  1.00  0.00     0.020 C 
BRANCH  20  21
HETATM   21  C8  UNL     1      25.323   2.370  53.690  1.00  0.00     0.006 C 
BRANCH  21  22
HETATM   22  C9  UNL     1      26.424   2.095  52.668  1.00  0.00     0.038 C 
BRANCH  22  23
HETATM   23  C10 UNL     1      26.989   0.733  52.783  1.00  0.00    -0.058 A 
HETATM   24  C11 UNL     1      28.268   0.462  53.273  1.00  0.00     0.007 A 
HETATM   25  C12 UNL     1      28.761  -0.831  53.365  1.00  0.00     0.001 A 
HETATM   26  C13 UNL     1      27.969  -1.898  52.961  1.00  0.00     0.000 A 
HETATM   27  C14 UNL     1      26.697  -1.657  52.473  1.00  0.00     0.001 A 
HETATM   28  C15 UNL     1      26.258  -0.371  52.401  1.00  0.00     0.007 A 
ENDBRANCH  22  23
ENDBRANCH  21  22
ENDBRANCH  20  21
ENDBRANCH  19  20
ENDBRANCH   6  19
TORSDOF 5
ENDMDL
MODEL 3
REMARK VINA RESULT:      -8.2      1.739      2.755
REMARK  5 active torsions:
REMARK  status: ('A' for Active; 'I' for Inactive)
REMARK    1  A    between atoms: N1_6  and  C6_7 
REMARK    2  A    between atoms: C6_7  and  C7_8 
REMARK    3  A    between atoms: C7_8  and  C8_9 
REMARK    4  A    between atoms: C8_9  and  C9_10 
REMARK    5  A    between atoms: C9_10  and  C10_11 
ROOT
HETATM    1  C1  UNL     1      26.682   3.331  49.726  1.00  0.00     0.000 A 
HETATM    2  C2  UNL     1      25.525   3.513  50.335  1.00  0.00     0.008 A 
HETATM    3  C3  UNL     1      24.739   4.728  50.248  1.00  0.00    -0.043 A 
HETATM    4  C4  UNL     1      23.554   4.712  50.854  1.00  0.00    -0.038 C 
HETATM    5  C5  UNL     1      23.102   3.471  51.575  1.00  0.00     0.153 C 
HETATM    6  N1  UNL     1      22.240   2.694  50.807  1.00  0.00    -0.403 N 
HETATM    7  C16 UNL     1      21.179   3.174  50.063  1.00  0.00     0.173 C 
HETATM    8  C17 UNL     1      21.477   4.319  49.111  1.00  0.00     0.024 C 
HETATM    9  C18 UNL     1      21.422   4.199  47.728  1.00  0.00     0.033 C 
HETATM   10  C19 UNL     1      22.274   5.408  47.319  1.00  0.00     0.164 C 
HETATM   11  C20 UNL     1      21.425   6.390  48.211  1.00  0.00     0.159 C 
HETATM   12  N2  UNL     1      21.885   5.704  49.459  1.00  0.00    -0.376 N 
HETATM   13  C21 UNL     1      22.595   5.904  50.750  1.00  0.00     0.159 C 
HETATM   14  O1  UNL     1      23.458   5.171  48.030  1.00  0.00    -0.379 OA
HETATM   15  C22 UNL     1      24.163   6.273  48.408  1.00  0.00     0.182 C 
HETATM   16  C23 UNL     1      25.230   5.878  49.450  1.00  0.00     0.065 A 
HETATM   17  C24 UNL     1      26.516   5.516  48.834  1.00  0.00    -0.015 A 
HETATM   18  C25 UNL     1      27.247   4.416  48.893  1.00  0.00    -0.003 A 
ENDROOT
BRANCH   6  19
HETATM   19  C6  UNL     1      22.385   1.317  50.871  1.00  0.00     0.117 C 
BRANCH  19  20
HETATM   20  C7  UNL     1      21.805   0.534  51.985  1.00  0.00     0.020 C 
BRANCH  20  21
HETATM   21  C8  UNL     1      22.479   0.615  53.316  1.00  0.00     0.006 C 
BRANCH  21  22
HETATM   22  C9  UNL     1      23.627  -0.391  53.328  1.00  0.00     0.038 C 
BRANCH  22  23
HETATM   23  C10 UNL     1      24.951   0.246  53.163  1.00  0.00    -0.058 A 
HETATM   24  C11 UNL     1      26.001  -0.322  52.438  1.00  0.00     0.007 A 
HETATM   25  C12 UNL     1      27.230   0.309  52.306  1.00  0.00     0.001 A 
HETATM   26  C13 UNL     1      27.435   1.544  52.909  1.00  0.00     0.000 A 
HETATM   27  C14 UNL     1      26.411   2.128  53.634  1.00  0.00     0.001 A 
HETATM   28  C15 UNL     1      25.225   1.471  53.734  1.00  0.00     0.007 A 
ENDBRANCH  22  23
ENDBRANCH  21  22
ENDBRANCH  20  21
ENDBRANCH  19  20
ENDBRANCH   6  19
TORSDOF 5
ENDMDL
MODEL 4
REMARK VINA RESULT:      -8.2      2.321      5.618
REMARK  5 active torsions:
REMARK  status: ('A' for Active; 'I' for Inactive)
REMARK    1  A    between atoms: N1_6  and  C6_7 
REMARK    2  A    between atoms: C6_7  and  C7_8 
REMARK    3  A    between atoms: C7_8  and  C8_9 
REMARK    4  A    between atoms: C8_9  and  C9_10 
REMARK    5  A    between atoms: C9_10  and  C10_11 
ROOT
HETATM    1  C1  UNL     1      25.882   2.311  53.405  1.00  0.00     0.000 A 
HETATM    2  C2  UNL     1      24.806   2.211  52.647  1.00  0.00     0.008 A 
HETATM    3  C3  UNL     1      24.076   0.978  52.424  1.00  0.00    -0.043 A 
HETATM    4  C4  UNL     1      22.963   1.070  51.701  1.00  0.00    -0.038 C 
HETATM    5  C5  UNL     1      22.528   2.408  51.168  1.00  0.00     0.153 C 
HETATM    6  N1  UNL     1      21.552   3.004  51.962  1.00  0.00    -0.403 N 
HETATM    7  C16 UNL     1      20.443   2.364  52.482  1.00  0.00     0.173 C 
HETATM    8  C17 UNL     1      20.696   1.072  53.240  1.00  0.00     0.024 C 
HETATM    9  C18 UNL     1      20.490   0.933  54.607  1.00  0.00     0.033 C 
HETATM   10  C19 UNL     1      21.353  -0.304  54.885  1.00  0.00     0.164 C 
HETATM   11  C20 UNL     1      20.653  -1.130  53.741  1.00  0.00     0.159 C 
HETATM   12  N2  UNL     1      21.208  -0.212  52.697  1.00  0.00    -0.376 N 
HETATM   13  C21 UNL     1      22.059  -0.149  51.480  1.00  0.00     0.159 C 
HETATM   14  O1  UNL     1      22.592   0.095  54.367  1.00  0.00    -0.379 OA
HETATM   15  C22 UNL     1      23.388  -0.897  53.879  1.00  0.00     0.182 C 
HETATM   16  C23 UNL     1      24.537  -0.285  53.052  1.00  0.00     0.065 A 
HETATM   17  C24 UNL     1      25.732  -0.004  53.864  1.00  0.00    -0.015 A 
HETATM   18  C25 UNL     1      26.408   1.109  54.088  1.00  0.00    -0.003 A 
ENDROOT
BRANCH   6  19
HETATM   19  C6  UNL     1      21.634   4.373  52.163  1.00  0.00     0.117 C 
BRANCH  19  20
HETATM   20  C7  UNL     1      22.939   5.070  52.197  1.00  0.00     0.020 C 
BRANCH  20  21
HETATM   21  C8  UNL     1      23.217   6.077  51.129  1.00  0.00     0.006 C 
BRANCH  21  22
HETATM   22  C9  UNL     1      23.409   5.330  49.811  1.00  0.00     0.038 C 
BRANCH  22  23
HETATM   23  C10 UNL     1      24.831   5.183  49.435  1.00  0.00    -0.058 A 
HETATM   24  C11 UNL     1      25.603   6.216  48.898  1.00  0.00     0.007 A 
HETATM   25  C12 UNL     1      26.935   6.037  48.558  1.00  0.00     0.001 A 
HETATM   26  C13 UNL     1      27.533   4.798  48.751  1.00  0.00     0.000 A 
HETATM   27  C14 UNL     1      26.790   3.757  49.282  1.00  0.00     0.001 A 
HETATM   28  C15 UNL     1      25.487   3.982  49.600  1.00  0.00     0.007 A 
ENDBRANCH  22  23
ENDBRANCH  21  22
ENDBRANCH  20  21
ENDBRANCH  19  20
ENDBRANCH   6  19
TORSDOF 5
ENDMDL
MODEL 5
REMARK VINA RESULT:      -7.9      2.958      5.861
REMARK  5 active torsions:
REMARK  status: ('A' for Active; 'I' for Inactive)
REMARK    1  A    between atoms: N1_6  and  C6_7 
REMARK    2  A    between atoms: C6_7  and  C7_8 
REMARK    3  A    between atoms: C7_8  and  C8_9 
REMARK    4  A    between atoms: C8_9  and  C9_10 
REMARK    5  A    between atoms: C9_10  and  C10_11 
ROOT
HETATM    1  C1  UNL     1      21.422   1.264  48.804  1.00  0.00     0.000 A 
HETATM    2  C2  UNL     1      22.505   1.552  49.503  1.00  0.00     0.008 A 
HETATM    3  C3  UNL     1      23.255   2.786  49.374  1.00  0.00    -0.043 A 
HETATM    4  C4  UNL     1      24.273   2.952  50.216  1.00  0.00    -0.038 C 
HETATM    5  C5  UNL     1      24.582   1.885  51.231  1.00  0.00     0.153 C 
HETATM    6  N1  UNL     1      24.054   2.175  52.485  1.00  0.00    -0.403 N 
HETATM    7  C16 UNL     1      24.118   3.404  53.115  1.00  0.00     0.173 C 
HETATM    8  C17 UNL     1      23.655   4.606  52.311  1.00  0.00     0.024 C 
HETATM    9  C18 UNL     1      22.519   5.344  52.622  1.00  0.00     0.033 C 
HETATM   10  C19 UNL     1      22.268   6.031  51.273  1.00  0.00     0.164 C 
HETATM   11  C20 UNL     1      23.747   6.570  51.200  1.00  0.00     0.159 C 
HETATM   12  N2  UNL     1      24.282   5.177  51.091  1.00  0.00    -0.376 N 
HETATM   13  C21 UNL     1      25.078   4.257  50.237  1.00  0.00     0.159 C 
HETATM   14  O1  UNL     1      22.216   4.935  50.403  1.00  0.00    -0.379 OA
HETATM   15  C22 UNL     1      22.624   5.162  49.124  1.00  0.00     0.182 C 
HETATM   16  C23 UNL     1      22.831   3.818  48.396  1.00  0.00     0.065 A 
HETATM   17  C24 UNL     1      21.616   3.352  47.710  1.00  0.00    -0.015 A 
HETATM   18  C25 UNL     1      20.911   2.239  47.814  1.00  0.00    -0.003 A 
ENDROOT
BRANCH   6  19
HETATM   19  C6  UNL     1      23.514   1.128  53.213  1.00  0.00     0.117 C 
BRANCH  19  20
HETATM   20  C7  UNL     1      22.873  -0.026  52.544  1.00  0.00     0.020 C 
BRANCH  20  21
HETATM   21  C8  UNL     1      21.499  -0.412  52.988  1.00  0.00     0.006 C 
BRANCH  21  22
HETATM   22  C9  UNL     1      20.772   0.855  53.434  1.00  0.00     0.038 C 
BRANCH  22  23
HETATM   23  C10 UNL     1      19.926   1.437  52.370  1.00  0.00    -0.058 A 
HETATM   24  C11 UNL     1      19.937   2.790  52.022  1.00  0.00     0.007 A 
HETATM   25  C12 UNL     1      19.127   3.297  51.017  1.00  0.00     0.001 A 
HETATM   26  C13 UNL     1      18.275   2.445  50.327  1.00  0.00     0.000 A 
HETATM   27  C14 UNL     1      18.245   1.100  50.652  1.00  0.00     0.001 A 
HETATM   28  C15 UNL     1      19.058   0.650  51.645  1.00  0.00     0.007 A 
ENDBRANCH  22  23
ENDBRANCH  21  22
ENDBRANCH  20  21
ENDBRANCH  19  20
ENDBRANCH   6  19
TORSDOF 5
ENDMDL
MODEL 6
REMARK VINA RESULT:      -7.9      1.853      3.045
REMARK  5 active torsions:
REMARK  status: ('A' for Active; 'I' for Inactive)
REMARK    1  A    between atoms: N1_6  and  C6_7 
REMARK    2  A    between atoms: C6_7  and  C7_8 
REMARK    3  A    between atoms: C7_8  and  C8_9 
REMARK    4  A    between atoms: C8_9  and  C9_10 
REMARK    5  A    between atoms: C9_10  and  C10_11 
ROOT
HETATM    1  C1  UNL     1      23.078   2.551  48.358  1.00  0.00     0.000 A 
HETATM    2  C2  UNL     1      22.654   2.760  49.591  1.00  0.00     0.008 A 
HETATM    3  C3  UNL     1      21.324   3.229  49.928  1.00  0.00    -0.043 A 
HETATM    4  C4  UNL     1      21.034   3.304  51.225  1.00  0.00    -0.038 C 
HETATM    5  C5  UNL     1      22.066   2.909  52.245  1.00  0.00     0.153 C 
HETATM    6  N1  UNL     1      21.880   1.613  52.716  1.00  0.00    -0.403 N 
HETATM    7  C16 UNL     1      20.667   1.065  53.092  1.00  0.00     0.173 C 
HETATM    8  C17 UNL     1      19.526   1.189  52.097  1.00  0.00     0.024 C 
HETATM    9  C18 UNL     1      18.963   0.102  51.439  1.00  0.00     0.033 C 
HETATM   10  C19 UNL     1      18.290   0.821  50.262  1.00  0.00     0.164 C 
HETATM   11  C20 UNL     1      17.546   1.828  51.218  1.00  0.00     0.159 C 
HETATM   12  N2  UNL     1      18.848   2.431  51.646  1.00  0.00    -0.376 N 
HETATM   13  C21 UNL     1      19.629   3.695  51.700  1.00  0.00     0.159 C 
HETATM   14  O1  UNL     1      19.365   1.534  49.715  1.00  0.00    -0.379 OA
HETATM   15  C22 UNL     1      19.057   2.707  49.097  1.00  0.00     0.182 C 
HETATM   16  C23 UNL     1      20.343   3.523  48.855  1.00  0.00     0.065 A 
HETATM   17  C24 UNL     1      20.961   3.234  47.552  1.00  0.00    -0.015 A 
HETATM   18  C25 UNL     1      22.165   2.801  47.220  1.00  0.00    -0.003 A 
ENDROOT
BRANCH   6  19
HETATM   19  C6  UNL     1      23.008   0.836  52.929  1.00  0.00     0.117 C 
BRANCH  19  20
HETATM   20  C7  UNL     1      24.353   1.445  53.034  1.00  0.00     0.020 C 
BRANCH  20  21
HETATM   21  C8  UNL     1      25.437   0.887  52.170  1.00  0.00     0.006 C 
BRANCH  21  22
HETATM   22  C9  UNL     1      25.837  -0.475  52.731  1.00  0.00     0.038 C 
BRANCH  22  23
HETATM   23  C10 UNL     1      27.280  -0.569  53.038  1.00  0.00    -0.058 A 
HETATM   24  C11 UNL     1      28.007  -1.761  52.997  1.00  0.00     0.007 A 
HETATM   25  C12 UNL     1      29.361  -1.807  53.293  1.00  0.00     0.001 A 
HETATM   26  C13 UNL     1      30.028  -0.638  53.642  1.00  0.00     0.000 A 
HETATM   27  C14 UNL     1      29.330   0.556  53.689  1.00  0.00     0.001 A 
HETATM   28  C15 UNL     1      28.003   0.550  53.391  1.00  0.00     0.007 A 
ENDBRANCH  22  23
ENDBRANCH  21  22
ENDBRANCH  20  21
ENDBRANCH  19  20
ENDBRANCH   6  19
TORSDOF 5
ENDMDL
MODEL 7
REMARK VINA RESULT:      -7.8      2.662      6.602
REMARK  5 active torsions:
REMARK  status: ('A' for Active; 'I' for Inactive)
REMARK    1  A    between atoms: N1_6  and  C6_7 
REMARK    2  A    between atoms: C6_7  and  C7_8 
REMARK    3  A    between atoms: C7_8  and  C8_9 
REMARK    4  A    between atoms: C8_9  and  C9_10 
REMARK    5  A    between atoms: C9_10  and  C10_11 
ROOT
HETATM    1  C1  UNL     1      22.404   0.070  52.888  1.00  0.00     0.000 A 
HETATM    2  C2  UNL     1      22.071   1.334  52.703  1.00  0.00     0.008 A 
HETATM    3  C3  UNL     1      23.012   2.437  52.715  1.00  0.00    -0.043 A 
HETATM    4  C4  UNL     1      22.520   3.639  52.425  1.00  0.00    -0.038 C 
HETATM    5  C5  UNL     1      21.058   3.790  52.106  1.00  0.00     0.153 C 
HETATM    6  N1  UNL     1      20.814   3.832  50.737  1.00  0.00    -0.403 N 
HETATM    7  C16 UNL     1      21.537   4.570  49.818  1.00  0.00     0.173 C 
HETATM    8  C17 UNL     1      23.047   4.405  49.848  1.00  0.00     0.024 C 
HETATM    9  C18 UNL     1      23.773   3.814  48.822  1.00  0.00     0.033 C 
HETATM   10  C19 UNL     1      25.062   3.460  49.575  1.00  0.00     0.164 C 
HETATM   11  C20 UNL     1      25.227   4.932  50.114  1.00  0.00     0.159 C 
HETATM   12  N2  UNL     1      23.980   4.804  50.932  1.00  0.00    -0.376 N 
HETATM   13  C21 UNL     1      23.437   4.864  52.315  1.00  0.00     0.159 C 
HETATM   14  O1  UNL     1      24.565   2.711  50.649  1.00  0.00    -0.379 OA
HETATM   15  C22 UNL     1      25.285   2.765  51.804  1.00  0.00     0.182 C 
HETATM   16  C23 UNL     1      24.452   2.185  52.965  1.00  0.00     0.065 A 
HETATM   17  C24 UNL     1      24.659   0.739  53.143  1.00  0.00    -0.015 A 
HETATM   18  C25 UNL     1      23.821  -0.283  53.129  1.00  0.00    -0.003 A 
ENDROOT
BRANCH   6  19
HETATM   19  C6  UNL     1      19.695   3.168  50.261  1.00  0.00     0.117 C 
BRANCH  19  20
HETATM   20  C7  UNL     1      19.790   1.799  49.706  1.00  0.00     0.020 C 
BRANCH  20  21
HETATM   21  C8  UNL     1      18.731   0.818  50.093  1.00  0.00     0.006 C 
BRANCH  21  22
HETATM   22  C9  UNL     1      18.471   0.966  51.590  1.00  0.00     0.038 C 
BRANCH  22  23
HETATM   23  C10 UNL     1      18.044  -0.297  52.227  1.00  0.00    -0.058 A 
HETATM   24  C11 UNL     1      18.833  -1.019  53.127  1.00  0.00     0.007 A 
HETATM   25  C12 UNL     1      18.395  -2.202  53.703  1.00  0.00     0.001 A 
HETATM   26  C13 UNL     1      17.135  -2.696  53.386  1.00  0.00     0.000 A 
HETATM   27  C14 UNL     1      16.334  -1.999  52.497  1.00  0.00     0.001 A 
HETATM   28  C15 UNL     1      16.808  -0.844  51.958  1.00  0.00     0.007 A 
ENDBRANCH  22  23
ENDBRANCH  21  22
ENDBRANCH  20  21
ENDBRANCH  19  20
ENDBRANCH   6  19
TORSDOF 5
ENDMDL
MODEL 8
REMARK VINA RESULT:      -7.8      3.064      7.343
REMARK  5 active torsions:
REMARK  status: ('A' for Active; 'I' for Inactive)
REMARK    1  A    between atoms: N1_6  and  C6_7 
REMARK    2  A    between atoms: C6_7  and  C7_8 
REMARK    3  A    between atoms: C7_8  and  C8_9 
REMARK    4  A    between atoms: C8_9  and  C9_10 
REMARK    5  A    between atoms: C9_10  and  C10_11 
ROOT
HETATM    1  C1  UNL     1      21.552   1.115  50.794  1.00  0.00     0.000 A 
HETATM    2  C2  UNL     1      22.562   1.847  51.225  1.00  0.00     0.008 A 
HETATM    3  C3  UNL     1      23.218   1.659  52.505  1.00  0.00    -0.043 A 
HETATM    4  C4  UNL     1      24.277   2.430  52.746  1.00  0.00    -0.038 C 
HETATM    5  C5  UNL     1      24.728   3.424  51.711  1.00  0.00     0.153 C 
HETATM    6  N1  UNL     1      25.786   2.948  50.942  1.00  0.00    -0.403 N 
HETATM    7  C16 UNL     1      26.902   2.297  51.433  1.00  0.00     0.173 C 
HETATM    8  C17 UNL     1      26.651   1.118  52.358  1.00  0.00     0.024 C 
HETATM    9  C18 UNL     1      26.955  -0.196  52.024  1.00  0.00     0.033 C 
HETATM   10  C19 UNL     1      26.061  -0.941  53.024  1.00  0.00     0.164 C 
HETATM   11  C20 UNL     1      26.637  -0.125  54.244  1.00  0.00     0.159 C 
HETATM   12  N2  UNL     1      26.045   1.143  53.714  1.00  0.00    -0.376 N 
HETATM   13  C21 UNL     1      25.108   2.255  54.023  1.00  0.00     0.159 C 
HETATM   14  O1  UNL     1      24.805  -0.384  52.750  1.00  0.00    -0.379 OA
HETATM   15  C22 UNL     1      23.933  -0.323  53.793  1.00  0.00     0.182 C 
HETATM   16  C23 UNL     1      22.752   0.601  53.433  1.00  0.00     0.065 A 
HETATM   17  C24 UNL     1      21.636  -0.124  52.807  1.00  0.00    -0.015 A 
HETATM   18  C25 UNL     1      21.027   0.023  51.643  1.00  0.00    -0.003 A 
ENDROOT
BRANCH   6  19
HETATM   19  C6  UNL     1      25.780   3.239  49.588  1.00  0.00     0.117 C 
BRANCH  19  20
HETATM   20  C7  UNL     1      26.484   4.426  49.052  1.00  0.00     0.020 C 
BRANCH  20  21
HETATM   21  C8  UNL     1      25.670   5.645  48.764  1.00  0.00     0.006 C 
BRANCH  21  22
HETATM   22  C9  UNL     1      26.544   6.871  49.020  1.00  0.00     0.038 C 
BRANCH  22  23
HETATM   23  C10 UNL     1      27.159   7.406  47.786  1.00  0.00    -0.058 A 
HETATM   24  C11 UNL     1      26.463   8.151  46.831  1.00  0.00     0.007 A 
HETATM   25  C12 UNL     1      27.077   8.635  45.686  1.00  0.00     0.001 A 
HETATM   26  C13 UNL     1      28.425   8.379  45.469  1.00  0.00     0.000 A 
HETATM   27  C14 UNL     1      29.138   7.643  46.400  1.00  0.00     0.001 A 
HETATM   28  C15 UNL     1      28.492   7.190  47.507  1.00  0.00     0.007 A 
ENDBRANCH  22  23
ENDBRANCH  21  22
ENDBRANCH  20  21
ENDBRANCH  19  20
ENDBRANCH   6  19
TORSDOF 5
ENDMDL
MODEL 9
REMARK VINA RESULT:      -7.7      2.795      4.580
REMARK  5 active torsions:
REMARK  status: ('A' for Active; 'I' for Inactive)
REMARK    1  A    between atoms: N1_6  and  C6_7 
REMARK    2  A    between atoms: C6_7  and  C7_8 
REMARK    3  A    between atoms: C7_8  and  C8_9 
REMARK    4  A    between atoms: C8_9  and  C9_10 
REMARK    5  A    between atoms: C9_10  and  C10_11 
ROOT
HETATM    1  C1  UNL     1      25.772   3.251  50.087  1.00  0.00     0.000 A 
HETATM    2  C2  UNL     1      24.922   4.097  50.640  1.00  0.00     0.008 A 
HETATM    3  C3  UNL     1      24.928   5.528  50.407  1.00  0.00    -0.043 A 
HETATM    4  C4  UNL     1      23.947   6.225  50.976  1.00  0.00    -0.038 C 
HETATM    5  C5  UNL     1      22.910   5.515  51.803  1.00  0.00     0.153 C 
HETATM    6  N1  UNL     1      21.742   5.265  51.091  1.00  0.00    -0.403 N 
HETATM    7  C16 UNL     1      21.095   6.171  50.271  1.00  0.00     0.173 C 
HETATM    8  C17 UNL     1      21.944   6.863  49.218  1.00  0.00     0.024 C 
HETATM    9  C18 UNL     1      21.791   6.654  47.853  1.00  0.00     0.033 C 
HETATM   10  C19 UNL     1      23.154   7.149  47.351  1.00  0.00     0.164 C 
HETATM   11  C20 UNL     1      23.009   8.521  48.114  1.00  0.00     0.159 C 
HETATM   12  N2  UNL     1      23.055   7.824  49.438  1.00  0.00    -0.376 N 
HETATM   13  C21 UNL     1      23.796   7.730  50.723  1.00  0.00     0.159 C 
HETATM   14  O1  UNL     1      24.035   6.375  48.118  1.00  0.00    -0.379 OA
HETATM   15  C22 UNL     1      25.240   6.942  48.405  1.00  0.00     0.182 C 
HETATM   16  C23 UNL     1      25.945   6.134  49.513  1.00  0.00     0.065 A 
HETATM   17  C24 UNL     1      26.804   5.066  48.976  1.00  0.00    -0.015 A 
HETATM   18  C25 UNL     1      26.813   3.758  49.167  1.00  0.00    -0.003 A 
ENDROOT
BRANCH   6  19
HETATM   19  C6  UNL     1      21.109   4.049  51.298  1.00  0.00     0.117 C 
BRANCH  19  20
HETATM   20  C7  UNL     1      21.728   2.992  52.128  1.00  0.00     0.020 C 
BRANCH  20  21
HETATM   21  C8  UNL     1      21.760   1.604  51.574  1.00  0.00     0.006 C 
BRANCH  21  22
HETATM   22  C9  UNL     1      23.142   1.015  51.851  1.00  0.00     0.038 C 
BRANCH  22  23
HETATM   23  C10 UNL     1      23.183   0.203  53.086  1.00  0.00    -0.058 A 
HETATM   24  C11 UNL     1      22.046  -0.282  53.736  1.00  0.00     0.007 A 
HETATM   25  C12 UNL     1      22.128  -1.041  54.893  1.00  0.00     0.001 A 
HETATM   26  C13 UNL     1      23.374  -1.336  55.434  1.00  0.00     0.000 A 
HETATM   27  C14 UNL     1      24.517  -0.868  54.809  1.00  0.00     0.001 A 
HETATM   28  C15 UNL     1      24.384  -0.127  53.676  1.00  0.00     0.007 A 
ENDBRANCH  22  23
ENDBRANCH  21  22
ENDBRANCH  20  21
ENDBRANCH  19  20
ENDBRANCH   6  19
TORSDOF 5
ENDMDL
