MODEL 1
REMARK VINA RESULT:      -8.1      0.000      0.000
REMARK  7 active torsions:
REMARK  status: ('A' for Active; 'I' for Inactive)
REMARK    1  A    between atoms: N1_1  and  C1_2 
REMARK    2  A    between atoms: C2_4  and  C3_5 
REMARK    3  A    between atoms: C4_6  and  C5_7 
REMARK    4  A    between atoms: C6_8  and  C7_9 
REMARK    5  A    between atoms: C7_9  and  C8_10 
REMARK    6  A    between atoms: C14_17  and  C15_18 
REMARK    7  A    between atoms: C17_20  and  C18_21 
ROOT
HETATM    1  C1  UNL     1      24.940  -0.451  54.578  1.00  0.00     0.247 C 
HETATM    2  N2  UNL     1      23.791  -0.918  54.598  1.00  0.00    -0.208 NA
HETATM    3  C2  UNL     1      22.684  -0.857  53.752  1.00  0.00     0.060 C 
HETATM    4  C9  UNL     1      22.228  -0.152  52.688  1.00  0.00     0.028 C 
HETATM    5  C10 UNL     1      23.018   0.955  52.080  1.00  0.00    -0.019 C 
HETATM    6  C11 UNL     1      24.154   1.615  52.179  1.00  0.00     0.024 C 
HETATM    7  C12 UNL     1      25.391   2.186  52.438  1.00  0.00     0.035 C 
HETATM    8  C13 UNL     1      25.980   2.430  53.799  1.00  0.00     0.023 C 
HETATM    9  C14 UNL     1      26.876   0.882  53.411  1.00  0.00     0.009 A 
HETATM   10  C18 UNL     1      27.541  -0.356  52.430  1.00  0.00     0.019 A 
HETATM   11  C19 UNL     1      26.529   0.217  51.927  1.00  0.00     0.052 A 
HETATM   12  C20 UNL     1      26.373   0.718  52.640  1.00  0.00     0.091 A 
HETATM   13  N3  UNL     1      25.471   0.237  53.688  1.00  0.00    -0.408 NA
ENDROOT
BRANCH   3  14
HETATM   14  C3  UNL     1      21.596  -1.824  54.033  1.00  0.00     0.031 C 
HETATM   15  C4  UNL     1      20.336  -1.579  53.863  1.00  0.00     0.002 C 
BRANCH  15  16
HETATM   16  C5  UNL     1      19.267  -0.665  53.464  1.00  0.00    -0.004 C 
HETATM   17  C6  UNL     1      18.602   0.054  52.585  1.00  0.00    -0.026 C 
BRANCH  17  18
HETATM   18  C7  UNL     1      19.082   0.011  51.177  1.00  0.00     0.038 C 
BRANCH  18  19
HETATM   19  C8  UNL     1      19.345   1.426  50.740  1.00  0.00     0.089 C 
HETATM   20 BR1  UNL     1      20.632   1.351  49.279  1.00  0.00    -0.096 Br
ENDBRANCH  18  19
ENDBRANCH  17  18
ENDBRANCH  15  16
ENDBRANCH   3  14
BRANCH   1  21
HETATM   21  N1  UNL     1      25.395  -0.990  55.808  1.00  0.00    -0.260 NA
HETATM   22  H1  UNL     1      26.197  -0.560  56.357  1.00  0.00     0.128 HD
HETATM   23  H2  UNL     1      26.056  -0.914  56.591  1.00  0.00     0.128 HD
ENDBRANCH   1  21
BRANCH  10  24
HETATM   24  C17 UNL     1      28.372  -0.379  53.537  1.00  0.00     0.009 A 
HETATM   25  C16 UNL     1      29.412  -0.862  54.314  1.00  0.00     0.001 A 
HETATM   26  C15 UNL     1      29.442  -1.698  53.206  1.00  0.00     0.008 A 
ENDBRANCH  10  24
TORSDOF 7
ENDMDL
MODEL 2
REMARK VINA RESULT:      -8.0      3.464      6.225
REMARK  7 active torsions:
REMARK  status: ('A' for Active; 'I' for Inactive)
REMARK    1  A    between atoms: N1_1  and  C1_2 
REMARK    2  A    between atoms: C2_4  and  C3_5 
REMARK    3  A    between atoms: C4_6  and  C5_7 
REMARK    4  A    between atoms: C6_8  and  C7_9 
REMARK    5  A    between atoms: C7_9  and  C8_10 
REMARK    6  A    between atoms: C14_17  and  C15_18 
REMARK    7  A    between atoms: C17_20  and  C18_21 
ROOT
HETATM    1  C1  UNL     1      23.588   2.885  52.273  1.00  0.00     0.247 C 
HETATM    2  N2  UNL     1      23.569   1.880  53.000  1.00  0.00    -0.208 NA
HETATM    3  C2  UNL     1      22.953   0.630  52.942  1.00  0.00     0.060 C 
HETATM    4  C9  UNL     1      21.971  -0.013  52.264  1.00  0.00     0.028 C 
HETATM    5  C10 UNL     1      21.178   0.662  51.198  1.00  0.00    -0.019 C 
HETATM    6  C11 UNL     1      21.036   1.803  50.555  1.00  0.00     0.024 C 
HETATM    7  C12 UNL     1      21.038   3.071  49.994  1.00  0.00     0.035 C 
HETATM    8  C13 UNL     1      21.256   4.360  50.734  1.00  0.00     0.023 C 
HETATM    9  C14 UNL     1      22.950   4.161  50.071  1.00  0.00     0.009 A 
HETATM   10  C18 UNL     1      24.182   3.588  49.026  1.00  0.00     0.019 A 
HETATM   11  C19 UNL     1      23.190   2.807  49.137  1.00  0.00     0.052 A 
HETATM   12  C20 UNL     1      22.784   3.299  49.752  1.00  0.00     0.091 A 
HETATM   13  N3  UNL     1      23.032   3.045  51.172  1.00  0.00    -0.408 NA
ENDROOT
BRANCH   3  14
HETATM   14  C3  UNL     1      23.452  -0.386  53.899  1.00  0.00     0.031 C 
HETATM   15  C4  UNL     1      24.653  -0.869  53.894  1.00  0.00     0.002 C 
BRANCH  15  16
HETATM   16  C5  UNL     1      25.993  -0.922  53.313  1.00  0.00    -0.004 C 
HETATM   17  C6  UNL     1      27.215  -0.467  53.132  1.00  0.00    -0.026 C 
BRANCH  17  18
HETATM   18  C7  UNL     1      27.584   0.779  53.857  1.00  0.00     0.038 C 
BRANCH  18  19
HETATM   19  C8  UNL     1      28.829   0.494  54.653  1.00  0.00     0.089 C 
HETATM   20 BR1  UNL     1      29.855  -0.836  53.666  1.00  0.00    -0.096 Br
ENDBRANCH  18  19
ENDBRANCH  17  18
ENDBRANCH  15  16
ENDBRANCH   3  14
BRANCH   1  21
HETATM   21  N1  UNL     1      24.445   3.689  53.068  1.00  0.00    -0.260 NA
HETATM   22  H1  UNL     1      25.443   3.914  52.782  1.00  0.00     0.128 HD
HETATM   23  H2  UNL     1      25.373   4.118  53.174  1.00  0.00     0.128 HD
ENDBRANCH   1  21
BRANCH  10  24
HETATM   24  C17 UNL     1      24.697   4.801  49.449  1.00  0.00     0.009 A 
HETATM   25  C16 UNL     1      25.707   5.713  49.706  1.00  0.00     0.001 A 
HETATM   26  C15 UNL     1      26.399   4.623  49.198  1.00  0.00     0.008 A 
ENDBRANCH  10  24
TORSDOF 7
ENDMDL
MODEL 3
REMARK VINA RESULT:      -7.7      2.545      4.195
REMARK  7 active torsions:
REMARK  status: ('A' for Active; 'I' for Inactive)
REMARK    1  A    between atoms: N1_1  and  C1_2 
REMARK    2  A    between atoms: C2_4  and  C3_5 
REMARK    3  A    between atoms: C4_6  and  C5_7 
REMARK    4  A    between atoms: C6_8  and  C7_9 
REMARK    5  A    between atoms: C7_9  and  C8_10 
REMARK    6  A    between atoms: C14_17  and  C15_18 
REMARK    7  A    between atoms: C17_20  and  C18_21 
ROOT
HETATM    1  C1  UNL     1      26.290   2.088  52.291  1.00  0.00     0.247 C 
HETATM    2  N2  UNL     1      25.419   2.952  52.107  1.00  0.00    -0.208 NA
HETATM    3  C2  UNL     1      24.070   3.082  52.438  1.00  0.00     0.060 C 
HETATM    4  C9  UNL     1      23.034   2.332  52.885  1.00  0.00     0.028 C 
HETATM    5  C10 UNL     1      23.181   0.878  53.172  1.00  0.00    -0.019 C 
HETATM    6  C11 UNL     1      24.049  -0.114  53.169  1.00  0.00     0.024 C 
HETATM    7  C12 UNL     1      25.097  -1.019  53.101  1.00  0.00     0.035 C 
HETATM    8  C13 UNL     1      26.158  -1.059  52.037  1.00  0.00     0.023 C 
HETATM    9  C14 UNL     1      27.121  -0.178  53.320  1.00  0.00     0.009 A 
HETATM   10  C18 UNL     1      27.546   0.349  54.895  1.00  0.00     0.019 A 
HETATM   11  C19 UNL     1      26.313   0.097  54.747  1.00  0.00     0.052 A 
HETATM   12  C20 UNL     1      26.380  -0.066  53.879  1.00  0.00     0.091 A 
HETATM   13  N3  UNL     1      26.186   1.017  52.914  1.00  0.00    -0.408 NA
ENDROOT
BRANCH   3  14
HETATM   14  C3  UNL     1      23.486   4.435  52.270  1.00  0.00     0.031 C 
HETATM   15  C4  UNL     1      23.046   4.908  51.148  1.00  0.00     0.002 C 
BRANCH  15  16
HETATM   16  C5  UNL     1      22.797   4.745  49.717  1.00  0.00    -0.004 C 
HETATM   17  C6  UNL     1      22.773   4.052  48.599  1.00  0.00    -0.026 C 
BRANCH  17  18
HETATM   18  C7  UNL     1      23.212   2.632  48.678  1.00  0.00     0.038 C 
BRANCH  18  19
HETATM   19  C8  UNL     1      22.071   1.774  48.202  1.00  0.00     0.089 C 
HETATM   20 BR1  UNL     1      21.247   0.980  49.780  1.00  0.00    -0.096 Br
ENDBRANCH  18  19
ENDBRANCH  17  18
ENDBRANCH  15  16
ENDBRANCH   3  14
BRANCH   1  21
HETATM   21  N1  UNL     1      27.361   2.744  51.633  1.00  0.00    -0.260 NA
HETATM   22  H1  UNL     1      27.611   3.759  51.821  1.00  0.00     0.128 HD
HETATM   23  H2  UNL     1      27.901   3.610  51.516  1.00  0.00     0.128 HD
ENDBRANCH   1  21
BRANCH  10  24
HETATM   24  C17 UNL     1      28.764   0.371  54.239  1.00  0.00     0.009 A 
HETATM   25  C16 UNL     1      29.961   0.940  53.835  1.00  0.00     0.001 A 
HETATM   26  C15 UNL     1      29.387   1.943  54.603  1.00  0.00     0.008 A 
ENDBRANCH  10  24
TORSDOF 7
ENDMDL
MODEL 4
REMARK VINA RESULT:      -7.7      9.226     11.405
REMARK  7 active torsions:
REMARK  status: ('A' for Active; 'I' for Inactive)
REMARK    1  A    between atoms: N1_1  and  C1_2 
REMARK    2  A    between atoms: C2_4  and  C3_5 
REMARK    3  A    between atoms: C4_6  and  C5_7 
REMARK    4  A    between atoms: C6_8  and  C7_9 
REMARK    5  A    between atoms: C7_9  and  C8_10 
REMARK    6  A    between atoms: C14_17  and  C15_18 
REMARK    7  A    between atoms: C17_20  and  C18_21 
ROOT
HETATM    1  C1  UNL     1      32.130   6.420  49.269  1.00  0.00     0.247 C 
HETATM    2  N2  UNL     1      31.332   7.340  49.503  1.00  0.00    -0.208 NA
HETATM    3  C2  UNL     1      31.107   8.612  48.978  1.00  0.00     0.060 C 
HETATM    4  C9  UNL     1      31.710   9.526  48.179  1.00  0.00     0.028 C 
HETATM    5  C10 UNL     1      33.046   9.279  47.568  1.00  0.00    -0.019 C 
HETATM    6  C11 UNL     1      34.016   8.391  47.480  1.00  0.00     0.024 C 
HETATM    7  C12 UNL     1      34.920   7.340  47.508  1.00  0.00     0.035 C 
HETATM    8  C13 UNL     1      35.238   6.484  48.700  1.00  0.00     0.023 C 
HETATM    9  C14 UNL     1      34.073   5.341  47.873  1.00  0.00     0.009 A 
HETATM   10  C18 UNL     1      33.171   4.663  46.583  1.00  0.00     0.019 A 
HETATM   11  C19 UNL     1      33.438   5.893  46.439  1.00  0.00     0.052 A 
HETATM   12  C20 UNL     1      33.816   5.974  47.236  1.00  0.00     0.091 A 
HETATM   13  N3  UNL     1      33.009   6.374  48.390  1.00  0.00    -0.408 NA
ENDROOT
BRANCH   3  14
HETATM   14  C3  UNL     1      29.835   9.264  49.371  1.00  0.00     0.031 C 
HETATM   15  C4  UNL     1      28.661   8.850  49.016  1.00  0.00     0.002 C 
BRANCH  15  16
HETATM   16  C5  UNL     1      27.819   7.897  48.296  1.00  0.00    -0.004 C 
HETATM   17  C6  UNL     1      27.460   6.683  47.935  1.00  0.00    -0.026 C 
BRANCH  17  18
HETATM   18  C7  UNL     1      28.252   5.553  48.492  1.00  0.00     0.038 C 
BRANCH  18  19
HETATM   19  C8  UNL     1      27.293   4.446  48.834  1.00  0.00     0.089 C 
HETATM   20 BR1  UNL     1      25.721   5.270  49.641  1.00  0.00    -0.096 Br
ENDBRANCH  18  19
ENDBRANCH  17  18
ENDBRANCH  15  16
ENDBRANCH   3  14
BRANCH   1  21
HETATM   21  N1  UNL     1      31.673   5.505  50.252  1.00  0.00    -0.260 NA
HETATM   22  H1  UNL     1      31.941   5.588  51.277  1.00  0.00     0.128 HD
HETATM   23  H2  UNL     1      31.675   5.230  51.242  1.00  0.00     0.128 HD
ENDBRANCH   1  21
BRANCH  10  24
HETATM   24  C17 UNL     1      33.328   3.581  47.432  1.00  0.00     0.009 A 
HETATM   25  C16 UNL     1      33.109   2.283  47.862  1.00  0.00     0.001 A 
HETATM   26  C15 UNL     1      32.351   2.353  46.701  1.00  0.00     0.008 A 
ENDBRANCH  10  24
TORSDOF 7
ENDMDL
MODEL 5
REMARK VINA RESULT:      -7.7      2.943      6.359
REMARK  7 active torsions:
REMARK  status: ('A' for Active; 'I' for Inactive)
REMARK    1  A    between atoms: N1_1  and  C1_2 
REMARK    2  A    between atoms: C2_4  and  C3_5 
REMARK    3  A    between atoms: C4_6  and  C5_7 
REMARK    4  A    between atoms: C6_8  and  C7_9 
REMARK    5  A    between atoms: C7_9  and  C8_10 
REMARK    6  A    between atoms: C14_17  and  C15_18 
REMARK    7  A    between atoms: C17_20  and  C18_21 
ROOT
HETATM    1  C1  UNL     1      22.743   1.294  52.746  1.00  0.00     0.247 C 
HETATM    2  N2  UNL     1      23.130   0.543  53.655  1.00  0.00    -0.208 NA
HETATM    3  C2  UNL     1      22.616  -0.590  54.286  1.00  0.00     0.060 C 
HETATM    4  C9  UNL     1      21.452  -1.275  54.404  1.00  0.00     0.028 C 
HETATM    5  C10 UNL     1      20.207  -0.836  53.713  1.00  0.00    -0.019 C 
HETATM    6  C11 UNL     1      19.718   0.087  52.911  1.00  0.00     0.024 C 
HETATM    7  C12 UNL     1      19.390   1.137  52.067  1.00  0.00     0.035 C 
HETATM    8  C13 UNL     1      19.899   2.547  52.177  1.00  0.00     0.023 C 
HETATM    9  C14 UNL     1      21.039   1.969  50.868  1.00  0.00     0.009 A 
HETATM   10  C18 UNL     1      21.604   0.982  49.585  1.00  0.00     0.019 A 
HETATM   11  C19 UNL     1      20.832   0.388  50.396  1.00  0.00     0.052 A 
HETATM   12  C20 UNL     1      20.770   1.078  50.948  1.00  0.00     0.091 A 
HETATM   13  N3  UNL     1      21.705   1.204  52.067  1.00  0.00    -0.408 NA
ENDROOT
BRANCH   3  14
HETATM   14  C3  UNL     1      23.566  -1.349  55.134  1.00  0.00     0.031 C 
HETATM   15  C4  UNL     1      24.806  -1.027  55.312  1.00  0.00     0.002 C 
BRANCH  15  16
HETATM   16  C5  UNL     1      25.933  -0.134  55.048  1.00  0.00    -0.004 C 
HETATM   17  C6  UNL     1      26.865   0.388  54.278  1.00  0.00    -0.026 C 
BRANCH  17  18
HETATM   18  C7  UNL     1      26.928  -0.099  52.873  1.00  0.00     0.038 C 
BRANCH  18  19
HETATM   19  C8  UNL     1      27.655  -1.416  52.878  1.00  0.00     0.089 C 
HETATM   20 BR1  UNL     1      29.471  -1.072  53.495  1.00  0.00    -0.096 Br
ENDBRANCH  18  19
ENDBRANCH  17  18
ENDBRANCH  15  16
ENDBRANCH   3  14
BRANCH   1  21
HETATM   21  N1  UNL     1      23.851   2.180  52.737  1.00  0.00    -0.260 NA
HETATM   22  H1  UNL     1      24.185   2.667  51.853  1.00  0.00     0.128 HD
HETATM   23  H2  UNL     1      24.455   2.801  52.184  1.00  0.00     0.128 HD
ENDBRANCH   1  21
BRANCH  10  24
HETATM   24  C17 UNL     1      22.215   2.194  49.314  1.00  0.00     0.009 A 
HETATM   25  C16 UNL     1      22.840   3.130  48.507  1.00  0.00     0.001 A 
HETATM   26  C15 UNL     1      22.588   2.087  47.628  1.00  0.00     0.008 A 
ENDBRANCH  10  24
TORSDOF 7
ENDMDL
MODEL 6
REMARK VINA RESULT:      -7.6      2.445      6.649
REMARK  7 active torsions:
REMARK  status: ('A' for Active; 'I' for Inactive)
REMARK    1  A    between atoms: N1_1  and  C1_2 
REMARK    2  A    between atoms: C2_4  and  C3_5 
REMARK    3  A    between atoms: C4_6  and  C5_7 
REMARK    4  A    between atoms: C6_8  and  C7_9 
REMARK    5  A    between atoms: C7_9  and  C8_10 
REMARK    6  A    between atoms: C14_17  and  C15_18 
REMARK    7  A    between atoms: C17_20  and  C18_21 
ROOT
HETATM    1  C1  UNL     1      22.812   2.399  52.563  1.00  0.00     0.247 C 
HETATM    2  N2  UNL     1      24.046   2.429  52.689  1.00  0.00    -0.208 NA
HETATM    3  C2  UNL     1      25.046   1.471  52.852  1.00  0.00     0.060 C 
HETATM    4  C9  UNL     1      25.187   0.158  53.157  1.00  0.00     0.028 C 
HETATM    5  C10 UNL     1      24.014  -0.713  53.446  1.00  0.00    -0.019 C 
HETATM    6  C11 UNL     1      22.699  -0.715  53.529  1.00  0.00     0.024 C 
HETATM    7  C12 UNL     1      21.327  -0.520  53.566  1.00  0.00     0.035 C 
HETATM    8  C13 UNL     1      20.625   0.702  54.087  1.00  0.00     0.023 C 
HETATM    9  C14 UNL     1      20.543   1.105  52.304  1.00  0.00     0.009 A 
HETATM   10  C18 UNL     1      20.557   0.815  50.615  1.00  0.00     0.019 A 
HETATM   11  C19 UNL     1      21.225  -0.023  51.291  1.00  0.00     0.052 A 
HETATM   12  C20 UNL     1      21.103   0.398  52.061  1.00  0.00     0.091 A 
HETATM   13  N3  UNL     1      22.072   1.400  52.508  1.00  0.00    -0.408 NA
ENDROOT
BRANCH   3  14
HETATM   14  C3  UNL     1      26.438   1.946  52.664  1.00  0.00     0.031 C 
HETATM   15  C4  UNL     1      26.872   2.537  51.597  1.00  0.00     0.002 C 
BRANCH  15  16
HETATM   16  C5  UNL     1      26.633   3.058  50.253  1.00  0.00    -0.004 C 
HETATM   17  C6  UNL     1      26.032   3.847  49.386  1.00  0.00    -0.026 C 
BRANCH  17  18
HETATM   18  C7  UNL     1      25.010   4.784  49.926  1.00  0.00     0.038 C 
BRANCH  18  19
HETATM   19  C8  UNL     1      23.870   4.831  48.945  1.00  0.00     0.089 C 
HETATM   20 BR1  UNL     1      23.136   3.030  48.825  1.00  0.00    -0.096 Br
ENDBRANCH  18  19
ENDBRANCH  17  18
ENDBRANCH  15  16
ENDBRANCH   3  14
BRANCH   1  21
HETATM   21  N1  UNL     1      22.588   3.795  52.460  1.00  0.00    -0.260 NA
HETATM   22  H1  UNL     1      23.010   4.492  53.142  1.00  0.00     0.128 HD
HETATM   23  H2  UNL     1      22.772   4.729  52.847  1.00  0.00     0.128 HD
ENDBRANCH   1  21
BRANCH  10  24
HETATM   24  C17 UNL     1      19.772   1.951  50.711  1.00  0.00     0.009 A 
HETATM   25  C16 UNL     1      19.004   2.990  50.213  1.00  0.00     0.001 A 
HETATM   26  C15 UNL     1      19.371   2.302  49.065  1.00  0.00     0.008 A 
ENDBRANCH  10  24
TORSDOF 7
ENDMDL
MODEL 7
REMARK VINA RESULT:      -7.5      5.238      7.506
REMARK  7 active torsions:
REMARK  status: ('A' for Active; 'I' for Inactive)
REMARK    1  A    between atoms: N1_1  and  C1_2 
REMARK    2  A    between atoms: C2_4  and  C3_5 
REMARK    3  A    between atoms: C4_6  and  C5_7 
REMARK    4  A    between atoms: C6_8  and  C7_9 
REMARK    5  A    between atoms: C7_9  and  C8_10 
REMARK    6  A    between atoms: C14_17  and  C15_18 
REMARK    7  A    between atoms: C17_20  and  C18_21 
ROOT
HETATM    1  C1  UNL     1      24.167   5.729  51.273  1.00  0.00     0.247 C 
HETATM    2  N2  UNL     1      23.844   4.647  51.785  1.00  0.00    -0.208 NA
HETATM    3  C2  UNL     1      23.532   3.377  51.298  1.00  0.00     0.060 C 
HETATM    4  C9  UNL     1      23.221   2.760  50.132  1.00  0.00     0.028 C 
HETATM    5  C10 UNL     1      23.133   3.505  48.845  1.00  0.00    -0.019 C 
HETATM    6  C11 UNL     1      23.263   4.703  48.311  1.00  0.00     0.024 C 
HETATM    7  C12 UNL     1      23.444   6.026  47.938  1.00  0.00     0.035 C 
HETATM    8  C13 UNL     1      23.031   7.230  48.735  1.00  0.00     0.023 C 
HETATM    9  C14 UNL     1      24.799   7.214  49.203  1.00  0.00     0.009 A 
HETATM   10  C18 UNL     1      26.467   6.842  49.069  1.00  0.00     0.019 A 
HETATM   11  C19 UNL     1      25.701   5.995  48.521  1.00  0.00     0.052 A 
HETATM   12  C20 UNL     1      24.957   6.386  48.799  1.00  0.00     0.091 A 
HETATM   13  N3  UNL     1      24.350   5.983  50.069  1.00  0.00    -0.408 NA
ENDROOT
BRANCH   3  14
HETATM   14  C3  UNL     1      23.489   2.288  52.302  1.00  0.00     0.031 C 
HETATM   15  C4  UNL     1      24.403   1.382  52.439  1.00  0.00     0.002 C 
BRANCH  15  16
HETATM   16  C5  UNL     1      25.676   0.795  52.024  1.00  0.00    -0.004 C 
HETATM   17  C6  UNL     1      26.725   0.018  52.195  1.00  0.00    -0.026 C 
BRANCH  17  18
HETATM   18  C7  UNL     1      26.787  -0.760  53.462  1.00  0.00     0.038 C 
BRANCH  18  19
HETATM   19  C8  UNL     1      27.617   0.025  54.441  1.00  0.00     0.089 C 
HETATM   20 BR1  UNL     1      29.422   0.132  53.714  1.00  0.00    -0.096 Br
ENDBRANCH  18  19
ENDBRANCH  17  18
ENDBRANCH  15  16
ENDBRANCH   3  14
BRANCH   1  21
HETATM   21  N1  UNL     1      24.290   6.484  52.467  1.00  0.00    -0.260 NA
HETATM   22  H1  UNL     1      23.477   6.634  53.133  1.00  0.00     0.128 HD
HETATM   23  H2  UNL     1      23.828   6.847  53.310  1.00  0.00     0.128 HD
ENDBRANCH   1  21
BRANCH  10  24
HETATM   24  C17 UNL     1      26.487   8.026  49.785  1.00  0.00     0.009 A 
HETATM   25  C16 UNL     1      27.038   9.221  50.217  1.00  0.00     0.001 A 
HETATM   26  C15 UNL     1      28.012   8.725  49.361  1.00  0.00     0.008 A 
ENDBRANCH  10  24
TORSDOF 7
ENDMDL
MODEL 8
REMARK VINA RESULT:      -7.5      4.209      6.399
REMARK  7 active torsions:
REMARK  status: ('A' for Active; 'I' for Inactive)
REMARK    1  A    between atoms: N1_1  and  C1_2 
REMARK    2  A    between atoms: C2_4  and  C3_5 
REMARK    3  A    between atoms: C4_6  and  C5_7 
REMARK    4  A    between atoms: C6_8  and  C7_9 
REMARK    5  A    between atoms: C7_9  and  C8_10 
REMARK    6  A    between atoms: C14_17  and  C15_18 
REMARK    7  A    between atoms: C17_20  and  C18_21 
ROOT
HETATM    1  C1  UNL     1      23.170   4.304  51.687  1.00  0.00     0.247 C 
HETATM    2  N2  UNL     1      22.838   3.293  52.325  1.00  0.00    -0.208 NA
HETATM    3  C2  UNL     1      22.598   1.957  52.004  1.00  0.00     0.060 C 
HETATM    4  C9  UNL     1      22.391   1.170  50.920  1.00  0.00     0.028 C 
HETATM    5  C10 UNL     1      22.379   1.723  49.537  1.00  0.00    -0.019 C 
HETATM    6  C11 UNL     1      22.516   2.838  48.847  1.00  0.00     0.024 C 
HETATM    7  C12 UNL     1      22.689   4.100  48.301  1.00  0.00     0.035 C 
HETATM    8  C13 UNL     1      22.185   5.389  48.887  1.00  0.00     0.023 C 
HETATM    9  C14 UNL     1      23.914   5.504  49.475  1.00  0.00     0.009 A 
HETATM   10  C18 UNL     1      25.597   5.179  49.512  1.00  0.00     0.019 A 
HETATM   11  C19 UNL     1      24.896   4.236  49.039  1.00  0.00     0.052 A 
HETATM   12  C20 UNL     1      24.123   4.634  49.206  1.00  0.00     0.091 A 
HETATM   13  N3  UNL     1      23.435   4.392  50.475  1.00  0.00    -0.408 NA
ENDROOT
BRANCH   3  14
HETATM   14  C3  UNL     1      22.509   1.019  53.149  1.00  0.00     0.031 C 
HETATM   15  C4  UNL     1      23.430   0.168  53.470  1.00  0.00     0.002 C 
BRANCH  15  16
HETATM   16  C5  UNL     1      24.738  -0.435  53.223  1.00  0.00    -0.004 C 
HETATM   17  C6  UNL     1      25.983  -0.410  52.797  1.00  0.00    -0.026 C 
BRANCH  17  18
HETATM   18  C7  UNL     1      26.476   0.876  52.233  1.00  0.00     0.038 C 
BRANCH  18  19
HETATM   19  C8  UNL     1      26.609   1.853  53.369  1.00  0.00     0.089 C 
HETATM   20 BR1  UNL     1      28.500   2.293  53.536  1.00  0.00    -0.096 Br
ENDBRANCH  18  19
ENDBRANCH  17  18
ENDBRANCH  15  16
ENDBRANCH   3  14
BRANCH   1  21
HETATM   21  N1  UNL     1      23.184   5.224  52.766  1.00  0.00    -0.260 NA
HETATM   22  H1  UNL     1      23.902   6.003  52.843  1.00  0.00     0.128 HD
HETATM   23  H2  UNL     1      23.635   6.039  53.199  1.00  0.00     0.128 HD
ENDBRANCH   1  21
BRANCH  10  24
HETATM   24  C17 UNL     1      25.532   6.452  50.051  1.00  0.00     0.009 A 
HETATM   25  C16 UNL     1      25.928   7.771  50.205  1.00  0.00     0.001 A 
HETATM   26  C15 UNL     1      26.806   7.297  49.240  1.00  0.00     0.008 A 
ENDBRANCH  10  24
TORSDOF 7
ENDMDL
MODEL 9
REMARK VINA RESULT:      -7.5      3.521      6.117
REMARK  7 active torsions:
REMARK  status: ('A' for Active; 'I' for Inactive)
REMARK    1  A    between atoms: N1_1  and  C1_2 
REMARK    2  A    between atoms: C2_4  and  C3_5 
REMARK    3  A    between atoms: C4_6  and  C5_7 
REMARK    4  A    between atoms: C6_8  and  C7_9 
REMARK    5  A    between atoms: C7_9  and  C8_10 
REMARK    6  A    between atoms: C14_17  and  C15_18 
REMARK    7  A    between atoms: C17_20  and  C18_21 
ROOT
HETATM    1  C1  UNL     1      23.650   4.168  51.995  1.00  0.00     0.247 C 
HETATM    2  N2  UNL     1      23.890   5.041  51.148  1.00  0.00    -0.208 NA
HETATM    3  C2  UNL     1      24.779   5.164  50.080  1.00  0.00     0.060 C 
HETATM    4  C9  UNL     1      25.892   4.571  49.582  1.00  0.00     0.028 C 
HETATM    5  C10 UNL     1      26.521   3.395  50.245  1.00  0.00    -0.019 C 
HETATM    6  C11 UNL     1      26.405   2.579  51.273  1.00  0.00     0.024 C 
HETATM    7  C12 UNL     1      26.118   1.828  52.403  1.00  0.00     0.035 C 
HETATM    8  C13 UNL     1      25.599   2.364  53.707  1.00  0.00     0.023 C 
HETATM    9  C14 UNL     1      24.006   1.780  53.023  1.00  0.00     0.009 A 
HETATM   10  C18 UNL     1      22.953   0.866  52.026  1.00  0.00     0.019 A 
HETATM   11  C19 UNL     1      24.097   1.074  51.521  1.00  0.00     0.052 A 
HETATM   12  C20 UNL     1      24.370   1.595  52.183  1.00  0.00     0.091 A 
HETATM   13  N3  UNL     1      24.168   3.042  52.104  1.00  0.00    -0.408 NA
ENDROOT
BRANCH   3  14
HETATM   14  C3  UNL     1      24.515   6.278  49.139  1.00  0.00     0.031 C 
HETATM   15  C4  UNL     1      23.675   6.223  48.156  1.00  0.00     0.002 C 
BRANCH  15  16
HETATM   16  C5  UNL     1      22.687   5.480  47.376  1.00  0.00    -0.004 C 
HETATM   17  C6  UNL     1      22.042   4.386  47.031  1.00  0.00    -0.026 C 
BRANCH  17  18
HETATM   18  C7  UNL     1      22.410   3.134  47.747  1.00  0.00     0.038 C 
BRANCH  18  19
HETATM   19  C8  UNL     1      21.647   3.108  49.043  1.00  0.00     0.089 C 
HETATM   20 BR1  UNL     1      20.773   1.370  49.166  1.00  0.00    -0.096 Br
ENDBRANCH  18  19
ENDBRANCH  17  18
ENDBRANCH  15  16
ENDBRANCH   3  14
BRANCH   1  21
HETATM   21  N1  UNL     1      22.620   4.848  52.695  1.00  0.00    -0.260 NA
HETATM   22  H1  UNL     1      22.335   5.844  52.462  1.00  0.00     0.128 HD
HETATM   23  H2  UNL     1      22.073   5.711  52.800  1.00  0.00     0.128 HD
ENDBRANCH   1  21
BRANCH  10  24
HETATM   24  C17 UNL     1      22.167   1.108  53.139  1.00  0.00     0.009 A 
HETATM   25  C16 UNL     1      21.069   0.922  53.962  1.00  0.00     0.001 A 
HETATM   26  C15 UNL     1      20.842   0.012  52.939  1.00  0.00     0.008 A 
ENDBRANCH  10  24
TORSDOF 7
ENDMDL
