MODEL 1
REMARK VINA RESULT:      -9.3      0.000      0.000
REMARK  5 active torsions:
REMARK  status: ('A' for Active; 'I' for Inactive)
REMARK    1  A    between atoms: O1_1  and  C1_2 
REMARK    2  A    between atoms: C3_5  and  N1_6 
REMARK    3  A    between atoms: C4_8  and  C5_9 
REMARK    4  A    between atoms: C9_13  and  C10_14 
REMARK    5  A    between atoms: C13_18  and  C14_19 
ROOT
HETATM    1  N1  UNL     1      24.598   1.167  52.708  1.00  0.00    -0.236 N 
HETATM    2  N2  UNL     1      23.994   2.212  52.025  1.00  0.00    -0.174 NA
HETATM    3  C4  UNL     1      24.691   2.592  50.994  1.00  0.00     0.058 C 
HETATM    4  C12 UNL     1      25.914   1.749  50.959  1.00  0.00     0.093 C 
HETATM    5  C13 UNL     1      25.983   1.352  52.436  1.00  0.00     0.151 C 
ENDROOT
BRANCH   3   6
HETATM    6  C5  UNL     1      24.204   3.687  50.151  1.00  0.00     0.040 C 
HETATM    7  C6  UNL     1      24.913   4.613  49.545  1.00  0.00    -0.034 A 
HETATM    8  C7  UNL     1      24.347   5.694  48.709  1.00  0.00     0.012 A 
HETATM    9  C11 UNL     1      26.339   4.875  49.462  1.00  0.00     0.019 A 
HETATM   10  C8  UNL     1      25.354   6.415  48.257  1.00  0.00     0.009 A 
HETATM   11  C9  UNL     1      26.642   5.922  48.719  1.00  0.00    -0.044 A 
BRANCH  11  12
HETATM   12  C10 UNL     1      27.960   6.518  48.382  1.00  0.00     0.153 C 
HETATM   13 CL1  UNL     1      29.116   5.202  48.109  1.00  0.00    -0.126 Cl
ENDBRANCH  11  12
ENDBRANCH   3   6
BRANCH   1  14
HETATM   14  C3  UNL     1      23.795   0.231  53.450  1.00  0.00     0.192 A 
HETATM   15  S1  UNL     1      22.020  -0.041  52.806  1.00  0.00    -0.058 SA
HETATM   16  C2  UNL     1      21.586  -1.278  54.150  1.00  0.00     0.111 A 
HETATM   17  C1  UNL     1      22.843  -1.253  54.819  1.00  0.00     0.171 A 
HETATM   18  N3  UNL     1      23.960  -0.560  54.556  1.00  0.00    -0.198 NA
BRANCH  17  19
HETATM   19  O1  UNL     1      23.158  -2.012  55.968  1.00  0.00    -0.344 OA
HETATM   20  H1  UNL     1      23.184  -3.015  55.961  1.00  0.00     0.219 HD
ENDBRANCH  17  19
ENDBRANCH   1  14
BRANCH   5  21
HETATM   21  C14 UNL     1      26.864   0.220  52.700  1.00  0.00    -0.033 A 
HETATM   22  C15 UNL     1      28.029   0.395  53.413  1.00  0.00     0.012 A 
HETATM   23  C16 UNL     1      28.909  -0.625  53.701  1.00  0.00     0.043 A 
HETATM   24  C17 UNL     1      28.665  -1.915  53.281  1.00  0.00     0.116 A 
HETATM   25  F1  UNL     1      29.541  -2.880  53.576  1.00  0.00    -0.206 F 
HETATM   26  C18 UNL     1      27.521  -2.131  52.570  1.00  0.00     0.043 A 
HETATM   27  C19 UNL     1      26.636  -1.085  52.284  1.00  0.00     0.012 A 
ENDBRANCH   5  21
TORSDOF 5
ENDMDL
MODEL 2
REMARK VINA RESULT:      -9.0      4.223      7.272
REMARK  5 active torsions:
REMARK  status: ('A' for Active; 'I' for Inactive)
REMARK    1  A    between atoms: O1_1  and  C1_2 
REMARK    2  A    between atoms: C3_5  and  N1_6 
REMARK    3  A    between atoms: C4_8  and  C5_9 
REMARK    4  A    between atoms: C9_13  and  C10_14 
REMARK    5  A    between atoms: C13_18  and  C14_19 
ROOT
HETATM    1  N1  UNL     1      25.270   1.531  53.102  1.00  0.00    -0.236 N 
HETATM    2  N2  UNL     1      24.357   0.676  53.702  1.00  0.00    -0.174 NA
HETATM    3  C4  UNL     1      23.304   0.488  52.962  1.00  0.00     0.058 C 
HETATM    4  C12 UNL     1      23.479   1.305  51.734  1.00  0.00     0.093 C 
HETATM    5  C13 UNL     1      24.456   2.354  52.273  1.00  0.00     0.151 C 
ENDROOT
BRANCH   3   6
HETATM    6  C5  UNL     1      22.231  -0.390  53.436  1.00  0.00     0.040 C 
HETATM    7  C6  UNL     1      20.952  -0.333  53.139  1.00  0.00    -0.034 A 
HETATM    8  C7  UNL     1      19.923  -1.258  53.662  1.00  0.00     0.012 A 
HETATM    9  C11 UNL     1      20.172   0.537  52.276  1.00  0.00     0.019 A 
HETATM   10  C8  UNL     1      18.767  -0.906  53.133  1.00  0.00     0.009 A 
HETATM   11  C9  UNL     1      18.888   0.237  52.244  1.00  0.00    -0.044 A 
BRANCH  11  12
HETATM   12  C10 UNL     1      17.768   0.868  51.500  1.00  0.00     0.153 C 
HETATM   13 CL1  UNL     1      17.423  -0.117  50.066  1.00  0.00    -0.126 Cl
ENDBRANCH  11  12
ENDBRANCH   3   6
BRANCH   1  14
HETATM   14  C3  UNL     1      26.673   1.416  53.405  1.00  0.00     0.192 A 
HETATM   15  S1  UNL     1      27.492  -0.243  52.945  1.00  0.00    -0.058 SA
HETATM   16  C2  UNL     1      29.183   0.271  53.579  1.00  0.00     0.111 A 
HETATM   17  C1  UNL     1      28.815   1.576  54.010  1.00  0.00     0.171 A 
HETATM   18  N3  UNL     1      27.635   2.212  53.968  1.00  0.00    -0.198 NA
BRANCH  17  19
HETATM   19  O1  UNL     1      29.696   2.506  54.606  1.00  0.00    -0.344 OA
HETATM   20  H1  UNL     1      30.054   2.388  55.537  1.00  0.00     0.219 HD
ENDBRANCH  17  19
ENDBRANCH   1  14
BRANCH   5  21
HETATM   21  C14 UNL     1      25.134   3.116  51.231  1.00  0.00    -0.033 A 
HETATM   22  C15 UNL     1      24.729   4.397  50.929  1.00  0.00     0.012 A 
HETATM   23  C16 UNL     1      25.320   5.177  49.960  1.00  0.00     0.043 A 
HETATM   24  C17 UNL     1      26.382   4.706  49.217  1.00  0.00     0.116 A 
HETATM   25  F1  UNL     1      26.930   5.488  48.283  1.00  0.00    -0.206 F 
HETATM   26  C18 UNL     1      26.814   3.439  49.484  1.00  0.00     0.043 A 
HETATM   27  C19 UNL     1      26.203   2.658  50.471  1.00  0.00     0.012 A 
ENDBRANCH   5  21
TORSDOF 5
ENDMDL
MODEL 3
REMARK VINA RESULT:      -9.0      3.951      6.569
REMARK  5 active torsions:
REMARK  status: ('A' for Active; 'I' for Inactive)
REMARK    1  A    between atoms: O1_1  and  C1_2 
REMARK    2  A    between atoms: C3_5  and  N1_6 
REMARK    3  A    between atoms: C4_8  and  C5_9 
REMARK    4  A    between atoms: C9_13  and  C10_14 
REMARK    5  A    between atoms: C13_18  and  C14_19 
ROOT
HETATM    1  N1  UNL     1      24.172   0.560  52.440  1.00  0.00    -0.236 N 
HETATM    2  N2  UNL     1      22.803   0.359  52.545  1.00  0.00    -0.174 NA
HETATM    3  C4  UNL     1      22.494  -0.375  53.573  1.00  0.00     0.058 C 
HETATM    4  C12 UNL     1      23.766  -0.745  54.246  1.00  0.00     0.093 C 
HETATM    5  C13 UNL     1      24.724  -0.596  53.061  1.00  0.00     0.151 C 
ENDROOT
BRANCH   3   6
HETATM    6  C5  UNL     1      21.089  -0.691  53.843  1.00  0.00     0.040 C 
HETATM    7  C6  UNL     1      20.049  -0.465  53.071  1.00  0.00    -0.034 A 
HETATM    8  C7  UNL     1      18.653  -0.812  53.415  1.00  0.00     0.012 A 
HETATM    9  C11 UNL     1      19.904   0.115  51.748  1.00  0.00     0.019 A 
HETATM   10  C8  UNL     1      17.894  -0.455  52.398  1.00  0.00     0.009 A 
HETATM   11  C9  UNL     1      18.658   0.143  51.316  1.00  0.00    -0.044 A 
BRANCH  11  12
HETATM   12  C10 UNL     1      18.090   0.644  50.038  1.00  0.00     0.153 C 
HETATM   13 CL1  UNL     1      16.732  -0.401  49.581  1.00  0.00    -0.126 Cl
ENDBRANCH  11  12
ENDBRANCH   3   6
BRANCH   1  14
HETATM   14  C3  UNL     1      24.680   1.750  51.809  1.00  0.00     0.192 A 
HETATM   15  S1  UNL     1      23.385   3.079  51.370  1.00  0.00    -0.058 SA
HETATM   16  C2  UNL     1      24.653   4.251  50.629  1.00  0.00     0.111 A 
HETATM   17  C1  UNL     1      25.794   3.430  50.851  1.00  0.00     0.171 A 
HETATM   18  N3  UNL     1      25.904   2.216  51.408  1.00  0.00    -0.198 NA
BRANCH  17  19
HETATM   19  O1  UNL     1      27.117   3.776  50.493  1.00  0.00    -0.344 OA
HETATM   20  H1  UNL     1      27.327   4.563  49.905  1.00  0.00     0.219 HD
ENDBRANCH  17  19
ENDBRANCH   1  14
BRANCH   5  21
HETATM   21  C14 UNL     1      26.129  -0.531  53.446  1.00  0.00    -0.033 A 
HETATM   22  C15 UNL     1      27.077  -1.247  52.748  1.00  0.00     0.012 A 
HETATM   23  C16 UNL     1      28.420  -1.234  53.053  1.00  0.00     0.043 A 
HETATM   24  C17 UNL     1      28.905  -0.482  54.102  1.00  0.00     0.116 A 
HETATM   25  F1  UNL     1      30.214  -0.496  54.371  1.00  0.00    -0.206 F 
HETATM   26  C18 UNL     1      27.998   0.242  54.819  1.00  0.00     0.043 A 
HETATM   27  C19 UNL     1      26.636   0.219  54.499  1.00  0.00     0.012 A 
ENDBRANCH   5  21
TORSDOF 5
ENDMDL
MODEL 4
REMARK VINA RESULT:      -8.7      1.950      2.513
REMARK  5 active torsions:
REMARK  status: ('A' for Active; 'I' for Inactive)
REMARK    1  A    between atoms: O1_1  and  C1_2 
REMARK    2  A    between atoms: C3_5  and  N1_6 
REMARK    3  A    between atoms: C4_8  and  C5_9 
REMARK    4  A    between atoms: C9_13  and  C10_14 
REMARK    5  A    between atoms: C13_18  and  C14_19 
ROOT
HETATM    1  N1  UNL     1      24.976   1.466  52.651  1.00  0.00    -0.236 N 
HETATM    2  N2  UNL     1      24.555   2.628  52.021  1.00  0.00    -0.174 NA
HETATM    3  C4  UNL     1      25.387   3.014  51.099  1.00  0.00     0.058 C 
HETATM    4  C12 UNL     1      26.513   2.045  51.092  1.00  0.00     0.093 C 
HETATM    5  C13 UNL     1      26.393   1.517  52.524  1.00  0.00     0.151 C 
ENDROOT
BRANCH   3   6
HETATM    6  C5  UNL     1      25.103   4.226  50.326  1.00  0.00     0.040 C 
HETATM    7  C6  UNL     1      24.206   4.386  49.378  1.00  0.00    -0.034 A 
HETATM    8  C7  UNL     1      23.978   5.645  48.637  1.00  0.00     0.012 A 
HETATM    9  C11 UNL     1      23.213   3.502  48.793  1.00  0.00     0.019 A 
HETATM   10  C8  UNL     1      22.996   5.432  47.784  1.00  0.00     0.009 A 
HETATM   11  C9  UNL     1      22.484   4.074  47.855  1.00  0.00    -0.044 A 
BRANCH  11  12
HETATM   12  C10 UNL     1      21.380   3.529  47.024  1.00  0.00     0.153 C 
HETATM   13 CL1  UNL     1      21.831   3.690  45.317  1.00  0.00    -0.126 Cl
ENDBRANCH  11  12
ENDBRANCH   3   6
BRANCH   1  14
HETATM   14  C3  UNL     1      24.010   0.565  53.224  1.00  0.00     0.192 A 
HETATM   15  S1  UNL     1      22.333   0.458  52.324  1.00  0.00    -0.058 SA
HETATM   16  C2  UNL     1      21.623  -0.796  53.529  1.00  0.00     0.111 A 
HETATM   17  C1  UNL     1      22.768  -0.894  54.368  1.00  0.00     0.171 A 
HETATM   18  N3  UNL     1      23.958  -0.280  54.301  1.00  0.00    -0.198 NA
BRANCH  17  19
HETATM   19  O1  UNL     1      22.861  -1.721  55.510  1.00  0.00    -0.344 OA
HETATM   20  H1  UNL     1      22.099  -2.296  55.822  1.00  0.00     0.219 HD
ENDBRANCH  17  19
ENDBRANCH   1  14
BRANCH   5  21
HETATM   21  C14 UNL     1      27.121   0.275  52.755  1.00  0.00    -0.033 A 
HETATM   22  C15 UNL     1      28.304   0.281  53.461  1.00  0.00     0.012 A 
HETATM   23  C16 UNL     1      29.045  -0.851  53.719  1.00  0.00     0.043 A 
HETATM   24  C17 UNL     1      28.633  -2.089  53.272  1.00  0.00     0.116 A 
HETATM   25  F1  UNL     1      29.379  -3.166  53.539  1.00  0.00    -0.206 F 
HETATM   26  C18 UNL     1      27.466  -2.138  52.568  1.00  0.00     0.043 A 
HETATM   27  C19 UNL     1      26.723  -0.980  52.313  1.00  0.00     0.012 A 
ENDBRANCH   5  21
TORSDOF 5
ENDMDL
MODEL 5
REMARK VINA RESULT:      -8.7      0.927      1.396
REMARK  5 active torsions:
REMARK  status: ('A' for Active; 'I' for Inactive)
REMARK    1  A    between atoms: O1_1  and  C1_2 
REMARK    2  A    between atoms: C3_5  and  N1_6 
REMARK    3  A    between atoms: C4_8  and  C5_9 
REMARK    4  A    between atoms: C9_13  and  C10_14 
REMARK    5  A    between atoms: C13_18  and  C14_19 
ROOT
HETATM    1  N1  UNL     1      23.973   1.308  52.675  1.00  0.00    -0.236 N 
HETATM    2  N2  UNL     1      23.202   2.114  51.850  1.00  0.00    -0.174 NA
HETATM    3  C4  UNL     1      23.870   2.539  50.818  1.00  0.00     0.058 C 
HETATM    4  C12 UNL     1      25.250   2.001  50.936  1.00  0.00     0.093 C 
HETATM    5  C13 UNL     1      25.298   1.778  52.450  1.00  0.00     0.151 C 
ENDROOT
BRANCH   3   6
HETATM    6  C5  UNL     1      23.213   3.405  49.834  1.00  0.00     0.040 C 
HETATM    7  C6  UNL     1      23.701   4.478  49.252  1.00  0.00    -0.034 A 
HETATM    8  C7  UNL     1      22.973   5.306  48.266  1.00  0.00     0.012 A 
HETATM    9  C11 UNL     1      24.983   5.154  49.333  1.00  0.00     0.019 A 
HETATM   10  C8  UNL     1      23.780   6.279  47.892  1.00  0.00     0.009 A 
HETATM   11  C9  UNL     1      25.072   6.214  48.554  1.00  0.00    -0.044 A 
BRANCH  11  12
HETATM   12  C10 UNL     1      26.193   7.166  48.343  1.00  0.00     0.153 C 
HETATM   13 CL1  UNL     1      27.703   6.241  48.243  1.00  0.00    -0.126 Cl
ENDBRANCH  11  12
ENDBRANCH   3   6
BRANCH   1  14
HETATM   14  C3  UNL     1      23.348   0.291  53.479  1.00  0.00     0.192 A 
HETATM   15  S1  UNL     1      21.537  -0.119  53.044  1.00  0.00    -0.058 SA
HETATM   16  C2  UNL     1      21.375  -1.417  54.392  1.00  0.00     0.111 A 
HETATM   17  C1  UNL     1      22.697  -1.297  54.906  1.00  0.00     0.171 A 
HETATM   18  N3  UNL     1      23.712  -0.505  54.532  1.00  0.00    -0.198 NA
BRANCH  17  19
HETATM   19  O1  UNL     1      23.213  -2.049  55.985  1.00  0.00    -0.344 OA
HETATM   20  H1  UNL     1      24.083  -1.822  56.432  1.00  0.00     0.219 HD
ENDBRANCH  17  19
ENDBRANCH   1  14
BRANCH   5  21
HETATM   21  C14 UNL     1      26.388   0.911  52.882  1.00  0.00    -0.033 A 
HETATM   22  C15 UNL     1      26.593  -0.307  52.272  1.00  0.00     0.012 A 
HETATM   23  C16 UNL     1      27.600  -1.178  52.624  1.00  0.00     0.043 A 
HETATM   24  C17 UNL     1      28.486  -0.871  53.635  1.00  0.00     0.116 A 
HETATM   25  F1  UNL     1      29.450  -1.740  53.952  1.00  0.00    -0.206 F 
HETATM   26  C18 UNL     1      28.317   0.327  54.266  1.00  0.00     0.043 A 
HETATM   27  C19 UNL     1      27.289   1.202  53.898  1.00  0.00     0.012 A 
ENDBRANCH   5  21
TORSDOF 5
ENDMDL
MODEL 6
REMARK VINA RESULT:      -8.5      2.666      4.318
REMARK  5 active torsions:
REMARK  status: ('A' for Active; 'I' for Inactive)
REMARK    1  A    between atoms: O1_1  and  C1_2 
REMARK    2  A    between atoms: C3_5  and  N1_6 
REMARK    3  A    between atoms: C4_8  and  C5_9 
REMARK    4  A    between atoms: C9_13  and  C10_14 
REMARK    5  A    between atoms: C13_18  and  C14_19 
ROOT
HETATM    1  N1  UNL     1      25.287   1.581  51.571  1.00  0.00    -0.236 N 
HETATM    2  N2  UNL     1      25.611   2.702  50.821  1.00  0.00    -0.174 NA
HETATM    3  C4  UNL     1      24.620   3.542  50.742  1.00  0.00     0.058 C 
HETATM    4  C12 UNL     1      23.482   2.947  51.491  1.00  0.00     0.093 C 
HETATM    5  C13 UNL     1      23.878   1.470  51.408  1.00  0.00     0.151 C 
ENDROOT
BRANCH   3   6
HETATM    6  C5  UNL     1      24.782   4.787  49.988  1.00  0.00     0.040 C 
HETATM    7  C6  UNL     1      25.857   5.220  49.368  1.00  0.00    -0.034 A 
HETATM    8  C7  UNL     1      25.945   6.496  48.625  1.00  0.00     0.012 A 
HETATM    9  C11 UNL     1      27.187   4.666  49.184  1.00  0.00     0.019 A 
HETATM   10  C8  UNL     1      27.163   6.582  48.126  1.00  0.00     0.009 A 
HETATM   11  C9  UNL     1      27.984   5.431  48.465  1.00  0.00    -0.044 A 
BRANCH  11  12
HETATM   12  C10 UNL     1      29.397   5.234  48.051  1.00  0.00     0.153 C 
HETATM   13 CL1  UNL     1      30.109   6.822  47.712  1.00  0.00    -0.126 Cl
ENDBRANCH  11  12
ENDBRANCH   3   6
BRANCH   1  14
HETATM   14  C3  UNL     1      26.317   0.861  52.273  1.00  0.00     0.192 A 
HETATM   15  S1  UNL     1      27.430   1.902  53.419  1.00  0.00    -0.058 SA
HETATM   16  C2  UNL     1      28.468   0.432  53.957  1.00  0.00     0.111 A 
HETATM   17  C1  UNL     1      27.788  -0.550  53.182  1.00  0.00     0.171 A 
HETATM   18  N3  UNL     1      26.747  -0.438  52.345  1.00  0.00    -0.198 NA
BRANCH  17  19
HETATM   19  O1  UNL     1      28.118  -1.924  53.155  1.00  0.00    -0.344 OA
HETATM   20  H1  UNL     1      28.444  -2.416  53.967  1.00  0.00     0.219 HD
ENDBRANCH  17  19
ENDBRANCH   1  14
BRANCH   5  21
HETATM   21  C14 UNL     1      23.168   0.619  52.356  1.00  0.00    -0.033 A 
HETATM   22  C15 UNL     1      21.868   0.236  52.111  1.00  0.00     0.012 A 
HETATM   23  C16 UNL     1      21.136  -0.565  52.959  1.00  0.00     0.043 A 
HETATM   24  C17 UNL     1      21.679  -1.045  54.132  1.00  0.00     0.116 A 
HETATM   25  F1  UNL     1      20.939  -1.819  54.932  1.00  0.00    -0.206 F 
HETATM   26  C18 UNL     1      22.966  -0.689  54.412  1.00  0.00     0.043 A 
HETATM   27  C19 UNL     1      23.698   0.127  53.542  1.00  0.00     0.012 A 
ENDBRANCH   5  21
TORSDOF 5
ENDMDL
MODEL 7
REMARK VINA RESULT:      -8.3      2.979      4.156
REMARK  5 active torsions:
REMARK  status: ('A' for Active; 'I' for Inactive)
REMARK    1  A    between atoms: O1_1  and  C1_2 
REMARK    2  A    between atoms: C3_5  and  N1_6 
REMARK    3  A    between atoms: C4_8  and  C5_9 
REMARK    4  A    between atoms: C9_13  and  C10_14 
REMARK    5  A    between atoms: C13_18  and  C14_19 
ROOT
HETATM    1  N1  UNL     1      24.326   3.681  50.227  1.00  0.00    -0.236 N 
HETATM    2  N2  UNL     1      24.704   4.780  49.470  1.00  0.00    -0.174 NA
HETATM    3  C4  UNL     1      25.996   4.868  49.345  1.00  0.00     0.058 C 
HETATM    4  C12 UNL     1      26.587   3.737  50.105  1.00  0.00     0.093 C 
HETATM    5  C13 UNL     1      25.441   3.473  51.086  1.00  0.00     0.151 C 
ENDROOT
BRANCH   3   6
HETATM    6  C5  UNL     1      26.577   5.970  48.575  1.00  0.00     0.040 C 
HETATM    7  C6  UNL     1      27.832   6.128  48.215  1.00  0.00    -0.034 A 
HETATM    8  C7  UNL     1      28.347   7.275  47.436  1.00  0.00     0.012 A 
HETATM    9  C11 UNL     1      29.027   5.326  48.406  1.00  0.00     0.019 A 
HETATM   10  C8  UNL     1      29.638   7.082  47.252  1.00  0.00     0.009 A 
HETATM   11  C9  UNL     1      30.107   5.848  47.859  1.00  0.00    -0.044 A 
BRANCH  11  12
HETATM   12  C10 UNL     1      31.507   5.352  47.825  1.00  0.00     0.153 C 
HETATM   13 CL1  UNL     1      31.527   3.785  46.995  1.00  0.00    -0.126 Cl
ENDBRANCH  11  12
ENDBRANCH   3   6
BRANCH   1  14
HETATM   14  C3  UNL     1      23.047   3.058  50.007  1.00  0.00     0.192 A 
HETATM   15  S1  UNL     1      21.651   3.575  51.198  1.00  0.00    -0.058 SA
HETATM   16  C2  UNL     1      20.377   2.454  50.393  1.00  0.00     0.111 A 
HETATM   17  C1  UNL     1      21.232   1.912  49.394  1.00  0.00     0.171 A 
HETATM   18  N3  UNL     1      22.527   2.141  49.132  1.00  0.00    -0.198 NA
BRANCH  17  19
HETATM   19  O1  UNL     1      20.839   0.960  48.427  1.00  0.00    -0.344 OA
HETATM   20  H1  UNL     1      19.966   0.467  48.481  1.00  0.00     0.219 HD
ENDBRANCH  17  19
ENDBRANCH   1  14
BRANCH   5  21
HETATM   21  C14 UNL     1      25.527   2.180  51.756  1.00  0.00    -0.033 A 
HETATM   22  C15 UNL     1      26.539   1.299  51.443  1.00  0.00     0.012 A 
HETATM   23  C16 UNL     1      26.685   0.063  52.033  1.00  0.00     0.043 A 
HETATM   24  C17 UNL     1      25.802  -0.374  52.997  1.00  0.00     0.116 A 
HETATM   25  F1  UNL     1      25.972  -1.580  53.547  1.00  0.00    -0.206 F 
HETATM   26  C18 UNL     1      24.784   0.469  53.336  1.00  0.00     0.043 A 
HETATM   27  C19 UNL     1      24.648   1.722  52.727  1.00  0.00     0.012 A 
ENDBRANCH   5  21
TORSDOF 5
ENDMDL
MODEL 8
REMARK VINA RESULT:      -7.9      3.822      5.018
REMARK  5 active torsions:
REMARK  status: ('A' for Active; 'I' for Inactive)
REMARK    1  A    between atoms: O1_1  and  C1_2 
REMARK    2  A    between atoms: C3_5  and  N1_6 
REMARK    3  A    between atoms: C4_8  and  C5_9 
REMARK    4  A    between atoms: C9_13  and  C10_14 
REMARK    5  A    between atoms: C13_18  and  C14_19 
ROOT
HETATM    1  N1  UNL     1      23.083   2.840  50.964  1.00  0.00    -0.236 N 
HETATM    2  N2  UNL     1      24.148   3.439  50.307  1.00  0.00    -0.174 NA
HETATM    3  C4  UNL     1      25.269   2.816  50.521  1.00  0.00     0.058 C 
HETATM    4  C12 UNL     1      24.972   1.681  51.434  1.00  0.00     0.093 C 
HETATM    5  C13 UNL     1      23.697   2.219  52.088  1.00  0.00     0.151 C 
ENDROOT
BRANCH   3   6
HETATM    6  C5  UNL     1      26.503   3.309  49.904  1.00  0.00     0.040 C 
HETATM    7  C6  UNL     1      26.694   4.453  49.287  1.00  0.00    -0.034 A 
HETATM    8  C7  UNL     1      27.975   4.882  48.684  1.00  0.00     0.012 A 
HETATM    9  C11 UNL     1      25.833   5.591  49.019  1.00  0.00     0.019 A 
HETATM   10  C8  UNL     1      27.791   6.084  48.174  1.00  0.00     0.009 A 
HETATM   11  C9  UNL     1      26.435   6.568  48.368  1.00  0.00    -0.044 A 
BRANCH  11  12
HETATM   12  C10 UNL     1      25.919   7.884  47.910  1.00  0.00     0.153 C 
HETATM   13 CL1  UNL     1      24.416   7.614  47.009  1.00  0.00    -0.126 Cl
ENDBRANCH  11  12
ENDBRANCH   3   6
BRANCH   1  14
HETATM   14  C3  UNL     1      21.750   2.954  50.432  1.00  0.00     0.192 A 
HETATM   15  S1  UNL     1      20.730   4.441  51.052  1.00  0.00    -0.058 SA
HETATM   16  C2  UNL     1      19.218   3.990  50.033  1.00  0.00     0.111 A 
HETATM   17  C1  UNL     1      19.762   2.822  49.427  1.00  0.00     0.171 A 
HETATM   18  N3  UNL     1      20.966   2.248  49.559  1.00  0.00    -0.198 NA
BRANCH  17  19
HETATM   19  O1  UNL     1      19.074   1.996  48.511  1.00  0.00    -0.344 OA
HETATM   20  H1  UNL     1      19.275   1.017  48.411  1.00  0.00     0.219 HD
ENDBRANCH  17  19
ENDBRANCH   1  14
BRANCH   5  21
HETATM   21  C14 UNL     1      22.920   1.200  52.785  1.00  0.00    -0.033 A 
HETATM   22  C15 UNL     1      23.524   0.043  53.226  1.00  0.00     0.012 A 
HETATM   23  C16 UNL     1      22.857  -0.961  53.891  1.00  0.00     0.043 A 
HETATM   24  C17 UNL     1      21.508  -0.863  54.161  1.00  0.00     0.116 A 
HETATM   25  F1  UNL     1      20.891  -1.857  54.806  1.00  0.00    -0.206 F 
HETATM   26  C18 UNL     1      20.871   0.269  53.740  1.00  0.00     0.043 A 
HETATM   27  C19 UNL     1      21.562   1.281  53.065  1.00  0.00     0.012 A 
ENDBRANCH   5  21
TORSDOF 5
ENDMDL
MODEL 9
REMARK VINA RESULT:      -7.8      5.170      8.212
REMARK  5 active torsions:
REMARK  status: ('A' for Active; 'I' for Inactive)
REMARK    1  A    between atoms: O1_1  and  C1_2 
REMARK    2  A    between atoms: C3_5  and  N1_6 
REMARK    3  A    between atoms: C4_8  and  C5_9 
REMARK    4  A    between atoms: C9_13  and  C10_14 
REMARK    5  A    between atoms: C13_18  and  C14_19 
ROOT
HETATM    1  N1  UNL     1      23.383   2.718  50.134  1.00  0.00    -0.236 N 
HETATM    2  N2  UNL     1      23.051   1.627  50.925  1.00  0.00    -0.174 NA
HETATM    3  C4  UNL     1      23.716   1.613  52.042  1.00  0.00     0.058 C 
HETATM    4  C12 UNL     1      24.619   2.792  52.030  1.00  0.00     0.093 C 
HETATM    5  C13 UNL     1      24.722   3.008  50.518  1.00  0.00     0.151 C 
ENDROOT
BRANCH   3   6
HETATM    6  C5  UNL     1      23.493   0.531  53.005  1.00  0.00     0.040 C 
HETATM    7  C6  UNL     1      22.357  -0.053  53.313  1.00  0.00    -0.034 A 
HETATM    8  C7  UNL     1      22.210  -1.142  54.303  1.00  0.00     0.012 A 
HETATM    9  C11 UNL     1      20.995   0.116  52.838  1.00  0.00     0.019 A 
HETATM   10  C8  UNL     1      20.937  -1.485  54.330  1.00  0.00     0.009 A 
HETATM   11  C9  UNL     1      20.131  -0.702  53.408  1.00  0.00    -0.044 A 
BRANCH  11  12
HETATM   12  C10 UNL     1      18.667  -0.852  53.208  1.00  0.00     0.153 C 
HETATM   13 CL1  UNL     1      18.191  -2.473  53.745  1.00  0.00    -0.126 Cl
ENDBRANCH  11  12
ENDBRANCH   3   6
BRANCH   1  14
HETATM   14  C3  UNL     1      22.420   3.259  49.211  1.00  0.00     0.192 A 
HETATM   15  S1  UNL     1      22.210   2.309  47.571  1.00  0.00    -0.058 SA
HETATM   16  C2  UNL     1      20.908   3.489  46.907  1.00  0.00     0.111 A 
HETATM   17  C1  UNL     1      20.879   4.362  48.031  1.00  0.00     0.171 A 
HETATM   18  N3  UNL     1      21.569   4.332  49.181  1.00  0.00    -0.198 NA
BRANCH  17  19
HETATM   19  O1  UNL     1      20.055   5.504  48.143  1.00  0.00    -0.344 OA
HETATM   20  H1  UNL     1      19.883   5.961  49.020  1.00  0.00     0.219 HD
ENDBRANCH  17  19
ENDBRANCH   1  14
BRANCH   5  21
HETATM   21  C14 UNL     1      25.246   4.317  50.146  1.00  0.00    -0.033 A 
HETATM   22  C15 UNL     1      26.230   4.428  49.188  1.00  0.00     0.012 A 
HETATM   23  C16 UNL     1      26.772   5.628  48.785  1.00  0.00     0.043 A 
HETATM   24  C17 UNL     1      26.348   6.820  49.332  1.00  0.00     0.116 A 
HETATM   25  F1  UNL     1      26.898   7.967  48.919  1.00  0.00    -0.206 F 
HETATM   26  C18 UNL     1      25.374   6.755  50.286  1.00  0.00     0.043 A 
HETATM   27  C19 UNL     1      24.833   5.528  50.686  1.00  0.00     0.012 A 
ENDBRANCH   5  21
TORSDOF 5
ENDMDL
