MODEL 1
REMARK VINA RESULT:      -8.5      0.000      0.000
REMARK  8 active torsions:
REMARK  status: ('A' for Active; 'I' for Inactive)
REMARK    1  A    between atoms: N1_8  and  C7_9 
REMARK    2  A    between atoms: C14_18  and  N4_19 
REMARK       I    between atoms: N4_19  and  C15_20 
REMARK    3  A    between atoms: C15_20  and  C16_22 
REMARK    4  A    between atoms: C17_23  and  C18_24 
REMARK    5  A    between atoms: C18_24  and  O2_25 
REMARK    6  A    between atoms: O2_25  and  C19_26 
REMARK    7  A    between atoms: C19_26  and  C20_27 
REMARK    8  A    between atoms: C20_27  and  O3_28 
ROOT
HETATM    1  C7  UNL     1      22.819   1.145  52.278  1.00  0.00     0.070 A 
HETATM    2  C8  UNL     1      22.223   0.131  53.035  1.00  0.00     0.089 A 
HETATM    3  C9  UNL     1      20.780   0.030  53.075  1.00  0.00     0.103 C 
HETATM    4  N2  UNL     1      19.615  -0.063  53.091  1.00  0.00    -0.191 NA
HETATM    5  C10 UNL     1      22.931  -0.805  53.763  1.00  0.00     0.142 A 
HETATM    6  N3  UNL     1      24.265  -0.750  53.754  1.00  0.00    -0.259 NA
HETATM    7  C11 UNL     1      24.896   0.210  53.043  1.00  0.00     0.069 A 
HETATM    8  C12 UNL     1      26.274   0.298  53.024  1.00  0.00     0.035 A 
HETATM    9  C13 UNL     1      26.857   1.294  52.297  1.00  0.00     0.032 A 
HETATM   10  C14 UNL     1      26.180   2.242  51.563  1.00  0.00     0.036 A 
HETATM   11  C21 UNL     1      24.821   2.137  51.594  1.00  0.00     0.045 A 
HETATM   12  C22 UNL     1      24.195   1.146  52.314  1.00  0.00     0.023 A 
ENDROOT
BRANCH   1  13
HETATM   13  N1  UNL     1      21.945   2.032  51.593  1.00  0.00    -0.345 N 
HETATM   14  C2  UNL     1      21.197   1.827  50.371  1.00  0.00     0.125 A 
HETATM   15  C1  UNL     1      22.114   1.533  49.227  1.00  0.00     0.038 C 
HETATM   16  C3  UNL     1      20.464   3.083  50.072  1.00  0.00     0.011 A 
HETATM   17 BR1  UNL     1      19.510   2.776  48.459  1.00  0.00    -0.053 Br
HETATM   18  C4  UNL     1      20.382   4.252  50.685  1.00  0.00     0.018 A 
HETATM   19  C5  UNL     1      21.176   4.330  51.913  1.00  0.00     0.018 A 
HETATM   20  C6  UNL     1      21.887   3.285  52.306  1.00  0.00     0.092 A 
ENDBRANCH   1  13
BRANCH  10  21
HETATM   21  N4  UNL     1      26.771   3.282  50.804  1.00  0.00    -0.316 N 
HETATM   22  C15 UNL     1      26.349   3.901  49.614  1.00  0.00     0.301 C 
HETATM   23  O1  UNL     1      25.280   3.510  49.089  1.00  0.00    -0.258 OA
HETATM   24  H11 UNL     1      27.673   3.703  51.131  1.00  0.00     0.170 HD
BRANCH  22  25
HETATM   25  C16 UNL     1      27.053   4.956  48.943  1.00  0.00    -0.003 C 
HETATM   26  C17 UNL     1      27.639   5.856  48.393  1.00  0.00    -0.070 C 
BRANCH  26  27
HETATM   27  C18 UNL     1      28.360   6.953  47.747  1.00  0.00     0.261 C 
BRANCH  27  28
HETATM   28  O2  UNL     1      27.799   8.194  47.968  1.00  0.00    -0.377 OA
BRANCH  28  29
HETATM   29  C19 UNL     1      28.249   8.809  49.110  1.00  0.00     0.194 C 
BRANCH  29  30
HETATM   30  C20 UNL     1      27.143   9.242  50.048  1.00  0.00     0.190 C 
BRANCH  30  31
HETATM   31  O3  UNL     1      27.742   9.559  51.282  1.00  0.00    -0.399 OA
HETATM   32  H18 UNL     1      27.166   9.311  52.038  1.00  0.00     0.209 HD
ENDBRANCH  30  31
ENDBRANCH  29  30
ENDBRANCH  28  29
ENDBRANCH  27  28
ENDBRANCH  26  27
ENDBRANCH  22  25
ENDBRANCH  10  21
TORSDOF 8
ENDMDL
MODEL 2
REMARK VINA RESULT:      -8.5      1.396      1.700
REMARK  8 active torsions:
REMARK  status: ('A' for Active; 'I' for Inactive)
REMARK    1  A    between atoms: N1_8  and  C7_9 
REMARK    2  A    between atoms: C14_18  and  N4_19 
REMARK       I    between atoms: N4_19  and  C15_20 
REMARK    3  A    between atoms: C15_20  and  C16_22 
REMARK    4  A    between atoms: C17_23  and  C18_24 
REMARK    5  A    between atoms: C18_24  and  O2_25 
REMARK    6  A    between atoms: O2_25  and  C19_26 
REMARK    7  A    between atoms: C19_26  and  C20_27 
REMARK    8  A    between atoms: C20_27  and  O3_28 
ROOT
HETATM    1  C7  UNL     1      22.718   1.117  52.288  1.00  0.00     0.070 A 
HETATM    2  C8  UNL     1      22.050   0.142  53.036  1.00  0.00     0.089 A 
HETATM    3  C9  UNL     1      20.603   0.107  53.025  1.00  0.00     0.103 C 
HETATM    4  N2  UNL     1      19.435   0.066  52.999  1.00  0.00    -0.191 NA
HETATM    5  C10 UNL     1      22.687  -0.812  53.804  1.00  0.00     0.142 A 
HETATM    6  N3  UNL     1      24.022  -0.817  53.844  1.00  0.00    -0.259 NA
HETATM    7  C11 UNL     1      24.722   0.102  53.142  1.00  0.00     0.069 A 
HETATM    8  C12 UNL     1      26.101   0.129  53.173  1.00  0.00     0.035 A 
HETATM    9  C13 UNL     1      26.755   1.085  52.454  1.00  0.00     0.032 A 
HETATM   10  C14 UNL     1      26.148   2.051  51.681  1.00  0.00     0.036 A 
HETATM   11  C21 UNL     1      24.786   2.007  51.663  1.00  0.00     0.045 A 
HETATM   12  C22 UNL     1      24.090   1.057  52.374  1.00  0.00     0.023 A 
ENDROOT
BRANCH   1  13
HETATM   13  N1  UNL     1      21.910   2.030  51.558  1.00  0.00    -0.345 N 
HETATM   14  C2  UNL     1      21.206   1.841  50.307  1.00  0.00     0.125 A 
HETATM   15  C1  UNL     1      22.157   1.497  49.205  1.00  0.00     0.038 C 
HETATM   16  C3  UNL     1      20.538   3.122  49.965  1.00  0.00     0.011 A 
HETATM   17 BR1  UNL     1      19.640   2.836  48.317  1.00  0.00    -0.053 Br
HETATM   18  C4  UNL     1      20.478   4.301  50.562  1.00  0.00     0.018 A 
HETATM   19  C5  UNL     1      21.223   4.361  51.821  1.00  0.00     0.018 A 
HETATM   20  C6  UNL     1      21.874   3.293  52.254  1.00  0.00     0.092 A 
ENDBRANCH   1  13
BRANCH  10  21
HETATM   21  N4  UNL     1      26.813   3.051  50.929  1.00  0.00    -0.316 N 
HETATM   22  C15 UNL     1      26.475   3.652  49.704  1.00  0.00     0.301 C 
HETATM   23  O1  UNL     1      25.422   3.282  49.133  1.00  0.00    -0.258 OA
HETATM   24  H11 UNL     1      27.711   3.450  51.293  1.00  0.00     0.170 HD
BRANCH  22  25
HETATM   25  C16 UNL     1      27.248   4.665  49.046  1.00  0.00    -0.003 C 
HETATM   26  C17 UNL     1      27.898   5.529  48.510  1.00  0.00    -0.070 C 
BRANCH  26  27
HETATM   27  C18 UNL     1      28.703   6.575  47.877  1.00  0.00     0.261 C 
BRANCH  27  28
HETATM   28  O2  UNL     1      29.835   6.912  48.589  1.00  0.00    -0.377 OA
BRANCH  28  29
HETATM   29  C19 UNL     1      30.914   6.104  48.330  1.00  0.00     0.194 C 
BRANCH  29  30
HETATM   30  C20 UNL     1      31.929   6.060  49.452  1.00  0.00     0.190 C 
BRANCH  30  31
HETATM   31  O3  UNL     1      31.320   5.409  50.541  1.00  0.00    -0.399 OA
HETATM   32  H18 UNL     1      31.963   5.232  51.262  1.00  0.00     0.209 HD
ENDBRANCH  30  31
ENDBRANCH  29  30
ENDBRANCH  28  29
ENDBRANCH  27  28
ENDBRANCH  26  27
ENDBRANCH  22  25
ENDBRANCH  10  21
TORSDOF 8
ENDMDL
MODEL 3
REMARK VINA RESULT:      -7.9      4.423      8.067
REMARK  8 active torsions:
REMARK  status: ('A' for Active; 'I' for Inactive)
REMARK    1  A    between atoms: N1_8  and  C7_9 
REMARK    2  A    between atoms: C14_18  and  N4_19 
REMARK       I    between atoms: N4_19  and  C15_20 
REMARK    3  A    between atoms: C15_20  and  C16_22 
REMARK    4  A    between atoms: C17_23  and  C18_24 
REMARK    5  A    between atoms: C18_24  and  O2_25 
REMARK    6  A    between atoms: O2_25  and  C19_26 
REMARK    7  A    between atoms: C19_26  and  C20_27 
REMARK    8  A    between atoms: C20_27  and  O3_28 
ROOT
HETATM    1  C7  UNL     1      24.005   1.595  52.079  1.00  0.00     0.070 A 
HETATM    2  C8  UNL     1      25.373   1.354  52.237  1.00  0.00     0.089 A 
HETATM    3  C9  UNL     1      26.326   2.191  51.541  1.00  0.00     0.103 C 
HETATM    4  N2  UNL     1      27.096   2.880  50.994  1.00  0.00    -0.191 NA
HETATM    5  C10 UNL     1      25.893   0.351  53.031  1.00  0.00     0.142 A 
HETATM    6  N3  UNL     1      25.050  -0.446  53.692  1.00  0.00    -0.259 NA
HETATM    7  C11 UNL     1      23.716  -0.262  53.577  1.00  0.00     0.069 A 
HETATM    8  C12 UNL     1      22.820  -1.077  54.240  1.00  0.00     0.035 A 
HETATM    9  C13 UNL     1      21.485  -0.851  54.077  1.00  0.00     0.032 A 
HETATM   10  C14 UNL     1      20.936   0.139  53.293  1.00  0.00     0.036 A 
HETATM   11  C21 UNL     1      21.837   0.933  52.647  1.00  0.00     0.045 A 
HETATM   12  C22 UNL     1      23.192   0.738  52.787  1.00  0.00     0.023 A 
ENDROOT
BRANCH   1  13
HETATM   13  N1  UNL     1      23.637   2.665  51.219  1.00  0.00    -0.345 N 
HETATM   14  C2  UNL     1      23.657   4.092  51.463  1.00  0.00     0.125 A 
HETATM   15  C1  UNL     1      22.766   4.449  52.611  1.00  0.00     0.038 C 
HETATM   16  C3  UNL     1      23.142   4.767  50.245  1.00  0.00     0.011 A 
HETATM   17 BR1  UNL     1      23.171   6.630  50.611  1.00  0.00    -0.053 Br
HETATM   18  C4  UNL     1      22.714   4.322  49.075  1.00  0.00     0.018 A 
HETATM   19  C5  UNL     1      22.752   2.864  48.949  1.00  0.00     0.018 A 
HETATM   20  C6  UNL     1      23.186   2.126  49.959  1.00  0.00     0.092 A 
ENDBRANCH   1  13
BRANCH  10  21
HETATM   21  N4  UNL     1      19.553   0.385  53.114  1.00  0.00    -0.316 N 
HETATM   22  C15 UNL     1      18.769   0.408  51.947  1.00  0.00     0.301 C 
HETATM   23  O1  UNL     1      19.334   0.181  50.851  1.00  0.00    -0.258 OA
HETATM   24  H11 UNL     1      18.959   0.590  53.953  1.00  0.00     0.170 HD
BRANCH  22  25
HETATM   25  C16 UNL     1      17.360   0.675  51.909  1.00  0.00    -0.003 C 
HETATM   26  C17 UNL     1      16.173   0.883  51.864  1.00  0.00    -0.070 C 
BRANCH  26  27
HETATM   27  C18 UNL     1      14.728   1.113  51.819  1.00  0.00     0.261 C 
BRANCH  27  28
HETATM   28  O2  UNL     1      14.264   1.932  52.828  1.00  0.00    -0.377 OA
BRANCH  28  29
HETATM   29  C19 UNL     1      14.728   3.221  52.753  1.00  0.00     0.194 C 
BRANCH  29  30
HETATM   30  C20 UNL     1      13.834   4.235  53.433  1.00  0.00     0.190 C 
BRANCH  30  31
HETATM   31  O3  UNL     1      14.569   4.795  54.494  1.00  0.00    -0.399 OA
HETATM   32  H18 UNL     1      14.647   4.172  55.249  1.00  0.00     0.209 HD
ENDBRANCH  30  31
ENDBRANCH  29  30
ENDBRANCH  28  29
ENDBRANCH  27  28
ENDBRANCH  26  27
ENDBRANCH  22  25
ENDBRANCH  10  21
TORSDOF 8
ENDMDL
MODEL 4
REMARK VINA RESULT:      -7.4      5.938     12.027
REMARK  8 active torsions:
REMARK  status: ('A' for Active; 'I' for Inactive)
REMARK    1  A    between atoms: N1_8  and  C7_9 
REMARK    2  A    between atoms: C14_18  and  N4_19 
REMARK       I    between atoms: N4_19  and  C15_20 
REMARK    3  A    between atoms: C15_20  and  C16_22 
REMARK    4  A    between atoms: C17_23  and  C18_24 
REMARK    5  A    between atoms: C18_24  and  O2_25 
REMARK    6  A    between atoms: O2_25  and  C19_26 
REMARK    7  A    between atoms: C19_26  and  C20_27 
REMARK    8  A    between atoms: C20_27  and  O3_28 
ROOT
HETATM    1  C7  UNL     1      32.925   8.771  46.782  1.00  0.00     0.070 A 
HETATM    2  C8  UNL     1      33.705   9.887  46.462  1.00  0.00     0.089 A 
HETATM    3  C9  UNL     1      34.900   9.712  45.666  1.00  0.00     0.103 C 
HETATM    4  N2  UNL     1      35.855   9.573  45.006  1.00  0.00    -0.191 NA
HETATM    5  C10 UNL     1      33.408  11.175  46.861  1.00  0.00     0.142 A 
HETATM    6  N3  UNL     1      32.315  11.383  47.597  1.00  0.00    -0.259 NA
HETATM    7  C11 UNL     1      31.522  10.343  47.939  1.00  0.00     0.069 A 
HETATM    8  C12 UNL     1      30.391  10.526  48.708  1.00  0.00     0.035 A 
HETATM    9  C13 UNL     1      29.636   9.438  49.032  1.00  0.00     0.032 A 
HETATM   10  C14 UNL     1      29.905   8.142  48.652  1.00  0.00     0.036 A 
HETATM   11  C21 UNL     1      31.026   7.982  47.892  1.00  0.00     0.045 A 
HETATM   12  C22 UNL     1      31.813   9.055  47.543  1.00  0.00     0.023 A 
ENDROOT
BRANCH   1  13
HETATM   13  N1  UNL     1      33.375   7.513  46.299  1.00  0.00    -0.345 N 
HETATM   14  C2  UNL     1      33.330   6.972  44.957  1.00  0.00     0.125 A 
HETATM   15  C1  UNL     1      31.919   6.875  44.468  1.00  0.00     0.038 C 
HETATM   16  C3  UNL     1      33.904   5.603  45.001  1.00  0.00     0.011 A 
HETATM   17 BR1  UNL     1      33.812   4.926  43.229  1.00  0.00    -0.053 Br
HETATM   18  C4  UNL     1      34.412   4.864  45.973  1.00  0.00     0.018 A 
HETATM   19  C5  UNL     1      34.410   5.527  47.278  1.00  0.00     0.018 A 
HETATM   20  C6  UNL     1      33.925   6.753  47.395  1.00  0.00     0.092 A 
ENDBRANCH   1  13
BRANCH  10  21
HETATM   21  N4  UNL     1      29.130   7.002  48.980  1.00  0.00    -0.316 N 
HETATM   22  C15 UNL     1      27.937   6.513  48.420  1.00  0.00     0.301 C 
HETATM   23  O1  UNL     1      27.425   7.150  47.470  1.00  0.00    -0.258 OA
HETATM   24  H11 UNL     1      29.447   6.378  49.761  1.00  0.00     0.170 HD
BRANCH  22  25
HETATM   25  C16 UNL     1      27.250   5.331  48.855  1.00  0.00    -0.003 C 
HETATM   26  C17 UNL     1      26.671   4.331  49.202  1.00  0.00    -0.070 C 
BRANCH  26  27
HETATM   27  C18 UNL     1      25.985   3.105  49.611  1.00  0.00     0.261 C 
BRANCH  27  28
HETATM   28  O2  UNL     1      25.757   3.022  50.969  1.00  0.00    -0.377 OA
BRANCH  28  29
HETATM   29  C19 UNL     1      26.808   2.491  51.675  1.00  0.00     0.194 C 
BRANCH  29  30
HETATM   30  C20 UNL     1      26.445   2.059  53.079  1.00  0.00     0.190 C 
BRANCH  30  31
HETATM   31  O3  UNL     1      27.357   2.677  53.955  1.00  0.00    -0.399 OA
HETATM   32  H18 UNL     1      27.368   3.653  53.837  1.00  0.00     0.209 HD
ENDBRANCH  30  31
ENDBRANCH  29  30
ENDBRANCH  28  29
ENDBRANCH  27  28
ENDBRANCH  26  27
ENDBRANCH  22  25
ENDBRANCH  10  21
TORSDOF 8
ENDMDL
MODEL 5
REMARK VINA RESULT:      -7.3      4.064      8.099
REMARK  8 active torsions:
REMARK  status: ('A' for Active; 'I' for Inactive)
REMARK    1  A    between atoms: N1_8  and  C7_9 
REMARK    2  A    between atoms: C14_18  and  N4_19 
REMARK       I    between atoms: N4_19  and  C15_20 
REMARK    3  A    between atoms: C15_20  and  C16_22 
REMARK    4  A    between atoms: C17_23  and  C18_24 
REMARK    5  A    between atoms: C18_24  and  O2_25 
REMARK    6  A    between atoms: O2_25  and  C19_26 
REMARK    7  A    between atoms: C19_26  and  C20_27 
REMARK    8  A    between atoms: C20_27  and  O3_28 
ROOT
HETATM    1  C7  UNL     1      25.533   1.336  53.071  1.00  0.00     0.070 A 
HETATM    2  C8  UNL     1      26.715   1.204  53.807  1.00  0.00     0.089 A 
HETATM    3  C9  UNL     1      27.840   2.061  53.502  1.00  0.00     0.103 C 
HETATM    4  N2  UNL     1      28.742   2.768  53.270  1.00  0.00    -0.191 NA
HETATM    5  C10 UNL     1      26.889   0.291  54.829  1.00  0.00     0.142 A 
HETATM    6  N3  UNL     1      25.877  -0.520  55.143  1.00  0.00    -0.259 NA
HETATM    7  C11 UNL     1      24.711  -0.440  54.466  1.00  0.00     0.069 A 
HETATM    8  C12 UNL     1      23.651  -1.273  54.762  1.00  0.00     0.035 A 
HETATM    9  C13 UNL     1      22.502  -1.155  54.038  1.00  0.00     0.032 A 
HETATM   10  C14 UNL     1      22.297  -0.257  53.013  1.00  0.00     0.036 A 
HETATM   11  C21 UNL     1      23.355   0.557  52.737  1.00  0.00     0.045 A 
HETATM   12  C22 UNL     1      24.531   0.469  53.446  1.00  0.00     0.023 A 
ENDROOT
BRANCH   1  13
HETATM   13  N1  UNL     1      25.522   2.321  52.047  1.00  0.00    -0.345 N 
HETATM   14  C2  UNL     1      24.909   3.632  52.036  1.00  0.00     0.125 A 
HETATM   15  C1  UNL     1      23.428   3.531  52.225  1.00  0.00     0.038 C 
HETATM   16  C3  UNL     1      25.169   4.243  50.708  1.00  0.00     0.011 A 
HETATM   17 BR1  UNL     1      24.338   5.951  50.731  1.00  0.00    -0.053 Br
HETATM   18  C4  UNL     1      25.816   3.829  49.631  1.00  0.00     0.018 A 
HETATM   19  C5  UNL     1      26.398   2.493  49.771  1.00  0.00     0.018 A 
HETATM   20  C6  UNL     1      26.245   1.822  50.902  1.00  0.00     0.092 A 
ENDBRANCH   1  13
BRANCH  10  21
HETATM   21  N4  UNL     1      21.110  -0.122  52.252  1.00  0.00    -0.316 N 
HETATM   22  C15 UNL     1      20.119   0.875  52.269  1.00  0.00     0.301 C 
HETATM   23  O1  UNL     1      20.253   1.829  53.071  1.00  0.00    -0.258 OA
HETATM   24  H11 UNL     1      20.876  -0.854  51.539  1.00  0.00     0.170 HD
BRANCH  22  25
HETATM   25  C16 UNL     1      18.953   0.888  51.433  1.00  0.00    -0.003 C 
HETATM   26  C17 UNL     1      17.963   0.888  50.745  1.00  0.00    -0.070 C 
BRANCH  26  27
HETATM   27  C18 UNL     1      16.748   0.897  49.927  1.00  0.00     0.261 C 
BRANCH  27  28
HETATM   28  O2  UNL     1      15.758   0.057  50.394  1.00  0.00    -0.377 OA
BRANCH  28  29
HETATM   29  C19 UNL     1      15.029   0.582  51.430  1.00  0.00     0.194 C 
BRANCH  29  30
HETATM   30  C20 UNL     1      14.742  -0.407  52.540  1.00  0.00     0.190 C 
BRANCH  30  31
HETATM   31  O3  UNL     1      15.879  -0.444  53.370  1.00  0.00    -0.399 OA
HETATM   32  H18 UNL     1      15.772  -1.091  54.101  1.00  0.00     0.209 HD
ENDBRANCH  30  31
ENDBRANCH  29  30
ENDBRANCH  28  29
ENDBRANCH  27  28
ENDBRANCH  26  27
ENDBRANCH  22  25
ENDBRANCH  10  21
TORSDOF 8
ENDMDL
MODEL 6
REMARK VINA RESULT:      -7.1      4.783      8.298
REMARK  8 active torsions:
REMARK  status: ('A' for Active; 'I' for Inactive)
REMARK    1  A    between atoms: N1_8  and  C7_9 
REMARK    2  A    between atoms: C14_18  and  N4_19 
REMARK       I    between atoms: N4_19  and  C15_20 
REMARK    3  A    between atoms: C15_20  and  C16_22 
REMARK    4  A    between atoms: C17_23  and  C18_24 
REMARK    5  A    between atoms: C18_24  and  O2_25 
REMARK    6  A    between atoms: O2_25  and  C19_26 
REMARK    7  A    between atoms: C19_26  and  C20_27 
REMARK    8  A    between atoms: C20_27  and  O3_28 
ROOT
HETATM    1  C7  UNL     1      24.529   3.482  50.530  1.00  0.00     0.070 A 
HETATM    2  C8  UNL     1      25.860   3.058  50.451  1.00  0.00     0.089 A 
HETATM    3  C9  UNL     1      26.789   3.788  49.616  1.00  0.00     0.103 C 
HETATM    4  N2  UNL     1      27.544   4.390  48.957  1.00  0.00    -0.191 NA
HETATM    5  C10 UNL     1      26.363   1.966  51.131  1.00  0.00     0.142 A 
HETATM    6  N3  UNL     1      25.541   1.262  51.913  1.00  0.00    -0.259 NA
HETATM    7  C11 UNL     1      24.243   1.624  52.027  1.00  0.00     0.069 A 
HETATM    8  C12 UNL     1      23.368   0.909  52.819  1.00  0.00     0.035 A 
HETATM    9  C13 UNL     1      22.067   1.313  52.888  1.00  0.00     0.032 A 
HETATM   10  C14 UNL     1      21.535   2.395  52.222  1.00  0.00     0.036 A 
HETATM   11  C21 UNL     1      22.416   3.088  51.446  1.00  0.00     0.045 A 
HETATM   12  C22 UNL     1      23.736   2.713  51.352  1.00  0.00     0.023 A 
ENDROOT
BRANCH   1  13
HETATM   13  N1  UNL     1      24.173   4.621  49.760  1.00  0.00    -0.345 N 
HETATM   14  C2  UNL     1      24.496   6.016  49.975  1.00  0.00     0.125 A 
HETATM   15  C1  UNL     1      23.958   6.492  51.288  1.00  0.00     0.038 C 
HETATM   16  C3  UNL     1      23.850   6.802  48.894  1.00  0.00     0.011 A 
HETATM   17 BR1  UNL     1      24.284   8.622  49.221  1.00  0.00    -0.053 Br
HETATM   18  C4  UNL     1      23.101   6.471  47.855  1.00  0.00     0.018 A 
HETATM   19  C5  UNL     1      22.855   5.032  47.743  1.00  0.00     0.018 A 
HETATM   20  C6  UNL     1      23.366   4.203  48.639  1.00  0.00     0.092 A 
ENDBRANCH   1  13
BRANCH  10  21
HETATM   21  N4  UNL     1      20.187   2.827  52.283  1.00  0.00    -0.316 N 
HETATM   22  C15 UNL     1      19.118   2.621  51.394  1.00  0.00     0.301 C 
HETATM   23  O1  UNL     1      19.332   1.951  50.356  1.00  0.00    -0.258 OA
HETATM   24  H11 UNL     1      19.872   3.399  53.103  1.00  0.00     0.170 HD
BRANCH  22  25
HETATM   25  C16 UNL     1      17.787   3.122  51.581  1.00  0.00    -0.003 C 
HETATM   26  C17 UNL     1      16.664   3.529  51.752  1.00  0.00    -0.070 C 
BRANCH  26  27
HETATM   27  C18 UNL     1      15.308   4.028  51.984  1.00  0.00     0.261 C 
BRANCH  27  28
HETATM   28  O2  UNL     1      14.337   3.050  51.915  1.00  0.00    -0.377 OA
BRANCH  28  29
HETATM   29  C19 UNL     1      13.579   2.941  53.054  1.00  0.00     0.194 C 
BRANCH  29  30
HETATM   30  C20 UNL     1      12.987   4.252  53.523  1.00  0.00     0.190 C 
BRANCH  30  31
HETATM   31  O3  UNL     1      13.398   4.443  54.856  1.00  0.00    -0.399 OA
HETATM   32  H18 UNL     1      13.619   5.383  55.035  1.00  0.00     0.209 HD
ENDBRANCH  30  31
ENDBRANCH  29  30
ENDBRANCH  28  29
ENDBRANCH  27  28
ENDBRANCH  26  27
ENDBRANCH  22  25
ENDBRANCH  10  21
TORSDOF 8
ENDMDL
MODEL 7
REMARK VINA RESULT:      -6.9      5.117      9.126
REMARK  8 active torsions:
REMARK  status: ('A' for Active; 'I' for Inactive)
REMARK    1  A    between atoms: N1_8  and  C7_9 
REMARK    2  A    between atoms: C14_18  and  N4_19 
REMARK       I    between atoms: N4_19  and  C15_20 
REMARK    3  A    between atoms: C15_20  and  C16_22 
REMARK    4  A    between atoms: C17_23  and  C18_24 
REMARK    5  A    between atoms: C18_24  and  O2_25 
REMARK    6  A    between atoms: O2_25  and  C19_26 
REMARK    7  A    between atoms: C19_26  and  C20_27 
REMARK    8  A    between atoms: C20_27  and  O3_28 
ROOT
HETATM    1  C7  UNL     1      22.827   1.506  52.211  1.00  0.00     0.070 A 
HETATM    2  C8  UNL     1      24.225   1.509  52.215  1.00  0.00     0.089 A 
HETATM    3  C9  UNL     1      24.934   2.551  51.504  1.00  0.00     0.103 C 
HETATM    4  N2  UNL     1      25.507   3.405  50.946  1.00  0.00    -0.191 NA
HETATM    5  C10 UNL     1      24.997   0.567  52.865  1.00  0.00     0.142 A 
HETATM    6  N3  UNL     1      24.385  -0.413  53.534  1.00  0.00    -0.259 NA
HETATM    7  C11 UNL     1      23.035  -0.469  53.564  1.00  0.00     0.069 A 
HETATM    8  C12 UNL     1      22.374  -1.476  54.238  1.00  0.00     0.035 A 
HETATM    9  C13 UNL     1      21.011  -1.488  54.226  1.00  0.00     0.032 A 
HETATM   10  C14 UNL     1      20.214  -0.565  53.587  1.00  0.00     0.036 A 
HETATM   11  C21 UNL     1      20.885   0.422  52.927  1.00  0.00     0.045 A 
HETATM   12  C22 UNL     1      22.260   0.470  52.918  1.00  0.00     0.023 A 
ENDROOT
BRANCH   1  13
HETATM   13  N1  UNL     1      22.185   2.546  51.486  1.00  0.00    -0.345 N 
HETATM   14  C2  UNL     1      21.527   2.500  50.197  1.00  0.00     0.125 A 
HETATM   15  C1  UNL     1      22.481   2.075  49.126  1.00  0.00     0.038 C 
HETATM   16  C3  UNL     1      21.052   3.871  49.882  1.00  0.00     0.011 A 
HETATM   17 BR1  UNL     1      20.210   3.769  48.183  1.00  0.00    -0.053 Br
HETATM   18  C4  UNL     1      21.117   5.024  50.527  1.00  0.00     0.018 A 
HETATM   19  C5  UNL     1      21.798   4.936  51.821  1.00  0.00     0.018 A 
HETATM   20  C6  UNL     1      22.279   3.775  52.236  1.00  0.00     0.092 A 
ENDBRANCH   1  13
BRANCH  10  21
HETATM   21  N4  UNL     1      18.797  -0.564  53.564  1.00  0.00    -0.316 N 
HETATM   22  C15 UNL     1      17.897  -0.511  52.485  1.00  0.00     0.301 C 
HETATM   23  O1  UNL     1      18.368  -0.454  51.325  1.00  0.00    -0.258 OA
HETATM   24  H11 UNL     1      18.273  -0.610  54.471  1.00  0.00     0.170 HD
BRANCH  22  25
HETATM   25  C16 UNL     1      16.468  -0.518  52.607  1.00  0.00    -0.003 C 
HETATM   26  C17 UNL     1      15.266  -0.543  52.705  1.00  0.00    -0.070 C 
BRANCH  26  27
HETATM   27  C18 UNL     1      13.809  -0.591  52.840  1.00  0.00     0.261 C 
BRANCH  27  28
HETATM   28  O2  UNL     1      13.241   0.624  53.164  1.00  0.00    -0.377 OA
BRANCH  28  29
HETATM   29  C19 UNL     1      12.047   0.517  53.831  1.00  0.00     0.194 C 
BRANCH  29  30
HETATM   30  C20 UNL     1      10.971   1.448  53.315  1.00  0.00     0.190 C 
BRANCH  30  31
HETATM   31  O3  UNL     1      10.521   2.213  54.407  1.00  0.00    -0.399 OA
HETATM   32  H18 UNL     1       9.559   2.400  54.345  1.00  0.00     0.209 HD
ENDBRANCH  30  31
ENDBRANCH  29  30
ENDBRANCH  28  29
ENDBRANCH  27  28
ENDBRANCH  26  27
ENDBRANCH  22  25
ENDBRANCH  10  21
TORSDOF 8
ENDMDL
MODEL 8
REMARK VINA RESULT:      -6.8      4.205      8.258
REMARK  8 active torsions:
REMARK  status: ('A' for Active; 'I' for Inactive)
REMARK    1  A    between atoms: N1_8  and  C7_9 
REMARK    2  A    between atoms: C14_18  and  N4_19 
REMARK       I    between atoms: N4_19  and  C15_20 
REMARK    3  A    between atoms: C15_20  and  C16_22 
REMARK    4  A    between atoms: C17_23  and  C18_24 
REMARK    5  A    between atoms: C18_24  and  O2_25 
REMARK    6  A    between atoms: O2_25  and  C19_26 
REMARK    7  A    between atoms: C19_26  and  C20_27 
REMARK    8  A    between atoms: C20_27  and  O3_28 
ROOT
HETATM    1  C7  UNL     1      24.413   2.871  50.569  1.00  0.00     0.070 A 
HETATM    2  C8  UNL     1      25.738   3.318  50.561  1.00  0.00     0.089 A 
HETATM    3  C9  UNL     1      26.107   4.427  49.708  1.00  0.00     0.103 C 
HETATM    4  N2  UNL     1      26.401   5.337  49.035  1.00  0.00    -0.191 NA
HETATM    5  C10 UNL     1      26.744   2.763  51.327  1.00  0.00     0.142 A 
HETATM    6  N3  UNL     1      26.449   1.737  52.128  1.00  0.00    -0.259 NA
HETATM    7  C11 UNL     1      25.185   1.261  52.177  1.00  0.00     0.069 A 
HETATM    8  C12 UNL     1      24.853   0.194  52.988  1.00  0.00     0.035 A 
HETATM    9  C13 UNL     1      23.564  -0.251  52.989  1.00  0.00     0.032 A 
HETATM   10  C14 UNL     1      22.539   0.279  52.236  1.00  0.00     0.036 A 
HETATM   11  C21 UNL     1      22.888   1.331  51.443  1.00  0.00     0.045 A 
HETATM   12  C22 UNL     1      24.177   1.811  51.416  1.00  0.00     0.023 A 
ENDROOT
BRANCH   1  13
HETATM   13  N1  UNL     1      23.502   3.548  49.714  1.00  0.00    -0.345 N 
HETATM   14  C2  UNL     1      22.890   4.851  49.867  1.00  0.00     0.125 A 
HETATM   15  C1  UNL     1      22.067   4.910  51.115  1.00  0.00     0.038 C 
HETATM   16  C3  UNL     1      21.991   5.068  48.705  1.00  0.00     0.011 A 
HETATM   17 BR1  UNL     1      21.200   6.777  48.952  1.00  0.00    -0.053 Br
HETATM   18  C4  UNL     1      21.689   4.339  47.644  1.00  0.00     0.018 A 
HETATM   19  C5  UNL     1      22.380   3.049  47.601  1.00  0.00     0.018 A 
HETATM   20  C6  UNL     1      23.213   2.714  48.573  1.00  0.00     0.092 A 
ENDBRANCH   1  13
BRANCH  10  21
HETATM   21  N4  UNL     1      21.197  -0.173  52.226  1.00  0.00    -0.316 N 
HETATM   22  C15 UNL     1      20.027   0.417  52.737  1.00  0.00     0.301 C 
HETATM   23  O1  UNL     1      20.126   1.528  53.309  1.00  0.00    -0.258 OA
HETATM   24  H11 UNL     1      20.972  -1.093  51.777  1.00  0.00     0.170 HD
BRANCH  22  25
HETATM   25  C16 UNL     1      18.715  -0.158  52.657  1.00  0.00    -0.003 C 
HETATM   26  C17 UNL     1      17.613  -0.641  52.570  1.00  0.00    -0.070 C 
BRANCH  26  27
HETATM   27  C18 UNL     1      16.286  -1.246  52.450  1.00  0.00     0.261 C 
BRANCH  27  28
HETATM   28  O2  UNL     1      15.279  -0.493  53.018  1.00  0.00    -0.377 OA
BRANCH  28  29
HETATM   29  C19 UNL     1      15.172   0.772  52.497  1.00  0.00     0.194 C 
BRANCH  29  30
HETATM   30  C20 UNL     1      13.996   1.558  53.034  1.00  0.00     0.190 C 
BRANCH  30  31
HETATM   31  O3  UNL     1      13.547   2.398  51.998  1.00  0.00    -0.399 OA
HETATM   32  H18 UNL     1      12.898   1.942  51.418  1.00  0.00     0.209 HD
ENDBRANCH  30  31
ENDBRANCH  29  30
ENDBRANCH  28  29
ENDBRANCH  27  28
ENDBRANCH  26  27
ENDBRANCH  22  25
ENDBRANCH  10  21
TORSDOF 8
ENDMDL
MODEL 9
REMARK VINA RESULT:      -6.8      2.288      2.920
REMARK  8 active torsions:
REMARK  status: ('A' for Active; 'I' for Inactive)
REMARK    1  A    between atoms: N1_8  and  C7_9 
REMARK    2  A    between atoms: C14_18  and  N4_19 
REMARK       I    between atoms: N4_19  and  C15_20 
REMARK    3  A    between atoms: C15_20  and  C16_22 
REMARK    4  A    between atoms: C17_23  and  C18_24 
REMARK    5  A    between atoms: C18_24  and  O2_25 
REMARK    6  A    between atoms: O2_25  and  C19_26 
REMARK    7  A    between atoms: C19_26  and  C20_27 
REMARK    8  A    between atoms: C20_27  and  O3_28 
ROOT
HETATM    1  C7  UNL     1      22.704   3.443  51.181  1.00  0.00     0.070 A 
HETATM    2  C8  UNL     1      21.888   2.663  52.007  1.00  0.00     0.089 A 
HETATM    3  C9  UNL     1      20.485   2.993  52.132  1.00  0.00     0.103 C 
HETATM    4  N2  UNL     1      19.346   3.247  52.217  1.00  0.00    -0.191 NA
HETATM    5  C10 UNL     1      22.336   1.575  52.728  1.00  0.00     0.142 A 
HETATM    6  N3  UNL     1      23.624   1.235  52.643  1.00  0.00    -0.259 NA
HETATM    7  C11 UNL     1      24.462   1.952  51.861  1.00  0.00     0.069 A 
HETATM    8  C12 UNL     1      25.800   1.631  51.762  1.00  0.00     0.035 A 
HETATM    9  C13 UNL     1      26.601   2.397  50.967  1.00  0.00     0.032 A 
HETATM   10  C14 UNL     1      26.185   3.488  50.237  1.00  0.00     0.036 A 
HETATM   11  C21 UNL     1      24.860   3.788  50.348  1.00  0.00     0.045 A 
HETATM   12  C22 UNL     1      24.020   3.039  51.139  1.00  0.00     0.023 A 
ENDROOT
BRANCH   1  13
HETATM   13  N1  UNL     1      22.085   4.534  50.513  1.00  0.00    -0.345 N 
HETATM   14  C2  UNL     1      21.348   4.553  49.268  1.00  0.00     0.125 A 
HETATM   15  C1  UNL     1      22.205   4.091  48.132  1.00  0.00     0.038 C 
HETATM   16  C3  UNL     1      20.941   5.957  49.004  1.00  0.00     0.011 A 
HETATM   17 BR1  UNL     1      19.992   5.940  47.359  1.00  0.00    -0.053 Br
HETATM   18  C4  UNL     1      21.118   7.091  49.662  1.00  0.00     0.018 A 
HETATM   19  C5  UNL     1      21.870   6.937  50.909  1.00  0.00     0.018 A 
HETATM   20  C6  UNL     1      22.302   5.740  51.275  1.00  0.00     0.092 A 
ENDBRANCH   1  13
BRANCH  10  21
HETATM   21  N4  UNL     1      27.004   4.293  49.407  1.00  0.00    -0.316 N 
HETATM   22  C15 UNL     1      26.935   5.665  49.105  1.00  0.00     0.301 C 
HETATM   23  O1  UNL     1      26.017   6.340  49.627  1.00  0.00    -0.258 OA
HETATM   24  H11 UNL     1      27.813   3.852  48.907  1.00  0.00     0.170 HD
BRANCH  22  25
HETATM   25  C16 UNL     1      27.840   6.361  48.238  1.00  0.00    -0.003 C 
HETATM   26  C17 UNL     1      28.586   6.954  47.498  1.00  0.00    -0.070 C 
BRANCH  26  27
HETATM   27  C18 UNL     1      29.480   7.696  46.607  1.00  0.00     0.261 C 
BRANCH  27  28
HETATM   28  O2  UNL     1      29.842   8.936  47.090  1.00  0.00    -0.377 OA
BRANCH  28  29
HETATM   29  C19 UNL     1      30.948   8.913  47.902  1.00  0.00     0.194 C 
BRANCH  29  30
HETATM   30  C20 UNL     1      32.083   8.068  47.367  1.00  0.00     0.190 C 
BRANCH  30  31
HETATM   31  O3  UNL     1      33.238   8.412  48.094  1.00  0.00    -0.399 OA
HETATM   32  H18 UNL     1      34.057   8.175  47.605  1.00  0.00     0.209 HD
ENDBRANCH  30  31
ENDBRANCH  29  30
ENDBRANCH  28  29
ENDBRANCH  27  28
ENDBRANCH  26  27
ENDBRANCH  22  25
ENDBRANCH  10  21
TORSDOF 8
ENDMDL
