MODEL 1
REMARK VINA RESULT:      -7.7      0.000      0.000
REMARK  7 active torsions:
REMARK  status: ('A' for Active; 'I' for Inactive)
REMARK    1  A    between atoms: C2_2  and  C3_3 
REMARK    2  A    between atoms: N1_5  and  C5_6 
REMARK    3  A    between atoms: N2_7  and  C6_8 
REMARK    4  A    between atoms: C6_8  and  N3_9 
REMARK    5  A    between atoms: N3_9  and  C7_10 
REMARK    6  A    between atoms: C10_13  and  C11_14 
REMARK    7  A    between atoms: C11_14  and  C12_15 
ROOT
HETATM    1  C7  UNL     1      23.589   1.740  52.555  1.00  0.00     0.030 A 
HETATM    2  C8  UNL     1      24.131   2.957  52.884  1.00  0.00     0.030 A 
HETATM    3  C9  UNL     1      24.234   3.910  51.913  1.00  0.00     0.011 A 
HETATM    4  C10 UNL     1      23.829   3.764  50.581  1.00  0.00    -0.032 A 
HETATM    5  C18 UNL     1      23.293   2.528  50.302  1.00  0.00     0.042 A 
HETATM    6 CL1  UNL     1      22.779   2.291  48.647  1.00  0.00    -0.084 Cl
HETATM    7  C19 UNL     1      23.177   1.544  51.262  1.00  0.00     0.053 A 
ENDROOT
BRANCH   1   8
HETATM    8  N3  UNL     1      23.433   0.680  53.486  1.00  0.00    -0.372 N 
HETATM    9  H12 UNL     1      22.859   0.895  54.347  1.00  0.00     0.161 HD
BRANCH   8  10
HETATM   10  C6  UNL     1      24.017  -0.630  53.291  1.00  0.00     0.272 C 
BRANCH  10  11
HETATM   11  N2  UNL     1      25.405  -0.705  53.646  1.00  0.00    -0.263 NA
HETATM   12  C5  UNL     1      25.925   0.179  54.401  1.00  0.00     0.228 C 
BRANCH  12  13
HETATM   13  N1  UNL     1      27.163  -0.513  54.290  1.00  0.00    -0.252 NA
HETATM   14  C3  UNL     1      28.125   0.093  53.661  1.00  0.00     0.009 C 
HETATM   15  C4  UNL     1      29.430  -0.589  53.518  1.00  0.00     0.065 C 
BRANCH  14  16
HETATM   16  C2  UNL     1      27.941   1.454  53.079  1.00  0.00     0.050 C 
HETATM   17  C1  UNL     1      28.900   2.372  53.831  1.00  0.00     0.011 C 
ENDBRANCH  14  16
ENDBRANCH  12  13
ENDBRANCH  10  11
ENDBRANCH   8  10
ENDBRANCH   1   8
BRANCH   4  18
HETATM   18  C11 UNL     1      24.029   4.932  49.715  1.00  0.00     0.078 C 
BRANCH  18  19
HETATM   19  C12 UNL     1      25.419   5.147  49.265  1.00  0.00    -0.051 A 
HETATM   20  C13 UNL     1      26.479   4.273  49.165  1.00  0.00     0.007 A 
HETATM   21  C14 UNL     1      27.705   4.695  48.700  1.00  0.00     0.004 A 
HETATM   22  C15 UNL     1      27.896   6.010  48.323  1.00  0.00     0.042 A 
HETATM   23  C16 UNL     1      26.870   6.927  48.402  1.00  0.00     0.116 A 
HETATM   24  F1  UNL     1      27.089   8.205  48.025  1.00  0.00    -0.206 F 
HETATM   25  C17 UNL     1      25.658   6.470  48.871  1.00  0.00     0.049 A 
ENDBRANCH  18  19
ENDBRANCH   4  18
TORSDOF 7
ENDMDL
MODEL 2
REMARK VINA RESULT:      -7.6      1.766      3.552
REMARK  7 active torsions:
REMARK  status: ('A' for Active; 'I' for Inactive)
REMARK    1  A    between atoms: C2_2  and  C3_3 
REMARK    2  A    between atoms: N1_5  and  C5_6 
REMARK    3  A    between atoms: N2_7  and  C6_8 
REMARK    4  A    between atoms: C6_8  and  N3_9 
REMARK    5  A    between atoms: N3_9  and  C7_10 
REMARK    6  A    between atoms: C10_13  and  C11_14 
REMARK    7  A    between atoms: C11_14  and  C12_15 
ROOT
HETATM    1  C7  UNL     1      26.263   2.038  53.397  1.00  0.00     0.030 A 
HETATM    2  C8  UNL     1      27.090   1.893  52.312  1.00  0.00     0.030 A 
HETATM    3  C9  UNL     1      26.703   2.429  51.118  1.00  0.00     0.011 A 
HETATM    4  C10 UNL     1      25.513   3.132  50.889  1.00  0.00    -0.032 A 
HETATM    5  C18 UNL     1      24.720   3.250  52.007  1.00  0.00     0.042 A 
HETATM    6 CL1  UNL     1      23.218   4.114  51.772  1.00  0.00    -0.084 Cl
HETATM    7  C19 UNL     1      25.085   2.718  53.226  1.00  0.00     0.053 A 
ENDROOT
BRANCH   1   8
HETATM    8  N3  UNL     1      26.570   1.521  54.683  1.00  0.00    -0.372 N 
HETATM    9  H12 UNL     1      26.858   2.229  55.414  1.00  0.00     0.161 HD
BRANCH   8  10
HETATM   10  C6  UNL     1      26.500   0.111  55.002  1.00  0.00     0.272 C 
BRANCH  10  11
HETATM   11  N2  UNL     1      25.181  -0.443  54.892  1.00  0.00    -0.263 NA
HETATM   12  C5  UNL     1      24.752  -0.868  53.770  1.00  0.00     0.228 C 
BRANCH  12  13
HETATM   13  N1  UNL     1      23.531  -1.213  54.413  1.00  0.00    -0.252 NA
HETATM   14  C3  UNL     1      22.435  -0.767  53.877  1.00  0.00     0.009 C 
HETATM   15  C4  UNL     1      21.140  -1.097  54.513  1.00  0.00     0.065 C 
BRANCH  14  16
HETATM   16  C2  UNL     1      22.453   0.071  52.643  1.00  0.00     0.050 C 
HETATM   17  C1  UNL     1      21.467   1.209  52.886  1.00  0.00     0.011 C 
ENDBRANCH  14  16
ENDBRANCH  12  13
ENDBRANCH  10  11
ENDBRANCH   8  10
ENDBRANCH   1   8
BRANCH   4  18
HETATM   18  C11 UNL     1      25.312   3.629  49.522  1.00  0.00     0.078 C 
BRANCH  18  19
HETATM   19  C12 UNL     1      26.234   4.705  49.106  1.00  0.00    -0.051 A 
HETATM   20  C13 UNL     1      27.544   4.658  48.686  1.00  0.00     0.007 A 
HETATM   21  C14 UNL     1      28.218   5.806  48.330  1.00  0.00     0.004 A 
HETATM   22  C15 UNL     1      27.587   7.033  48.389  1.00  0.00     0.042 A 
HETATM   23  C16 UNL     1      26.276   7.140  48.802  1.00  0.00     0.116 A 
HETATM   24  F1  UNL     1      25.689   8.354  48.847  1.00  0.00    -0.206 F 
HETATM   25  C17 UNL     1      25.635   5.971  49.150  1.00  0.00     0.049 A 
ENDBRANCH  18  19
ENDBRANCH   4  18
TORSDOF 7
ENDMDL
MODEL 3
REMARK VINA RESULT:      -7.5      3.558      5.738
REMARK  7 active torsions:
REMARK  status: ('A' for Active; 'I' for Inactive)
REMARK    1  A    between atoms: C2_2  and  C3_3 
REMARK    2  A    between atoms: N1_5  and  C5_6 
REMARK    3  A    between atoms: N2_7  and  C6_8 
REMARK    4  A    between atoms: C6_8  and  N3_9 
REMARK    5  A    between atoms: N3_9  and  C7_10 
REMARK    6  A    between atoms: C10_13  and  C11_14 
REMARK    7  A    between atoms: C11_14  and  C12_15 
ROOT
HETATM    1  C7  UNL     1      22.495   3.718  52.047  1.00  0.00     0.030 A 
HETATM    2  C8  UNL     1      23.285   3.065  52.959  1.00  0.00     0.030 A 
HETATM    3  C9  UNL     1      24.579   2.789  52.624  1.00  0.00     0.011 A 
HETATM    4  C10 UNL     1      25.194   3.117  51.410  1.00  0.00    -0.032 A 
HETATM    5  C18 UNL     1      24.360   3.769  50.530  1.00  0.00     0.042 A 
HETATM    6 CL1  UNL     1      25.079   4.195  48.993  1.00  0.00    -0.084 Cl
HETATM    7  C19 UNL     1      23.049   4.061  50.841  1.00  0.00     0.053 A 
ENDROOT
BRANCH   1   8
HETATM    8  N3  UNL     1      21.138   4.055  52.293  1.00  0.00    -0.372 N 
HETATM    9  H12 UNL     1      20.968   4.969  52.796  1.00  0.00     0.161 HD
BRANCH   8  10
HETATM   10  C6  UNL     1      20.033   3.213  51.889  1.00  0.00     0.272 C 
BRANCH  10  11
HETATM   11  N2  UNL     1      20.060   1.901  52.469  1.00  0.00    -0.263 NA
HETATM   12  C5  UNL     1      20.384   0.891  51.762  1.00  0.00     0.228 C 
BRANCH  12  13
HETATM   13  N1  UNL     1      20.195   0.076  52.912  1.00  0.00    -0.252 NA
HETATM   14  C3  UNL     1      21.231  -0.567  53.358  1.00  0.00     0.009 C 
HETATM   15  C4  UNL     1      21.081  -1.432  54.550  1.00  0.00     0.065 C 
BRANCH  14  16
HETATM   16  C2  UNL     1      22.563  -0.458  52.695  1.00  0.00     0.050 C 
HETATM   17  C1  UNL     1      23.602  -0.585  53.804  1.00  0.00     0.011 C 
ENDBRANCH  14  16
ENDBRANCH  12  13
ENDBRANCH  10  11
ENDBRANCH   8  10
ENDBRANCH   1   8
BRANCH   4  18
HETATM   18  C11 UNL     1      26.603   2.728  51.276  1.00  0.00     0.078 C 
BRANCH  18  19
HETATM   19  C12 UNL     1      26.985   1.503  52.006  1.00  0.00    -0.051 A 
HETATM   20  C13 UNL     1      26.616   0.189  51.818  1.00  0.00     0.007 A 
HETATM   21  C14 UNL     1      27.114  -0.811  52.625  1.00  0.00     0.004 A 
HETATM   22  C15 UNL     1      27.997  -0.513  53.643  1.00  0.00     0.042 A 
HETATM   23  C16 UNL     1      28.402   0.785  53.876  1.00  0.00     0.116 A 
HETATM   24  F1  UNL     1      29.267   1.043  54.880  1.00  0.00    -0.206 F 
HETATM   25  C17 UNL     1      27.884   1.758  53.050  1.00  0.00     0.049 A 
ENDBRANCH  18  19
ENDBRANCH   4  18
TORSDOF 7
ENDMDL
MODEL 4
REMARK VINA RESULT:      -7.5      4.650      7.530
REMARK  7 active torsions:
REMARK  status: ('A' for Active; 'I' for Inactive)
REMARK    1  A    between atoms: C2_2  and  C3_3 
REMARK    2  A    between atoms: N1_5  and  C5_6 
REMARK    3  A    between atoms: N2_7  and  C6_8 
REMARK    4  A    between atoms: C6_8  and  N3_9 
REMARK    5  A    between atoms: N3_9  and  C7_10 
REMARK    6  A    between atoms: C10_13  and  C11_14 
REMARK    7  A    between atoms: C11_14  and  C12_15 
ROOT
HETATM    1  C7  UNL     1      22.615   5.166  51.681  1.00  0.00     0.030 A 
HETATM    2  C8  UNL     1      21.909   4.265  50.925  1.00  0.00     0.030 A 
HETATM    3  C9  UNL     1      22.220   2.940  51.028  1.00  0.00     0.011 A 
HETATM    4  C10 UNL     1      23.214   2.398  51.852  1.00  0.00    -0.032 A 
HETATM    5  C18 UNL     1      23.892   3.342  52.589  1.00  0.00     0.042 A 
HETATM    6 CL1  UNL     1      25.151   2.716  53.630  1.00  0.00    -0.084 Cl
HETATM    7  C19 UNL     1      23.601   4.687  52.505  1.00  0.00     0.053 A 
ENDROOT
BRANCH   1   8
HETATM    8  N3  UNL     1      22.373   6.565  51.652  1.00  0.00    -0.372 N 
HETATM    9  H12 UNL     1      22.063   7.004  52.562  1.00  0.00     0.161 HD
BRANCH   8  10
HETATM   10  C6  UNL     1      22.534   7.366  50.457  1.00  0.00     0.272 C 
BRANCH  10  11
HETATM   11  N2  UNL     1      23.748   7.099  49.740  1.00  0.00    -0.263 NA
HETATM   12  C5  UNL     1      23.724   6.409  48.669  1.00  0.00     0.228 C 
BRANCH  12  13
HETATM   13  N1  UNL     1      25.134   6.576  48.578  1.00  0.00    -0.252 NA
HETATM   14  C3  UNL     1      25.869   5.532  48.820  1.00  0.00     0.009 C 
HETATM   15  C4  UNL     1      27.342   5.658  48.741  1.00  0.00     0.065 C 
BRANCH  14  16
HETATM   16  C2  UNL     1      25.264   4.217  49.177  1.00  0.00     0.050 C 
HETATM   17  C1  UNL     1      26.391   3.376  49.768  1.00  0.00     0.011 C 
ENDBRANCH  14  16
ENDBRANCH  12  13
ENDBRANCH  10  11
ENDBRANCH   8  10
ENDBRANCH   1   8
BRANCH   4  18
HETATM   18  C11 UNL     1      23.363   0.938  51.806  1.00  0.00     0.078 C 
BRANCH  18  19
HETATM   19  C12 UNL     1      22.484   0.191  52.727  1.00  0.00    -0.051 A 
HETATM   20  C13 UNL     1      21.127  -0.041  52.689  1.00  0.00     0.007 A 
HETATM   21  C14 UNL     1      20.506  -0.790  53.665  1.00  0.00     0.004 A 
HETATM   22  C15 UNL     1      21.238  -1.323  54.708  1.00  0.00     0.042 A 
HETATM   23  C16 UNL     1      22.599  -1.123  54.796  1.00  0.00     0.116 A 
HETATM   24  F1  UNL     1      23.285  -1.659  55.828  1.00  0.00    -0.206 F 
HETATM   25  C17 UNL     1      23.185  -0.370  53.803  1.00  0.00     0.049 A 
ENDBRANCH  18  19
ENDBRANCH   4  18
TORSDOF 7
ENDMDL
MODEL 5
REMARK VINA RESULT:      -7.5      4.325      7.345
REMARK  7 active torsions:
REMARK  status: ('A' for Active; 'I' for Inactive)
REMARK    1  A    between atoms: C2_2  and  C3_3 
REMARK    2  A    between atoms: N1_5  and  C5_6 
REMARK    3  A    between atoms: N2_7  and  C6_8 
REMARK    4  A    between atoms: C6_8  and  N3_9 
REMARK    5  A    between atoms: N3_9  and  C7_10 
REMARK    6  A    between atoms: C10_13  and  C11_14 
REMARK    7  A    between atoms: C11_14  and  C12_15 
ROOT
HETATM    1  C7  UNL     1      25.417   4.976  49.793  1.00  0.00     0.030 A 
HETATM    2  C8  UNL     1      26.373   4.076  49.397  1.00  0.00     0.030 A 
HETATM    3  C9  UNL     1      26.476   2.893  50.070  1.00  0.00     0.011 A 
HETATM    4  C10 UNL     1      25.678   2.499  51.152  1.00  0.00    -0.032 A 
HETATM    5  C18 UNL     1      24.736   3.436  51.509  1.00  0.00     0.042 A 
HETATM    6 CL1  UNL     1      23.718   2.995  52.862  1.00  0.00    -0.084 Cl
HETATM    7  C19 UNL     1      24.609   4.640  50.848  1.00  0.00     0.053 A 
ENDROOT
BRANCH   1   8
HETATM    8  N3  UNL     1      25.224   6.234  49.162  1.00  0.00    -0.372 N 
HETATM    9  H12 UNL     1      24.866   6.207  48.168  1.00  0.00     0.161 HD
BRANCH   8  10
HETATM   10  C6  UNL     1      25.494   7.494  49.821  1.00  0.00     0.272 C 
BRANCH  10  11
HETATM   11  N2  UNL     1      26.835   7.968  49.638  1.00  0.00    -0.263 NA
HETATM   12  C5  UNL     1      27.223   8.378  48.495  1.00  0.00     0.228 C 
BRANCH  12  13
HETATM   13  N1  UNL     1      28.498   8.643  49.067  1.00  0.00    -0.252 NA
HETATM   14  C3  UNL     1      29.510   7.990  48.582  1.00  0.00     0.009 C 
HETATM   15  C4  UNL     1      30.857   8.230  49.148  1.00  0.00     0.065 C 
BRANCH  14  16
HETATM   16  C2  UNL     1      29.346   7.005  47.474  1.00  0.00     0.050 C 
HETATM   17  C1  UNL     1      29.545   5.627  48.096  1.00  0.00     0.011 C 
ENDBRANCH  14  16
ENDBRANCH  12  13
ENDBRANCH  10  11
ENDBRANCH   8  10
ENDBRANCH   1   8
BRANCH   4  18
HETATM   18  C11 UNL     1      25.964   1.173  51.713  1.00  0.00     0.078 C 
BRANCH  18  19
HETATM   19  C12 UNL     1      27.165   1.101  52.568  1.00  0.00    -0.051 A 
HETATM   20  C13 UNL     1      27.868   2.091  53.220  1.00  0.00     0.007 A 
HETATM   21  C14 UNL     1      28.972   1.789  53.987  1.00  0.00     0.004 A 
HETATM   22  C15 UNL     1      29.397   0.482  54.118  1.00  0.00     0.042 A 
HETATM   23  C16 UNL     1      28.731  -0.548  53.488  1.00  0.00     0.116 A 
HETATM   24  F1  UNL     1      29.172  -1.816  53.637  1.00  0.00    -0.206 F 
HETATM   25  C17 UNL     1      27.632  -0.210  52.730  1.00  0.00     0.049 A 
ENDBRANCH  18  19
ENDBRANCH   4  18
TORSDOF 7
ENDMDL
MODEL 6
REMARK VINA RESULT:      -7.4      3.032      5.089
REMARK  7 active torsions:
REMARK  status: ('A' for Active; 'I' for Inactive)
REMARK    1  A    between atoms: C2_2  and  C3_3 
REMARK    2  A    between atoms: N1_5  and  C5_6 
REMARK    3  A    between atoms: N2_7  and  C6_8 
REMARK    4  A    between atoms: C6_8  and  N3_9 
REMARK    5  A    between atoms: N3_9  and  C7_10 
REMARK    6  A    between atoms: C10_13  and  C11_14 
REMARK    7  A    between atoms: C11_14  and  C12_15 
ROOT
HETATM    1  C7  UNL     1      26.151   2.350  53.254  1.00  0.00     0.030 A 
HETATM    2  C8  UNL     1      24.901   2.871  53.474  1.00  0.00     0.030 A 
HETATM    3  C9  UNL     1      24.240   3.449  52.429  1.00  0.00     0.011 A 
HETATM    4  C10 UNL     1      24.727   3.564  51.121  1.00  0.00    -0.032 A 
HETATM    5  C18 UNL     1      25.982   3.027  50.953  1.00  0.00     0.042 A 
HETATM    6 CL1  UNL     1      26.639   3.152  49.336  1.00  0.00    -0.084 Cl
HETATM    7  C19 UNL     1      26.674   2.437  51.990  1.00  0.00     0.053 A 
ENDROOT
BRANCH   1   8
HETATM    8  N3  UNL     1      26.923   1.726  54.269  1.00  0.00    -0.372 N 
HETATM    9  H12 UNL     1      27.530   2.365  54.853  1.00  0.00     0.161 HD
BRANCH   8  10
HETATM   10  C6  UNL     1      26.898   0.299  54.510  1.00  0.00     0.272 C 
BRANCH  10  11
HETATM   11  N2  UNL     1      25.576  -0.245  54.632  1.00  0.00    -0.263 NA
HETATM   12  C5  UNL     1      25.044  -0.865  53.655  1.00  0.00     0.228 C 
BRANCH  12  13
HETATM   13  N1  UNL     1      23.891  -1.066  54.463  1.00  0.00    -0.252 NA
HETATM   14  C3  UNL     1      22.763  -0.608  54.009  1.00  0.00     0.009 C 
HETATM   15  C4  UNL     1      21.537  -0.790  54.818  1.00  0.00     0.065 C 
BRANCH  14  16
HETATM   16  C2  UNL     1      22.678   0.098  52.699  1.00  0.00     0.050 C 
HETATM   17  C1  UNL     1      21.446   0.994  52.776  1.00  0.00     0.011 C 
ENDBRANCH  14  16
ENDBRANCH  12  13
ENDBRANCH  10  11
ENDBRANCH   8  10
ENDBRANCH   1   8
BRANCH   4  18
HETATM   18  C11 UNL     1      23.833   4.217  50.157  1.00  0.00     0.078 C 
BRANCH  18  19
HETATM   19  C12 UNL     1      22.526   3.556  49.970  1.00  0.00    -0.051 A 
HETATM   20  C13 UNL     1      21.254   3.962  50.307  1.00  0.00     0.007 A 
HETATM   21  C14 UNL     1      20.158   3.177  50.022  1.00  0.00     0.004 A 
HETATM   22  C15 UNL     1      20.317   1.960  49.388  1.00  0.00     0.042 A 
HETATM   23  C16 UNL     1      21.567   1.504  49.026  1.00  0.00     0.116 A 
HETATM   24  F1  UNL     1      21.687   0.310  48.407  1.00  0.00    -0.206 F 
HETATM   25  C17 UNL     1      22.638   2.316  49.328  1.00  0.00     0.049 A 
ENDBRANCH  18  19
ENDBRANCH   4  18
TORSDOF 7
ENDMDL
MODEL 7
REMARK VINA RESULT:      -7.4      4.056      6.825
REMARK  7 active torsions:
REMARK  status: ('A' for Active; 'I' for Inactive)
REMARK    1  A    between atoms: C2_2  and  C3_3 
REMARK    2  A    between atoms: N1_5  and  C5_6 
REMARK    3  A    between atoms: N2_7  and  C6_8 
REMARK    4  A    between atoms: C6_8  and  N3_9 
REMARK    5  A    between atoms: N3_9  and  C7_10 
REMARK    6  A    between atoms: C10_13  and  C11_14 
REMARK    7  A    between atoms: C11_14  and  C12_15 
ROOT
HETATM    1  C7  UNL     1      23.724   5.063  51.673  1.00  0.00     0.030 A 
HETATM    2  C8  UNL     1      23.464   4.152  52.666  1.00  0.00     0.030 A 
HETATM    3  C9  UNL     1      24.123   2.957  52.644  1.00  0.00     0.011 A 
HETATM    4  C10 UNL     1      25.062   2.561  51.683  1.00  0.00    -0.032 A 
HETATM    5  C18 UNL     1      25.286   3.509  50.712  1.00  0.00     0.042 A 
HETATM    6 CL1  UNL     1      26.447   3.060  49.482  1.00  0.00    -0.084 Cl
HETATM    7  C19 UNL     1      24.636   4.725  50.707  1.00  0.00     0.053 A 
ENDROOT
BRANCH   1   8
HETATM    8  N3  UNL     1      23.097   6.335  51.601  1.00  0.00    -0.372 N 
HETATM    9  H12 UNL     1      23.572   7.120  52.126  1.00  0.00     0.161 HD
BRANCH   8  10
HETATM   10  C6  UNL     1      21.877   6.570  50.859  1.00  0.00     0.272 C 
BRANCH  10  11
HETATM   11  N2  UNL     1      20.986   5.445  50.836  1.00  0.00    -0.263 NA
HETATM   12  C5  UNL     1      20.812   4.784  49.761  1.00  0.00     0.228 C 
BRANCH  12  13
HETATM   13  N1  UNL     1      19.909   3.944  50.470  1.00  0.00    -0.252 NA
HETATM   14  C3  UNL     1      20.242   2.696  50.600  1.00  0.00     0.009 C 
HETATM   15  C4  UNL     1      19.331   1.783  51.328  1.00  0.00     0.065 C 
BRANCH  14  16
HETATM   16  C2  UNL     1      21.513   2.163  50.031  1.00  0.00     0.050 C 
HETATM   17  C1  UNL     1      21.748   0.813  50.703  1.00  0.00     0.011 C 
ENDBRANCH  14  16
ENDBRANCH  12  13
ENDBRANCH  10  11
ENDBRANCH   8  10
ENDBRANCH   1   8
BRANCH   4  18
HETATM   18  C11 UNL     1      25.651   1.230  51.870  1.00  0.00     0.078 C 
BRANCH  18  19
HETATM   19  C12 UNL     1      26.937   1.212  52.595  1.00  0.00    -0.051 A 
HETATM   20  C13 UNL     1      27.687   2.237  53.127  1.00  0.00     0.007 A 
HETATM   21  C14 UNL     1      28.872   1.984  53.784  1.00  0.00     0.004 A 
HETATM   22  C15 UNL     1      29.332   0.690  53.923  1.00  0.00     0.042 A 
HETATM   23  C16 UNL     1      28.622  -0.376  53.411  1.00  0.00     0.116 A 
HETATM   24  F1  UNL     1      29.099  -1.629  53.563  1.00  0.00    -0.206 F 
HETATM   25  C17 UNL     1      27.443  -0.085  52.760  1.00  0.00     0.049 A 
ENDBRANCH  18  19
ENDBRANCH   4  18
TORSDOF 7
ENDMDL
MODEL 8
REMARK VINA RESULT:      -7.4      3.934      7.260
REMARK  7 active torsions:
REMARK  status: ('A' for Active; 'I' for Inactive)
REMARK    1  A    between atoms: C2_2  and  C3_3 
REMARK    2  A    between atoms: N1_5  and  C5_6 
REMARK    3  A    between atoms: N2_7  and  C6_8 
REMARK    4  A    between atoms: C6_8  and  N3_9 
REMARK    5  A    between atoms: N3_9  and  C7_10 
REMARK    6  A    between atoms: C10_13  and  C11_14 
REMARK    7  A    between atoms: C11_14  and  C12_15 
ROOT
HETATM    1  C7  UNL     1      24.931   3.031  50.274  1.00  0.00     0.030 A 
HETATM    2  C8  UNL     1      26.265   2.934  50.583  1.00  0.00     0.030 A 
HETATM    3  C9  UNL     1      26.628   2.254  51.709  1.00  0.00     0.011 A 
HETATM    4  C10 UNL     1      25.748   1.629  52.602  1.00  0.00    -0.032 A 
HETATM    5  C18 UNL     1      24.424   1.755  52.248  1.00  0.00     0.042 A 
HETATM    6 CL1  UNL     1      23.283   0.997  53.336  1.00  0.00    -0.084 Cl
HETATM    7  C19 UNL     1      24.028   2.436  51.116  1.00  0.00     0.053 A 
ENDROOT
BRANCH   1   8
HETATM    8  N3  UNL     1      24.446   3.713  49.127  1.00  0.00    -0.372 N 
HETATM    9  H12 UNL     1      24.389   3.147  48.237  1.00  0.00     0.161 HD
BRANCH   8  10
HETATM   10  C6  UNL     1      24.045   5.104  49.150  1.00  0.00     0.272 C 
BRANCH  10  11
HETATM   11  N2  UNL     1      25.072   6.010  48.724  1.00  0.00    -0.263 NA
HETATM   12  C5  UNL     1      26.090   6.223  49.460  1.00  0.00     0.228 C 
BRANCH  12  13
HETATM   13  N1  UNL     1      26.572   7.118  48.466  1.00  0.00    -0.252 NA
HETATM   14  C3  UNL     1      27.712   6.830  47.915  1.00  0.00     0.009 C 
HETATM   15  C4  UNL     1      28.257   7.735  46.877  1.00  0.00     0.065 C 
BRANCH  14  16
HETATM   16  C2  UNL     1      28.484   5.616  48.306  1.00  0.00     0.050 C 
HETATM   17  C1  UNL     1      29.956   5.961  48.099  1.00  0.00     0.011 C 
ENDBRANCH  14  16
ENDBRANCH  12  13
ENDBRANCH  10  11
ENDBRANCH   8  10
ENDBRANCH   1   8
BRANCH   4  18
HETATM   18  C11 UNL     1      26.368   0.945  53.743  1.00  0.00     0.078 C 
BRANCH  18  19
HETATM   19  C12 UNL     1      27.078  -0.306  53.412  1.00  0.00    -0.051 A 
HETATM   20  C13 UNL     1      26.647  -1.444  52.767  1.00  0.00     0.007 A 
HETATM   21  C14 UNL     1      27.500  -2.505  52.551  1.00  0.00     0.004 A 
HETATM   22  C15 UNL     1      28.811  -2.446  52.981  1.00  0.00     0.042 A 
HETATM   23  C16 UNL     1      29.297  -1.332  53.631  1.00  0.00     0.116 A 
HETATM   24  F1  UNL     1      30.584  -1.306  54.037  1.00  0.00    -0.206 F 
HETATM   25  C17 UNL     1      28.416  -0.291  53.829  1.00  0.00     0.049 A 
ENDBRANCH  18  19
ENDBRANCH   4  18
TORSDOF 7
ENDMDL
MODEL 9
REMARK VINA RESULT:      -7.4      3.491      6.172
REMARK  7 active torsions:
REMARK  status: ('A' for Active; 'I' for Inactive)
REMARK    1  A    between atoms: C2_2  and  C3_3 
REMARK    2  A    between atoms: N1_5  and  C5_6 
REMARK    3  A    between atoms: N2_7  and  C6_8 
REMARK    4  A    between atoms: C6_8  and  N3_9 
REMARK    5  A    between atoms: N3_9  and  C7_10 
REMARK    6  A    between atoms: C10_13  and  C11_14 
REMARK    7  A    between atoms: C11_14  and  C12_15 
ROOT
HETATM    1  C7  UNL     1      24.173   3.819  50.976  1.00  0.00     0.030 A 
HETATM    2  C8  UNL     1      23.609   4.207  52.166  1.00  0.00     0.030 A 
HETATM    3  C9  UNL     1      22.470   3.582  52.583  1.00  0.00     0.011 A 
HETATM    4  C10 UNL     1      21.805   2.557  51.898  1.00  0.00    -0.032 A 
HETATM    5  C18 UNL     1      22.410   2.206  50.713  1.00  0.00     0.042 A 
HETATM    6 CL1  UNL     1      21.613   0.935  49.814  1.00  0.00    -0.084 Cl
HETATM    7  C19 UNL     1      23.561   2.820  50.266  1.00  0.00     0.053 A 
ENDROOT
BRANCH   1   8
HETATM    8  N3  UNL     1      25.357   4.401  50.451  1.00  0.00    -0.372 N 
HETATM    9  H12 UNL     1      25.350   5.452  50.337  1.00  0.00     0.161 HD
BRANCH   8  10
HETATM   10  C6  UNL     1      26.521   3.622  50.086  1.00  0.00     0.272 C 
BRANCH  10  11
HETATM   11  N2  UNL     1      27.054   2.836  51.162  1.00  0.00    -0.263 NA
HETATM   12  C5  UNL     1      26.760   1.601  51.264  1.00  0.00     0.228 C 
BRANCH  12  13
HETATM   13  N1  UNL     1      27.573   1.545  52.429  1.00  0.00    -0.252 NA
HETATM   14  C3  UNL     1      27.363   0.559  53.249  1.00  0.00     0.009 C 
HETATM   15  C4  UNL     1      28.183   0.462  54.478  1.00  0.00     0.065 C 
BRANCH  14  16
HETATM   16  C2  UNL     1      26.316  -0.469  52.984  1.00  0.00     0.050 C 
HETATM   17  C1  UNL     1      27.058  -1.776  52.726  1.00  0.00     0.011 C 
ENDBRANCH  14  16
ENDBRANCH  12  13
ENDBRANCH  10  11
ENDBRANCH   8  10
ENDBRANCH   1   8
BRANCH   4  18
HETATM   18  C11 UNL     1      20.599   2.027  52.546  1.00  0.00     0.078 C 
BRANCH  18  19
HETATM   19  C12 UNL     1      20.756   0.694  53.162  1.00  0.00    -0.051 A 
HETATM   20  C13 UNL     1      19.870  -0.354  53.281  1.00  0.00     0.007 A 
HETATM   21  C14 UNL     1      20.241  -1.531  53.895  1.00  0.00     0.004 A 
HETATM   22  C15 UNL     1      21.515  -1.681  54.406  1.00  0.00     0.042 A 
HETATM   23  C16 UNL     1      22.443  -0.666  54.314  1.00  0.00     0.116 A 
HETATM   24  F1  UNL     1      23.680  -0.845  54.824  1.00  0.00    -0.206 F 
HETATM   25  C17 UNL     1      22.037   0.496  53.694  1.00  0.00     0.049 A 
ENDBRANCH  18  19
ENDBRANCH   4  18
TORSDOF 7
ENDMDL
