MODEL 1
REMARK VINA RESULT:      -7.7      0.000      0.000
REMARK  7 active torsions:
REMARK  status: ('A' for Active; 'I' for Inactive)
REMARK    1  A    between atoms: N1_1  and  S1_2 
REMARK    2  A    between atoms: S1_2  and  C1_3 
REMARK    3  A    between atoms: C1_3  and  C2_4 
REMARK    4  A    between atoms: C1_3  and  C4_7 
REMARK    5  A    between atoms: C2_4  and  C3_5 
REMARK    6  A    between atoms: C7_10  and  C8_11 
REMARK       I    between atoms: C8_11  and  N2_13 
REMARK    7  A    between atoms: N2_13  and  C9_14 
ROOT
HETATM    1  C4  UNL     1      21.050   0.004  53.059  1.00  0.00    -0.043 A 
HETATM    2  C5  UNL     1      21.935   0.684  52.251  1.00  0.00     0.009 A 
HETATM    3  C6  UNL     1      23.303   0.578  52.400  1.00  0.00     0.017 A 
HETATM    4  C7  UNL     1      23.860  -0.230  53.386  1.00  0.00     0.032 A 
HETATM    5  C15 UNL     1      23.000  -0.928  54.218  1.00  0.00     0.017 A 
HETATM    6  C16 UNL     1      21.653  -0.795  54.036  1.00  0.00     0.009 A 
ENDROOT
BRANCH   4   7
HETATM    7  C8  UNL     1      25.281  -0.392  53.603  1.00  0.00     0.256 C 
HETATM    8  O1  UNL     1      25.776  -0.619  54.753  1.00  0.00    -0.267 OA
HETATM    9  N2  UNL     1      26.258  -0.317  52.582  1.00  0.00    -0.322 N 
HETATM   10  H10 UNL     1      25.961  -0.135  51.601  1.00  0.00     0.169 HD
BRANCH   9  11
HETATM   11  C9  UNL     1      27.625  -0.505  52.989  1.00  0.00     0.052 A 
HETATM   12  C10 UNL     1      27.979  -1.850  52.908  1.00  0.00     0.031 A 
HETATM   13  C11 UNL     1      29.260  -2.253  53.257  1.00  0.00     0.002 A 
HETATM   14  C12 UNL     1      30.156  -1.315  53.677  1.00  0.00     0.002 A 
HETATM   15  C13 UNL     1      29.805   0.018  53.758  1.00  0.00     0.021 A 
HETATM   16  C14 UNL     1      28.541   0.431  53.415  1.00  0.00     0.037 A 
HETATM   17 BR1  UNL     1      27.871   2.215  53.461  1.00  0.00    -0.049 Br
ENDBRANCH   9  11
ENDBRANCH   4   7
BRANCH   1  18
HETATM   18  C1  UNL     1      19.576   0.036  53.000  1.00  0.00     0.097 C 
BRANCH  18  19
HETATM   19  S1  UNL     1      18.838  -1.554  53.454  1.00  0.00    -0.078 SA
BRANCH  19  20
HETATM   20  N1  UNL     1      17.137  -1.266  53.829  1.00  0.00    -0.277 NA
HETATM   21  H1  UNL     1      16.853  -0.356  53.354  1.00  0.00     0.131 HD
HETATM   22  H2  UNL     1      17.072  -1.025  54.860  1.00  0.00     0.131 HD
ENDBRANCH  19  20
ENDBRANCH  18  19
BRANCH  18  23
HETATM   23  C2  UNL     1      19.142   0.370  51.586  1.00  0.00     0.036 C 
BRANCH  23  24
HETATM   24  C3  UNL     1      18.419   1.698  51.530  1.00  0.00     0.116 C 
HETATM   25 CL1  UNL     1      16.657   1.450  51.556  1.00  0.00    -0.130 Cl
ENDBRANCH  23  24
ENDBRANCH  18  23
ENDBRANCH   1  18
TORSDOF 7
ENDMDL
MODEL 2
REMARK VINA RESULT:      -7.4      1.884      1.987
REMARK  7 active torsions:
REMARK  status: ('A' for Active; 'I' for Inactive)
REMARK    1  A    between atoms: N1_1  and  S1_2 
REMARK    2  A    between atoms: S1_2  and  C1_3 
REMARK    3  A    between atoms: C1_3  and  C2_4 
REMARK    4  A    between atoms: C1_3  and  C4_7 
REMARK    5  A    between atoms: C2_4  and  C3_5 
REMARK    6  A    between atoms: C7_10  and  C8_11 
REMARK       I    between atoms: C8_11  and  N2_13 
REMARK    7  A    between atoms: N2_13  and  C9_14 
ROOT
HETATM    1  C4  UNL     1      21.209   0.413  51.916  1.00  0.00    -0.043 A 
HETATM    2  C5  UNL     1      22.213   1.208  51.405  1.00  0.00     0.009 A 
HETATM    3  C6  UNL     1      23.535   1.050  51.764  1.00  0.00     0.017 A 
HETATM    4  C7  UNL     1      23.924   0.068  52.669  1.00  0.00     0.032 A 
HETATM    5  C15 UNL     1      22.943  -0.750  53.204  1.00  0.00     0.017 A 
HETATM    6  C16 UNL     1      21.645  -0.560  52.822  1.00  0.00     0.009 A 
ENDROOT
BRANCH   4   7
HETATM    7  C8  UNL     1      25.289  -0.158  53.093  1.00  0.00     0.256 C 
HETATM    8  O1  UNL     1      25.596  -0.419  54.300  1.00  0.00    -0.267 OA
HETATM    9  N2  UNL     1      26.410  -0.115  52.231  1.00  0.00    -0.322 N 
HETATM   10  H10 UNL     1      26.271   0.090  51.219  1.00  0.00     0.169 HD
BRANCH   9  11
HETATM   11  C9  UNL     1      27.692  -0.367  52.834  1.00  0.00     0.052 A 
HETATM   12  C10 UNL     1      27.991  -1.727  52.796  1.00  0.00     0.031 A 
HETATM   13  C11 UNL     1      29.186  -2.190  53.327  1.00  0.00     0.002 A 
HETATM   14  C12 UNL     1      30.053  -1.296  53.883  1.00  0.00     0.002 A 
HETATM   15  C13 UNL     1      29.756   0.053  53.920  1.00  0.00     0.021 A 
HETATM   16  C14 UNL     1      28.576   0.524  53.398  1.00  0.00     0.037 A 
HETATM   17 BR1  UNL     1      27.990   2.338  53.357  1.00  0.00    -0.049 Br
ENDBRANCH   9  11
ENDBRANCH   4   7
BRANCH   1  18
HETATM   18  C1  UNL     1      19.767   0.484  51.612  1.00  0.00     0.097 C 
BRANCH  18  19
HETATM   19  S1  UNL     1      19.259   2.137  51.079  1.00  0.00    -0.078 SA
BRANCH  19  20
HETATM   20  N1  UNL     1      19.492   3.234  52.443  1.00  0.00    -0.277 NA
HETATM   21  H1  UNL     1      18.868   2.897  53.236  1.00  0.00     0.131 HD
HETATM   22  H2  UNL     1      19.061   4.168  52.182  1.00  0.00     0.131 HD
ENDBRANCH  19  20
ENDBRANCH  18  19
BRANCH  18  23
HETATM   23  C2  UNL     1      18.979   0.126  52.856  1.00  0.00     0.036 C 
BRANCH  23  24
HETATM   24  C3  UNL     1      17.904  -0.895  52.555  1.00  0.00     0.116 C 
HETATM   25 CL1  UNL     1      18.066  -2.307  53.627  1.00  0.00    -0.130 Cl
ENDBRANCH  23  24
ENDBRANCH  18  23
ENDBRANCH   1  18
TORSDOF 7
ENDMDL
MODEL 3
REMARK VINA RESULT:      -7.1      5.762      8.681
REMARK  7 active torsions:
REMARK  status: ('A' for Active; 'I' for Inactive)
REMARK    1  A    between atoms: N1_1  and  S1_2 
REMARK    2  A    between atoms: S1_2  and  C1_3 
REMARK    3  A    between atoms: C1_3  and  C2_4 
REMARK    4  A    between atoms: C1_3  and  C4_7 
REMARK    5  A    between atoms: C2_4  and  C3_5 
REMARK    6  A    between atoms: C7_10  and  C8_11 
REMARK       I    between atoms: C8_11  and  N2_13 
REMARK    7  A    between atoms: N2_13  and  C9_14 
ROOT
HETATM    1  C4  UNL     1      26.508   0.733  52.384  1.00  0.00    -0.043 A 
HETATM    2  C5  UNL     1      25.137   0.794  52.508  1.00  0.00     0.009 A 
HETATM    3  C6  UNL     1      24.398   1.860  52.037  1.00  0.00     0.017 A 
HETATM    4  C7  UNL     1      25.011   2.939  51.408  1.00  0.00     0.032 A 
HETATM    5  C15 UNL     1      26.388   2.914  51.267  1.00  0.00     0.017 A 
HETATM    6  C16 UNL     1      27.082   1.839  51.746  1.00  0.00     0.009 A 
ENDROOT
BRANCH   4   7
HETATM    7  C8  UNL     1      24.304   4.091  50.890  1.00  0.00     0.256 C 
HETATM    8  O1  UNL     1      23.805   4.117  49.720  1.00  0.00    -0.267 OA
HETATM    9  N2  UNL     1      24.096   5.290  51.612  1.00  0.00    -0.322 N 
HETATM   10  H10 UNL     1      24.464   5.374  52.582  1.00  0.00     0.169 HD
BRANCH   9  11
HETATM   11  C9  UNL     1      23.369   6.328  50.930  1.00  0.00     0.052 A 
HETATM   12  C10 UNL     1      21.997   6.145  51.085  1.00  0.00     0.031 A 
HETATM   13  C11 UNL     1      21.108   7.039  50.504  1.00  0.00     0.002 A 
HETATM   14  C12 UNL     1      21.601   8.089  49.787  1.00  0.00     0.002 A 
HETATM   15  C13 UNL     1      22.962   8.270  49.635  1.00  0.00     0.021 A 
HETATM   16  C14 UNL     1      23.852   7.393  50.204  1.00  0.00     0.037 A 
HETATM   17 BR1  UNL     1      25.754   7.473  50.106  1.00  0.00    -0.049 Br
ENDBRANCH   9  11
ENDBRANCH   4   7
BRANCH   1  18
HETATM   18  C1  UNL     1      27.403  -0.345  52.843  1.00  0.00     0.097 C 
BRANCH  18  19
HETATM   19  S1  UNL     1      26.763  -1.989  52.433  1.00  0.00    -0.078 SA
BRANCH  19  20
HETATM   20  N1  UNL     1      28.035  -3.161  52.786  1.00  0.00    -0.277 NA
HETATM   21  H1  UNL     1      27.568  -4.028  53.192  1.00  0.00     0.131 HD
HETATM   22  H2  UNL     1      28.597  -2.789  53.605  1.00  0.00     0.131 HD
ENDBRANCH  19  20
ENDBRANCH  18  19
BRANCH  18  23
HETATM   23  C2  UNL     1      27.553  -0.260  54.349  1.00  0.00     0.036 C 
BRANCH  23  24
HETATM   24  C3  UNL     1      28.932   0.224  54.741  1.00  0.00     0.116 C 
HETATM   25 CL1  UNL     1      30.139  -0.293  53.540  1.00  0.00    -0.130 Cl
ENDBRANCH  23  24
ENDBRANCH  18  23
ENDBRANCH   1  18
TORSDOF 7
ENDMDL
MODEL 4
REMARK VINA RESULT:      -7.1      5.716      8.767
REMARK  7 active torsions:
REMARK  status: ('A' for Active; 'I' for Inactive)
REMARK    1  A    between atoms: N1_1  and  S1_2 
REMARK    2  A    between atoms: S1_2  and  C1_3 
REMARK    3  A    between atoms: C1_3  and  C2_4 
REMARK    4  A    between atoms: C1_3  and  C4_7 
REMARK    5  A    between atoms: C2_4  and  C3_5 
REMARK    6  A    between atoms: C7_10  and  C8_11 
REMARK       I    between atoms: C8_11  and  N2_13 
REMARK    7  A    between atoms: N2_13  and  C9_14 
ROOT
HETATM    1  C4  UNL     1      26.412   0.661  52.399  1.00  0.00    -0.043 A 
HETATM    2  C5  UNL     1      25.056   0.677  52.641  1.00  0.00     0.009 A 
HETATM    3  C6  UNL     1      24.235   1.686  52.182  1.00  0.00     0.017 A 
HETATM    4  C7  UNL     1      24.744   2.749  51.443  1.00  0.00     0.032 A 
HETATM    5  C15 UNL     1      26.104   2.768  51.181  1.00  0.00     0.017 A 
HETATM    6  C16 UNL     1      26.881   1.749  51.654  1.00  0.00     0.009 A 
ENDROOT
BRANCH   4   7
HETATM    7  C8  UNL     1      23.947   3.842  50.929  1.00  0.00     0.256 C 
HETATM    8  O1  UNL     1      23.701   3.983  49.688  1.00  0.00    -0.267 OA
HETATM    9  N2  UNL     1      23.367   4.853  51.731  1.00  0.00    -0.322 N 
HETATM   10  H10 UNL     1      23.507   4.832  52.762  1.00  0.00     0.169 HD
BRANCH   9  11
HETATM   11  C9  UNL     1      22.606   5.860  51.039  1.00  0.00     0.052 A 
HETATM   12  C10 UNL     1      23.407   6.960  50.742  1.00  0.00     0.031 A 
HETATM   13  C11 UNL     1      22.869   8.051  50.073  1.00  0.00     0.002 A 
HETATM   14  C12 UNL     1      21.553   8.023  49.718  1.00  0.00     0.002 A 
HETATM   15  C13 UNL     1      20.758   6.932  50.012  1.00  0.00     0.021 A 
HETATM   16  C14 UNL     1      21.279   5.846  50.673  1.00  0.00     0.037 A 
HETATM   17 BR1  UNL     1      20.349   4.257  51.167  1.00  0.00    -0.049 Br
ENDBRANCH   9  11
ENDBRANCH   4   7
BRANCH   1  18
HETATM   18  C1  UNL     1      27.389  -0.355  52.835  1.00  0.00     0.097 C 
BRANCH  18  19
HETATM   19  S1  UNL     1      26.824  -2.040  52.491  1.00  0.00    -0.078 SA
BRANCH  19  20
HETATM   20  N1  UNL     1      28.172  -3.133  52.815  1.00  0.00    -0.277 NA
HETATM   21  H1  UNL     1      27.928  -4.078  52.390  1.00  0.00     0.131 HD
HETATM   22  H2  UNL     1      28.179  -3.335  53.856  1.00  0.00     0.131 HD
ENDBRANCH  19  20
ENDBRANCH  18  19
BRANCH  18  23
HETATM   23  C2  UNL     1      27.608  -0.227  54.329  1.00  0.00     0.036 C 
BRANCH  23  24
HETATM   24  C3  UNL     1      28.972   0.348  54.641  1.00  0.00     0.116 C 
HETATM   25 CL1  UNL     1      30.177  -0.231  53.466  1.00  0.00    -0.130 Cl
ENDBRANCH  23  24
ENDBRANCH  18  23
ENDBRANCH   1  18
TORSDOF 7
ENDMDL
MODEL 5
REMARK VINA RESULT:      -7.0      6.130      8.329
REMARK  7 active torsions:
REMARK  status: ('A' for Active; 'I' for Inactive)
REMARK    1  A    between atoms: N1_1  and  S1_2 
REMARK    2  A    between atoms: S1_2  and  C1_3 
REMARK    3  A    between atoms: C1_3  and  C2_4 
REMARK    4  A    between atoms: C1_3  and  C4_7 
REMARK    5  A    between atoms: C2_4  and  C3_5 
REMARK    6  A    between atoms: C7_10  and  C8_11 
REMARK       I    between atoms: C8_11  and  N2_13 
REMARK    7  A    between atoms: N2_13  and  C9_14 
ROOT
HETATM    1  C4  UNL     1      26.372   5.180  49.216  1.00  0.00    -0.043 A 
HETATM    2  C5  UNL     1      25.235   5.594  49.876  1.00  0.00     0.009 A 
HETATM    3  C6  UNL     1      24.574   4.793  50.784  1.00  0.00     0.017 A 
HETATM    4  C7  UNL     1      25.029   3.513  51.080  1.00  0.00     0.032 A 
HETATM    5  C15 UNL     1      26.168   3.061  50.435  1.00  0.00     0.017 A 
HETATM    6  C16 UNL     1      26.793   3.887  49.543  1.00  0.00     0.009 A 
ENDROOT
BRANCH   4   7
HETATM    7  C8  UNL     1      24.390   2.615  52.018  1.00  0.00     0.256 C 
HETATM    8  O1  UNL     1      24.318   2.866  53.263  1.00  0.00    -0.267 OA
HETATM    9  N2  UNL     1      23.788   1.385  51.662  1.00  0.00    -0.322 N 
HETATM   10  H10 UNL     1      23.790   1.083  50.666  1.00  0.00     0.169 HD
BRANCH   9  11
HETATM   11  C9  UNL     1      23.200   0.627  52.735  1.00  0.00     0.052 A 
HETATM   12  C10 UNL     1      21.861   0.972  52.900  1.00  0.00     0.031 A 
HETATM   13  C11 UNL     1      21.102   0.356  53.886  1.00  0.00     0.002 A 
HETATM   14  C12 UNL     1      21.689  -0.584  54.681  1.00  0.00     0.002 A 
HETATM   15  C13 UNL     1      23.017  -0.926  54.516  1.00  0.00     0.021 A 
HETATM   16  C14 UNL     1      23.779  -0.324  53.544  1.00  0.00     0.037 A 
HETATM   17 BR1  UNL     1      25.617  -0.659  53.165  1.00  0.00    -0.049 Br
ENDBRANCH   9  11
ENDBRANCH   4   7
BRANCH   1  18
HETATM   18  C1  UNL     1      27.163   5.940  48.230  1.00  0.00     0.097 C 
BRANCH  18  19
HETATM   19  S1  UNL     1      28.919   5.502  48.276  1.00  0.00    -0.078 SA
BRANCH  19  20
HETATM   20  N1  UNL     1      29.783   6.834  49.049  1.00  0.00    -0.277 NA
HETATM   21  H1  UNL     1      29.903   6.584  50.077  1.00  0.00     0.131 HD
HETATM   22  H2  UNL     1      29.126   7.667  49.082  1.00  0.00     0.131 HD
ENDBRANCH  19  20
ENDBRANCH  18  19
BRANCH  18  23
HETATM   23  C2  UNL     1      27.039   7.421  48.527  1.00  0.00     0.036 C 
BRANCH  23  24
HETATM   24  C3  UNL     1      26.724   8.211  47.275  1.00  0.00     0.116 C 
HETATM   25 CL1  UNL     1      25.054   7.900  46.744  1.00  0.00    -0.130 Cl
ENDBRANCH  23  24
ENDBRANCH  18  23
ENDBRANCH   1  18
TORSDOF 7
ENDMDL
MODEL 6
REMARK VINA RESULT:      -6.9      6.579      8.502
REMARK  7 active torsions:
REMARK  status: ('A' for Active; 'I' for Inactive)
REMARK    1  A    between atoms: N1_1  and  S1_2 
REMARK    2  A    between atoms: S1_2  and  C1_3 
REMARK    3  A    between atoms: C1_3  and  C2_4 
REMARK    4  A    between atoms: C1_3  and  C4_7 
REMARK    5  A    between atoms: C2_4  and  C3_5 
REMARK    6  A    between atoms: C7_10  and  C8_11 
REMARK       I    between atoms: C8_11  and  N2_13 
REMARK    7  A    between atoms: N2_13  and  C9_14 
ROOT
HETATM    1  C4  UNL     1      26.484   6.386  49.239  1.00  0.00    -0.043 A 
HETATM    2  C5  UNL     1      26.918   5.103  48.986  1.00  0.00     0.009 A 
HETATM    3  C6  UNL     1      26.288   3.993  49.507  1.00  0.00     0.017 A 
HETATM    4  C7  UNL     1      25.169   4.117  50.325  1.00  0.00     0.032 A 
HETATM    5  C15 UNL     1      24.704   5.391  50.603  1.00  0.00     0.017 A 
HETATM    6  C16 UNL     1      25.358   6.464  50.066  1.00  0.00     0.009 A 
ENDROOT
BRANCH   4   7
HETATM    7  C8  UNL     1      24.456   3.001  50.908  1.00  0.00     0.256 C 
HETATM    8  O1  UNL     1      23.718   2.226  50.219  1.00  0.00    -0.267 OA
HETATM    9  N2  UNL     1      24.498   2.656  52.280  1.00  0.00    -0.322 N 
HETATM   10  H10 UNL     1      25.074   3.226  52.934  1.00  0.00     0.169 HD
BRANCH   9  11
HETATM   11  C9  UNL     1      23.722   1.511  52.675  1.00  0.00     0.052 A 
HETATM   12  C10 UNL     1      22.373   1.847  52.777  1.00  0.00     0.031 A 
HETATM   13  C11 UNL     1      21.445   0.884  53.148  1.00  0.00     0.002 A 
HETATM   14  C12 UNL     1      21.876  -0.384  53.408  1.00  0.00     0.002 A 
HETATM   15  C13 UNL     1      23.213  -0.716  53.307  1.00  0.00     0.021 A 
HETATM   16  C14 UNL     1      24.142   0.227  52.941  1.00  0.00     0.037 A 
HETATM   17 BR1  UNL     1      26.020  -0.036  52.748  1.00  0.00    -0.049 Br
ENDBRANCH   9  11
ENDBRANCH   4   7
BRANCH   1  18
HETATM   18  C1  UNL     1      27.070   7.646  48.743  1.00  0.00     0.097 C 
BRANCH  18  19
HETATM   19  S1  UNL     1      26.429   9.093  49.621  1.00  0.00    -0.078 SA
BRANCH  19  20
HETATM   20  N1  UNL     1      27.490   9.399  50.998  1.00  0.00    -0.277 NA
HETATM   21  H1  UNL     1      26.945   9.163  51.881  1.00  0.00     0.131 HD
HETATM   22  H2  UNL     1      27.624  10.448  51.074  1.00  0.00     0.131 HD
ENDBRANCH  19  20
ENDBRANCH  18  19
BRANCH  18  23
HETATM   23  C2  UNL     1      26.741   7.802  47.272  1.00  0.00     0.036 C 
BRANCH  23  24
HETATM   24  C3  UNL     1      25.483   8.619  47.071  1.00  0.00     0.116 C 
HETATM   25 CL1  UNL     1      24.087   7.553  46.784  1.00  0.00    -0.130 Cl
ENDBRANCH  23  24
ENDBRANCH  18  23
ENDBRANCH   1  18
TORSDOF 7
ENDMDL
MODEL 7
REMARK VINA RESULT:      -6.9      4.637      8.723
REMARK  7 active torsions:
REMARK  status: ('A' for Active; 'I' for Inactive)
REMARK    1  A    between atoms: N1_1  and  S1_2 
REMARK    2  A    between atoms: S1_2  and  C1_3 
REMARK    3  A    between atoms: C1_3  and  C2_4 
REMARK    4  A    between atoms: C1_3  and  C4_7 
REMARK    5  A    between atoms: C2_4  and  C3_5 
REMARK    6  A    between atoms: C7_10  and  C8_11 
REMARK       I    between atoms: C8_11  and  N2_13 
REMARK    7  A    between atoms: N2_13  and  C9_14 
ROOT
HETATM    1  C4  UNL     1      25.527   0.730  53.401  1.00  0.00    -0.043 A 
HETATM    2  C5  UNL     1      24.819   1.789  52.877  1.00  0.00     0.009 A 
HETATM    3  C6  UNL     1      23.445   1.773  52.757  1.00  0.00     0.017 A 
HETATM    4  C7  UNL     1      22.699   0.672  53.166  1.00  0.00     0.032 A 
HETATM    5  C15 UNL     1      23.377  -0.413  53.697  1.00  0.00     0.017 A 
HETATM    6  C16 UNL     1      24.738  -0.355  53.798  1.00  0.00     0.009 A 
ENDROOT
BRANCH   4   7
HETATM    7  C8  UNL     1      21.258   0.581  53.072  1.00  0.00     0.256 C 
HETATM    8  O1  UNL     1      20.484   1.053  53.964  1.00  0.00    -0.267 OA
HETATM    9  N2  UNL     1      20.565  -0.029  52.000  1.00  0.00    -0.322 N 
HETATM   10  H10 UNL     1      21.104  -0.447  51.213  1.00  0.00     0.169 HD
BRANCH   9  11
HETATM   11  C9  UNL     1      19.128  -0.023  52.080  1.00  0.00     0.052 A 
HETATM   12  C10 UNL     1      18.682  -1.037  52.926  1.00  0.00     0.031 A 
HETATM   13  C11 UNL     1      17.323  -1.208  53.146  1.00  0.00     0.002 A 
HETATM   14  C12 UNL     1      16.442  -0.373  52.524  1.00  0.00     0.002 A 
HETATM   15  C13 UNL     1      16.885   0.632  51.686  1.00  0.00     0.021 A 
HETATM   16  C14 UNL     1      18.228   0.813  51.460  1.00  0.00     0.037 A 
HETATM   17 BR1  UNL     1      19.029   2.135  50.344  1.00  0.00    -0.049 Br
ENDBRANCH   9  11
ENDBRANCH   4   7
BRANCH   1  18
HETATM   18  C1  UNL     1      26.988   0.628  53.580  1.00  0.00     0.097 C 
BRANCH  18  19
HETATM   19  S1  UNL     1      27.838   2.173  53.167  1.00  0.00    -0.078 SA
BRANCH  19  20
HETATM   20  N1  UNL     1      29.127   2.407  54.351  1.00  0.00    -0.277 NA
HETATM   21  H1  UNL     1      29.238   1.495  54.888  1.00  0.00     0.131 HD
HETATM   22  H2  UNL     1      28.766   3.076  55.090  1.00  0.00     0.131 HD
ENDBRANCH  19  20
ENDBRANCH  18  19
BRANCH  18  23
HETATM   23  C2  UNL     1      27.526  -0.462  52.674  1.00  0.00     0.036 C 
BRANCH  23  24
HETATM   24  C3  UNL     1      28.453  -1.394  53.422  1.00  0.00     0.116 C 
HETATM   25 CL1  UNL     1      30.113  -0.752  53.426  1.00  0.00    -0.130 Cl
ENDBRANCH  23  24
ENDBRANCH  18  23
ENDBRANCH   1  18
TORSDOF 7
ENDMDL
MODEL 8
REMARK VINA RESULT:      -6.9      6.061      8.284
REMARK  7 active torsions:
REMARK  status: ('A' for Active; 'I' for Inactive)
REMARK    1  A    between atoms: N1_1  and  S1_2 
REMARK    2  A    between atoms: S1_2  and  C1_3 
REMARK    3  A    between atoms: C1_3  and  C2_4 
REMARK    4  A    between atoms: C1_3  and  C4_7 
REMARK    5  A    between atoms: C2_4  and  C3_5 
REMARK    6  A    between atoms: C7_10  and  C8_11 
REMARK       I    between atoms: C8_11  and  N2_13 
REMARK    7  A    between atoms: N2_13  and  C9_14 
ROOT
HETATM    1  C4  UNL     1      26.043   0.938  52.810  1.00  0.00    -0.043 A 
HETATM    2  C5  UNL     1      26.719   1.261  51.654  1.00  0.00     0.009 A 
HETATM    3  C6  UNL     1      26.397   2.367  50.894  1.00  0.00     0.017 A 
HETATM    4  C7  UNL     1      25.361   3.218  51.263  1.00  0.00     0.032 A 
HETATM    5  C15 UNL     1      24.657   2.924  52.419  1.00  0.00     0.017 A 
HETATM    6  C16 UNL     1      25.009   1.819  53.143  1.00  0.00     0.009 A 
ENDROOT
BRANCH   4   7
HETATM    7  C8  UNL     1      24.965   4.394  50.518  1.00  0.00     0.256 C 
HETATM    8  O1  UNL     1      24.235   4.331  49.478  1.00  0.00    -0.267 OA
HETATM    9  N2  UNL     1      25.338   5.716  50.858  1.00  0.00    -0.322 N 
HETATM   10  H10 UNL     1      25.935   5.881  51.694  1.00  0.00     0.169 HD
BRANCH   9  11
HETATM   11  C9  UNL     1      24.846   6.760  49.997  1.00  0.00     0.052 A 
HETATM   12  C10 UNL     1      23.621   7.237  50.459  1.00  0.00     0.031 A 
HETATM   13  C11 UNL     1      22.969   8.252  49.773  1.00  0.00     0.002 A 
HETATM   14  C12 UNL     1      23.545   8.766  48.649  1.00  0.00     0.002 A 
HETATM   15  C13 UNL     1      24.760   8.292  48.192  1.00  0.00     0.021 A 
HETATM   16  C14 UNL     1      25.416   7.289  48.862  1.00  0.00     0.037 A 
HETATM   17 BR1  UNL     1      27.089   6.506  48.390  1.00  0.00    -0.049 Br
ENDBRANCH   9  11
ENDBRANCH   4   7
BRANCH   1  18
HETATM   18  C1  UNL     1      26.291  -0.210  53.702  1.00  0.00     0.097 C 
BRANCH  18  19
HETATM   19  S1  UNL     1      24.761  -0.881  54.399  1.00  0.00    -0.078 SA
BRANCH  19  20
HETATM   20  N1  UNL     1      25.089  -1.335  56.073  1.00  0.00    -0.277 NA
HETATM   21  H1  UNL     1      25.018  -2.395  56.138  1.00  0.00     0.131 HD
HETATM   22  H2  UNL     1      24.270  -1.006  56.662  1.00  0.00     0.131 HD
ENDBRANCH  19  20
ENDBRANCH  18  19
BRANCH  18  23
HETATM   23  C2  UNL     1      27.177   0.234  54.850  1.00  0.00     0.036 C 
BRANCH  23  24
HETATM   24  C3  UNL     1      28.642   0.128  54.491  1.00  0.00     0.116 C 
HETATM   25 CL1  UNL     1      28.923  -1.266  53.419  1.00  0.00    -0.130 Cl
ENDBRANCH  23  24
ENDBRANCH  18  23
ENDBRANCH   1  18
TORSDOF 7
ENDMDL
MODEL 9
REMARK VINA RESULT:      -6.8      6.411      8.304
REMARK  7 active torsions:
REMARK  status: ('A' for Active; 'I' for Inactive)
REMARK    1  A    between atoms: N1_1  and  S1_2 
REMARK    2  A    between atoms: S1_2  and  C1_3 
REMARK    3  A    between atoms: C1_3  and  C2_4 
REMARK    4  A    between atoms: C1_3  and  C4_7 
REMARK    5  A    between atoms: C2_4  and  C3_5 
REMARK    6  A    between atoms: C7_10  and  C8_11 
REMARK       I    between atoms: C8_11  and  N2_13 
REMARK    7  A    between atoms: N2_13  and  C9_14 
ROOT
HETATM    1  C4  UNL     1      25.738   0.832  52.503  1.00  0.00    -0.043 A 
HETATM    2  C5  UNL     1      24.562   1.550  52.532  1.00  0.00     0.009 A 
HETATM    3  C6  UNL     1      24.364   2.676  51.761  1.00  0.00     0.017 A 
HETATM    4  C7  UNL     1      25.355   3.148  50.906  1.00  0.00     0.032 A 
HETATM    5  C15 UNL     1      26.552   2.452  50.851  1.00  0.00     0.017 A 
HETATM    6  C16 UNL     1      26.706   1.341  51.631  1.00  0.00     0.009 A 
ENDROOT
BRANCH   4   7
HETATM    7  C8  UNL     1      25.222   4.320  50.068  1.00  0.00     0.256 C 
HETATM    8  O1  UNL     1      24.538   4.318  48.995  1.00  0.00    -0.267 OA
HETATM    9  N2  UNL     1      25.824   5.570  50.343  1.00  0.00    -0.322 N 
HETATM   10  H10 UNL     1      26.406   5.681  51.200  1.00  0.00     0.169 HD
BRANCH   9  11
HETATM   11  C9  UNL     1      25.577   6.622  49.393  1.00  0.00     0.052 A 
HETATM   12  C10 UNL     1      26.578   6.650  48.424  1.00  0.00     0.031 A 
HETATM   13  C11 UNL     1      26.533   7.593  47.407  1.00  0.00     0.002 A 
HETATM   14  C12 UNL     1      25.500   8.483  47.376  1.00  0.00     0.002 A 
HETATM   15  C13 UNL     1      24.507   8.454  48.337  1.00  0.00     0.021 A 
HETATM   16  C14 UNL     1      24.540   7.526  49.348  1.00  0.00     0.037 A 
HETATM   17 BR1  UNL     1      23.272   7.330  50.758  1.00  0.00    -0.049 Br
ENDBRANCH   9  11
ENDBRANCH   4   7
BRANCH   1  18
HETATM   18  C1  UNL     1      26.068  -0.380  53.275  1.00  0.00     0.097 C 
BRANCH  18  19
HETATM   19  S1  UNL     1      26.108  -0.068  55.058  1.00  0.00    -0.078 SA
BRANCH  19  20
HETATM   20  N1  UNL     1      25.140  -1.318  55.843  1.00  0.00    -0.277 NA
HETATM   21  H1  UNL     1      24.980  -2.093  55.131  1.00  0.00     0.131 HD
HETATM   22  H2  UNL     1      24.165  -0.925  55.988  1.00  0.00     0.131 HD
ENDBRANCH  19  20
ENDBRANCH  18  19
BRANCH  18  23
HETATM   23  C2  UNL     1      27.435  -0.883  52.854  1.00  0.00     0.036 C 
BRANCH  23  24
HETATM   24  C3  UNL     1      28.439  -0.762  53.978  1.00  0.00     0.116 C 
HETATM   25 CL1  UNL     1      29.836   0.214  53.465  1.00  0.00    -0.130 Cl
ENDBRANCH  23  24
ENDBRANCH  18  23
ENDBRANCH   1  18
TORSDOF 7
ENDMDL
