MODEL 1
REMARK VINA RESULT:      -9.1      0.000      0.000
REMARK  5 active torsions:
REMARK  status: ('A' for Active; 'I' for Inactive)
REMARK    1  A    between atoms: O1_1  and  C1_2 
REMARK    2  A    between atoms: C17_22  and  O2_23 
REMARK    3  A    between atoms: O2_23  and  C18_24 
REMARK    4  A    between atoms: C18_24  and  C19_25 
REMARK    5  A    between atoms: C19_25  and  N5_26 
ROOT
HETATM    1  C1  UNL     1      25.785   3.689  50.394  1.00  0.00     0.077 C 
HETATM    2  C2  UNL     1      25.463   2.570  51.066  1.00  0.00     0.022 C 
HETATM    3  C3  UNL     1      24.068   2.189  51.367  1.00  0.00     0.074 C 
HETATM    4  C4  UNL     1      23.417   2.108  50.016  1.00  0.00     0.104 C 
HETATM    5  N1  UNL     1      23.242   3.201  49.266  1.00  0.00    -0.246 NA
HETATM    6  C5  UNL     1      23.545   4.525  49.821  1.00  0.00     0.162 C 
HETATM    7  N2  UNL     1      22.316   4.636  49.983  1.00  0.00    -0.224 NA
HETATM    8  C6  UNL     1      21.560   5.668  50.510  1.00  0.00     0.230 C 
HETATM    9  N3  UNL     1      20.597   5.108  51.100  1.00  0.00    -0.264 NA
HETATM   10  C7  UNL     1      20.190   3.791  51.300  1.00  0.00     0.267 C 
HETATM   11  N4  UNL     1      21.021   2.964  52.148  1.00  0.00    -0.399 N 
HETATM   12  C8  UNL     1      20.520   1.660  52.335  1.00  0.00     0.096 A 
HETATM   13  C9  UNL     1      20.605   0.580  51.355  1.00  0.00     0.046 A 
HETATM   14  C10 UNL     1      21.317   0.520  52.664  1.00  0.00     0.026 A 
HETATM   15  C11 UNL     1      20.736  -0.459  53.674  1.00  0.00    -0.010 A 
HETATM   16  C12 UNL     1      21.234  -1.268  54.583  1.00  0.00    -0.003 A 
HETATM   17  C13 UNL     1      22.685  -1.252  54.686  1.00  0.00     0.000 A 
HETATM   18  C14 UNL     1      23.309  -0.405  53.848  1.00  0.00     0.008 A 
HETATM   19  C15 UNL     1      22.749   0.534  52.826  1.00  0.00    -0.046 A 
HETATM   20  C16 UNL     1      23.780   1.189  52.322  1.00  0.00    -0.005 C 
HETATM   21  C17 UNL     1      25.004   4.829  49.833  1.00  0.00     0.248 C 
HETATM   22  H8  UNL     1      21.449   3.436  52.947  1.00  0.00     0.155 HD
ENDROOT
BRANCH  21  23
HETATM   23  O2  UNL     1      25.310   5.955  50.530  1.00  0.00    -0.370 OA
BRANCH  23  24
HETATM   24  C18 UNL     1      25.676   7.072  49.852  1.00  0.00     0.199 C 
BRANCH  24  25
HETATM   25  C19 UNL     1      24.893   8.314  50.082  1.00  0.00     0.298 C 
BRANCH  25  26
HETATM   26  N5  UNL     1      25.814   9.433  49.821  1.00  0.00     0.094 N 
HETATM   27  C20 UNL     1      25.591   9.968  48.493  1.00  0.00     0.298 C 
HETATM   28  C21 UNL     1      26.464  11.159  48.218  1.00  0.00     0.198 C 
HETATM   29  O3  UNL     1      27.543  11.228  49.101  1.00  0.00    -0.388 OA
HETATM   30  C22 UNL     1      28.096   9.969  49.324  1.00  0.00     0.198 C 
HETATM   31  C23 UNL     1      27.169   9.074  50.083  1.00  0.00     0.298 C 
ENDBRANCH  25  26
ENDBRANCH  24  25
ENDBRANCH  23  24
ENDBRANCH  21  23
BRANCH   1  32
HETATM   32  O1  UNL     1      27.149   3.782  50.189  1.00  0.00    -0.362 OA
HETATM   33  H1  UNL     1      27.538   4.549  49.669  1.00  0.00     0.217 HD
ENDBRANCH   1  32
TORSDOF 5
ENDMDL
MODEL 2
REMARK VINA RESULT:      -9.0      1.656      2.096
REMARK  5 active torsions:
REMARK  status: ('A' for Active; 'I' for Inactive)
REMARK    1  A    between atoms: O1_1  and  C1_2 
REMARK    2  A    between atoms: C17_22  and  O2_23 
REMARK    3  A    between atoms: O2_23  and  C18_24 
REMARK    4  A    between atoms: C18_24  and  C19_25 
REMARK    5  A    between atoms: C19_25  and  N5_26 
ROOT
HETATM    1  C1  UNL     1      26.656   4.659  49.406  1.00  0.00     0.077 C 
HETATM    2  C2  UNL     1      26.445   3.490  50.035  1.00  0.00     0.022 C 
HETATM    3  C3  UNL     1      25.131   3.102  50.589  1.00  0.00     0.074 C 
HETATM    4  C4  UNL     1      24.214   3.148  49.402  1.00  0.00     0.104 C 
HETATM    5  N1  UNL     1      23.920   4.305  48.797  1.00  0.00    -0.246 NA
HETATM    6  C5  UNL     1      24.373   5.572  49.384  1.00  0.00     0.162 C 
HETATM    7  N2  UNL     1      23.208   5.683  49.808  1.00  0.00    -0.224 NA
HETATM    8  C6  UNL     1      22.609   6.675  50.565  1.00  0.00     0.230 C 
HETATM    9  N3  UNL     1      21.773   6.079  51.294  1.00  0.00    -0.264 NA
HETATM   10  C7  UNL     1      21.375   4.755  51.465  1.00  0.00     0.267 C 
HETATM   11  N4  UNL     1      22.338   3.846  52.050  1.00  0.00    -0.399 N 
HETATM   12  C8  UNL     1      21.845   2.537  52.229  1.00  0.00     0.096 A 
HETATM   13  C9  UNL     1      21.692   1.547  51.166  1.00  0.00     0.046 A 
HETATM   14  C10 UNL     1      22.658   1.362  52.289  1.00  0.00     0.026 A 
HETATM   15  C11 UNL     1      22.268   0.307  53.313  1.00  0.00    -0.010 A 
HETATM   16  C12 UNL     1      22.918  -0.585  54.027  1.00  0.00    -0.003 A 
HETATM   17  C13 UNL     1      24.358  -0.597  53.827  1.00  0.00     0.000 A 
HETATM   18  C14 UNL     1      24.822   0.312  52.950  1.00  0.00     0.008 A 
HETATM   19  C15 UNL     1      24.093   1.344  52.149  1.00  0.00    -0.046 A 
HETATM   20  C16 UNL     1      25.016   2.027  51.497  1.00  0.00    -0.005 C 
HETATM   21  C17 UNL     1      25.812   5.854  49.117  1.00  0.00     0.248 C 
HETATM   22  H8  UNL     1      22.936   4.241  52.778  1.00  0.00     0.155 HD
ENDROOT
BRANCH  21  23
HETATM   23  O2  UNL     1      26.290   6.910  49.826  1.00  0.00    -0.370 OA
BRANCH  23  24
HETATM   24  C18 UNL     1      26.830   7.962  49.159  1.00  0.00     0.199 C 
BRANCH  24  25
HETATM   25  C19 UNL     1      27.321   9.114  49.958  1.00  0.00     0.298 C 
BRANCH  25  26
HETATM   26  N5  UNL     1      28.730   9.308  49.575  1.00  0.00     0.094 N 
HETATM   27  C20 UNL     1      28.930  10.644  49.051  1.00  0.00     0.298 C 
HETATM   28  C21 UNL     1      30.371  10.901  48.717  1.00  0.00     0.198 C 
HETATM   29  O3  UNL     1      31.098   9.716  48.597  1.00  0.00    -0.388 OA
HETATM   30  C22 UNL     1      30.368   8.741  47.920  1.00  0.00     0.198 C 
HETATM   31  C23 UNL     1      29.190   8.270  48.712  1.00  0.00     0.298 C 
ENDBRANCH  25  26
ENDBRANCH  24  25
ENDBRANCH  23  24
ENDBRANCH  21  23
BRANCH   1  32
HETATM   32  O1  UNL     1      27.950   4.752  48.929  1.00  0.00    -0.362 OA
HETATM   33  H1  UNL     1      28.508   3.927  48.797  1.00  0.00     0.217 HD
ENDBRANCH   1  32
TORSDOF 5
ENDMDL
MODEL 3
REMARK VINA RESULT:      -9.0      1.397      1.630
REMARK  5 active torsions:
REMARK  status: ('A' for Active; 'I' for Inactive)
REMARK    1  A    between atoms: O1_1  and  C1_2 
REMARK    2  A    between atoms: C17_22  and  O2_23 
REMARK    3  A    between atoms: O2_23  and  C18_24 
REMARK    4  A    between atoms: C18_24  and  C19_25 
REMARK    5  A    between atoms: C19_25  and  N5_26 
ROOT
HETATM    1  C1  UNL     1      25.788   3.740  50.493  1.00  0.00     0.077 C 
HETATM    2  C2  UNL     1      25.468   2.612  51.150  1.00  0.00     0.022 C 
HETATM    3  C3  UNL     1      24.072   2.217  51.433  1.00  0.00     0.074 C 
HETATM    4  C4  UNL     1      23.437   2.143  50.074  1.00  0.00     0.104 C 
HETATM    5  N1  UNL     1      23.261   3.242  49.332  1.00  0.00    -0.246 NA
HETATM    6  C5  UNL     1      23.547   4.564  49.903  1.00  0.00     0.162 C 
HETATM    7  N2  UNL     1      22.316   4.662  50.053  1.00  0.00    -0.224 NA
HETATM    8  C6  UNL     1      21.545   5.683  50.582  1.00  0.00     0.230 C 
HETATM    9  N3  UNL     1      20.581   5.110  51.155  1.00  0.00    -0.264 NA
HETATM   10  C7  UNL     1      20.183   3.788  51.338  1.00  0.00     0.267 C 
HETATM   11  N4  UNL     1      21.011   2.959  52.187  1.00  0.00    -0.399 N 
HETATM   12  C8  UNL     1      20.518   1.650  52.356  1.00  0.00     0.096 A 
HETATM   13  C9  UNL     1      20.623   0.580  51.366  1.00  0.00     0.046 A 
HETATM   14  C10 UNL     1      21.321   0.513  52.683  1.00  0.00     0.026 A 
HETATM   15  C11 UNL     1      20.737  -0.480  53.677  1.00  0.00    -0.010 A 
HETATM   16  C12 UNL     1      21.232  -1.294  54.583  1.00  0.00    -0.003 A 
HETATM   17  C13 UNL     1      22.681  -1.267  54.703  1.00  0.00     0.000 A 
HETATM   18  C14 UNL     1      23.308  -0.407  53.880  1.00  0.00     0.008 A 
HETATM   19  C15 UNL     1      22.752   0.538  52.861  1.00  0.00    -0.046 A 
HETATM   20  C16 UNL     1      23.782   1.205  52.375  1.00  0.00    -0.005 C 
HETATM   21  C17 UNL     1      25.004   4.879  49.935  1.00  0.00     0.248 C 
HETATM   22  H8  UNL     1      21.426   3.427  52.996  1.00  0.00     0.155 HD
ENDROOT
BRANCH  21  23
HETATM   23  O2  UNL     1      25.293   6.000  50.646  1.00  0.00    -0.370 OA
BRANCH  23  24
HETATM   24  C18 UNL     1      25.497   7.168  49.983  1.00  0.00     0.199 C 
BRANCH  24  25
HETATM   25  C19 UNL     1      26.137   7.104  48.644  1.00  0.00     0.298 C 
BRANCH  25  26
HETATM   26  N5  UNL     1      27.581   7.286  48.872  1.00  0.00     0.094 N 
HETATM   27  C20 UNL     1      27.974   8.644  48.554  1.00  0.00     0.298 C 
HETATM   28  C21 UNL     1      29.427   8.886  48.844  1.00  0.00     0.198 C 
HETATM   29  O3  UNL     1      30.141   7.692  48.955  1.00  0.00    -0.388 OA
HETATM   30  C22 UNL     1      29.748   6.774  47.985  1.00  0.00     0.198 C 
HETATM   31  C23 UNL     1      28.350   6.287  48.206  1.00  0.00     0.298 C 
ENDBRANCH  25  26
ENDBRANCH  24  25
ENDBRANCH  23  24
ENDBRANCH  21  23
BRANCH   1  32
HETATM   32  O1  UNL     1      27.153   3.846  50.304  1.00  0.00    -0.362 OA
HETATM   33  H1  UNL     1      27.742   4.225  51.024  1.00  0.00     0.217 HD
ENDBRANCH   1  32
TORSDOF 5
ENDMDL
MODEL 4
REMARK VINA RESULT:      -8.5      5.409      8.389
REMARK  5 active torsions:
REMARK  status: ('A' for Active; 'I' for Inactive)
REMARK    1  A    between atoms: O1_1  and  C1_2 
REMARK    2  A    between atoms: C17_22  and  O2_23 
REMARK    3  A    between atoms: O2_23  and  C18_24 
REMARK    4  A    between atoms: C18_24  and  C19_25 
REMARK    5  A    between atoms: C19_25  and  N5_26 
ROOT
HETATM    1  C1  UNL     1      19.244  -0.536  53.182  1.00  0.00     0.077 C 
HETATM    2  C2  UNL     1      20.544  -0.642  53.510  1.00  0.00     0.022 C 
HETATM    3  C3  UNL     1      21.592   0.213  52.918  1.00  0.00     0.074 C 
HETATM    4  C4  UNL     1      21.153   1.608  53.257  1.00  0.00     0.104 C 
HETATM    5  N1  UNL     1      20.045   2.134  52.725  1.00  0.00    -0.246 NA
HETATM    6  C5  UNL     1      19.321   1.406  51.676  1.00  0.00     0.162 C 
HETATM    7  N2  UNL     1      19.878   2.185  50.881  1.00  0.00    -0.224 NA
HETATM    8  C6  UNL     1      19.806   2.279  49.502  1.00  0.00     0.230 C 
HETATM    9  N3  UNL     1      20.954   2.642  49.132  1.00  0.00    -0.264 NA
HETATM   10  C7  UNL     1      22.154   2.936  49.774  1.00  0.00     0.267 C 
HETATM   11  N4  UNL     1      22.848   1.838  50.413  1.00  0.00    -0.399 N 
HETATM   12  C8  UNL     1      24.074   2.209  51.003  1.00  0.00     0.096 A 
HETATM   13  C9  UNL     1      24.212   2.916  52.274  1.00  0.00     0.046 A 
HETATM   14  C10 UNL     1      24.698   1.517  52.087  1.00  0.00     0.026 A 
HETATM   15  C11 UNL     1      26.210   1.359  52.024  1.00  0.00    -0.010 A 
HETATM   16  C12 UNL     1      27.073   0.463  52.448  1.00  0.00    -0.003 A 
HETATM   17  C13 UNL     1      26.484  -0.670  53.145  1.00  0.00     0.000 A 
HETATM   18  C14 UNL     1      25.144  -0.646  53.247  1.00  0.00     0.008 A 
HETATM   19  C15 UNL     1      24.153   0.358  52.749  1.00  0.00    -0.046 A 
HETATM   20  C16 UNL     1      22.959  -0.120  53.047  1.00  0.00    -0.005 C 
HETATM   21  C17 UNL     1      18.479   0.300  52.212  1.00  0.00     0.248 C 
HETATM   22  H8  UNL     1      22.798   0.939  49.929  1.00  0.00     0.155 HD
ENDROOT
BRANCH  21  23
HETATM   23  O2  UNL     1      17.973  -0.507  51.242  1.00  0.00    -0.370 OA
BRANCH  23  24
HETATM   24  C18 UNL     1      16.658  -0.405  50.919  1.00  0.00     0.199 C 
BRANCH  24  25
HETATM   25  C19 UNL     1      16.267   0.608  49.905  1.00  0.00     0.298 C 
BRANCH  25  26
HETATM   26  N5  UNL     1      15.402   1.573  50.604  1.00  0.00     0.094 N 
HETATM   27  C20 UNL     1      16.075   2.850  50.735  1.00  0.00     0.298 C 
HETATM   28  C21 UNL     1      15.194   3.881  51.379  1.00  0.00     0.198 C 
HETATM   29  O3  UNL     1      14.121   3.299  52.057  1.00  0.00    -0.388 OA
HETATM   30  C22 UNL     1      14.520   2.161  52.754  1.00  0.00     0.198 C 
HETATM   31  C23 UNL     1      14.910   1.047  51.834  1.00  0.00     0.298 C 
ENDBRANCH  25  26
ENDBRANCH  24  25
ENDBRANCH  23  24
ENDBRANCH  21  23
BRANCH   1  32
HETATM   32  O1  UNL     1      18.462  -1.405  53.920  1.00  0.00    -0.362 OA
HETATM   33  H1  UNL     1      18.784  -1.760  54.803  1.00  0.00     0.217 HD
ENDBRANCH   1  32
TORSDOF 5
ENDMDL
MODEL 5
REMARK VINA RESULT:      -8.4      3.019      5.607
REMARK  5 active torsions:
REMARK  status: ('A' for Active; 'I' for Inactive)
REMARK    1  A    between atoms: O1_1  and  C1_2 
REMARK    2  A    between atoms: C17_22  and  O2_23 
REMARK    3  A    between atoms: O2_23  and  C18_24 
REMARK    4  A    between atoms: C18_24  and  C19_25 
REMARK    5  A    between atoms: C19_25  and  N5_26 
ROOT
HETATM    1  C1  UNL     1      21.788   6.442  50.478  1.00  0.00     0.077 C 
HETATM    2  C2  UNL     1      21.519   5.363  51.233  1.00  0.00     0.022 C 
HETATM    3  C3  UNL     1      22.541   4.357  51.587  1.00  0.00     0.074 C 
HETATM    4  C4  UNL     1      23.599   5.152  52.295  1.00  0.00     0.104 C 
HETATM    5  N1  UNL     1      24.332   6.062  51.645  1.00  0.00    -0.246 NA
HETATM    6  C5  UNL     1      24.217   6.189  50.187  1.00  0.00     0.162 C 
HETATM    7  N2  UNL     1      25.276   5.538  50.140  1.00  0.00    -0.224 NA
HETATM    8  C6  UNL     1      26.031   5.110  49.062  1.00  0.00     0.230 C 
HETATM    9  N3  UNL     1      26.513   4.000  49.413  1.00  0.00    -0.264 NA
HETATM   10  C7  UNL     1      26.441   3.206  50.554  1.00  0.00     0.267 C 
HETATM   11  N4  UNL     1      25.163   2.600  50.859  1.00  0.00    -0.399 N 
HETATM   12  C8  UNL     1      25.183   1.778  52.004  1.00  0.00     0.096 A 
HETATM   13  C9  UNL     1      25.180   2.262  53.383  1.00  0.00     0.046 A 
HETATM   14  C10 UNL     1      24.043   1.481  52.814  1.00  0.00     0.026 A 
HETATM   15  C11 UNL     1      23.916   0.053  53.326  1.00  0.00    -0.010 A 
HETATM   16  C12 UNL     1      22.916  -0.746  53.622  1.00  0.00    -0.003 A 
HETATM   17  C13 UNL     1      21.594  -0.172  53.421  1.00  0.00     0.000 A 
HETATM   18  C14 UNL     1      21.583   1.088  52.950  1.00  0.00     0.008 A 
HETATM   19  C15 UNL     1      22.716   1.998  52.591  1.00  0.00    -0.046 A 
HETATM   20  C16 UNL     1      22.168   3.100  52.113  1.00  0.00    -0.005 C 
HETATM   21  C17 UNL     1      23.000   6.939  49.764  1.00  0.00     0.248 C 
HETATM   22  H8  UNL     1      24.614   2.292  50.054  1.00  0.00     0.155 HD
ENDROOT
BRANCH  21  23
HETATM   23  O2  UNL     1      22.775   6.881  48.425  1.00  0.00    -0.370 OA
BRANCH  23  24
HETATM   24  C18 UNL     1      22.724   5.669  47.816  1.00  0.00     0.199 C 
BRANCH  24  25
HETATM   25  C19 UNL     1      21.431   5.245  47.220  1.00  0.00     0.298 C 
BRANCH  25  26
HETATM   26  N5  UNL     1      21.288   3.812  47.529  1.00  0.00     0.094 N 
HETATM   27  C20 UNL     1      20.199   3.604  48.462  1.00  0.00     0.298 C 
HETATM   28  C21 UNL     1      19.977   2.146  48.745  1.00  0.00     0.198 C 
HETATM   29  O3  UNL     1      21.083   1.373  48.390  1.00  0.00    -0.388 OA
HETATM   30  C22 UNL     1      22.275   2.000  48.748  1.00  0.00     0.198 C 
HETATM   31  C23 UNL     1      22.525   3.235  47.942  1.00  0.00     0.298 C 
ENDBRANCH  25  26
ENDBRANCH  24  25
ENDBRANCH  23  24
ENDBRANCH  21  23
BRANCH   1  32
HETATM   32  O1  UNL     1      20.680   7.258  50.345  1.00  0.00    -0.362 OA
HETATM   33  H1  UNL     1      20.071   7.171  49.551  1.00  0.00     0.217 HD
ENDBRANCH   1  32
TORSDOF 5
ENDMDL
MODEL 6
REMARK VINA RESULT:      -8.0      5.538      8.976
REMARK  5 active torsions:
REMARK  status: ('A' for Active; 'I' for Inactive)
REMARK    1  A    between atoms: O1_1  and  C1_2 
REMARK    2  A    between atoms: C17_22  and  O2_23 
REMARK    3  A    between atoms: O2_23  and  C18_24 
REMARK    4  A    between atoms: C18_24  and  C19_25 
REMARK    5  A    between atoms: C19_25  and  N5_26 
ROOT
HETATM    1  C1  UNL     1      30.370   5.776  47.949  1.00  0.00     0.077 C 
HETATM    2  C2  UNL     1      29.061   5.584  48.185  1.00  0.00     0.022 C 
HETATM    3  C3  UNL     1      28.099   6.697  48.325  1.00  0.00     0.074 C 
HETATM    4  C4  UNL     1      28.220   7.442  47.028  1.00  0.00     0.104 C 
HETATM    5  N1  UNL     1      29.342   8.095  46.706  1.00  0.00    -0.246 NA
HETATM    6  C5  UNL     1      30.423   8.221  47.691  1.00  0.00     0.162 C 
HETATM    7  N2  UNL     1      29.995   9.375  47.875  1.00  0.00    -0.224 NA
HETATM    8  C6  UNL     1      30.425  10.378  48.725  1.00  0.00     0.230 C 
HETATM    9  N3  UNL     1      29.381  10.990  49.076  1.00  0.00    -0.264 NA
HETATM   10  C7  UNL     1      28.022  10.865  48.800  1.00  0.00     0.267 C 
HETATM   11  N4  UNL     1      27.348   9.690  49.309  1.00  0.00    -0.399 N 
HETATM   12  C8  UNL     1      25.968   9.659  49.025  1.00  0.00     0.096 A 
HETATM   13  C9  UNL     1      25.387   9.317  47.729  1.00  0.00     0.046 A 
HETATM   14  C10 UNL     1      25.180   8.469  48.939  1.00  0.00     0.026 A 
HETATM   15  C11 UNL     1      23.783   8.523  49.538  1.00  0.00    -0.010 A 
HETATM   16  C12 UNL     1      22.979   7.654  50.109  1.00  0.00    -0.003 A 
HETATM   17  C13 UNL     1      23.514   6.306  50.220  1.00  0.00     0.000 A 
HETATM   18  C14 UNL     1      24.758   6.143  49.736  1.00  0.00     0.008 A 
HETATM   19  C15 UNL     1      25.689   7.130  49.105  1.00  0.00    -0.046 A 
HETATM   20  C16 UNL     1      26.814   6.479  48.868  1.00  0.00    -0.005 C 
HETATM   21  C17 UNL     1      31.240   6.981  47.819  1.00  0.00     0.248 C 
HETATM   22  H8  UNL     1      27.660   9.362  50.226  1.00  0.00     0.155 HD
ENDROOT
BRANCH  21  23
HETATM   23  O2  UNL     1      32.103   7.015  48.868  1.00  0.00    -0.370 OA
BRANCH  23  24
HETATM   24  C18 UNL     1      33.438   6.963  48.626  1.00  0.00     0.199 C 
BRANCH  24  25
HETATM   25  C19 UNL     1      33.886   6.906  47.210  1.00  0.00     0.298 C 
BRANCH  25  26
HETATM   26  N5  UNL     1      34.578   5.615  47.052  1.00  0.00     0.094 N 
HETATM   27  C20 UNL     1      34.070   4.910  45.892  1.00  0.00     0.298 C 
HETATM   28  C21 UNL     1      34.804   3.621  45.658  1.00  0.00     0.198 C 
HETATM   29  O3  UNL     1      35.498   3.204  46.794  1.00  0.00    -0.388 OA
HETATM   30  C22 UNL     1      34.743   3.399  47.949  1.00  0.00     0.198 C 
HETATM   31  C23 UNL     1      34.550   4.851  48.255  1.00  0.00     0.298 C 
ENDBRANCH  25  26
ENDBRANCH  24  25
ENDBRANCH  23  24
ENDBRANCH  21  23
BRANCH   1  32
HETATM   32  O1  UNL     1      31.040   4.577  47.798  1.00  0.00    -0.362 OA
HETATM   33  H1  UNL     1      30.671   3.854  47.206  1.00  0.00     0.217 HD
ENDBRANCH   1  32
TORSDOF 5
ENDMDL
MODEL 7
REMARK VINA RESULT:      -8.0      2.129      3.678
REMARK  5 active torsions:
REMARK  status: ('A' for Active; 'I' for Inactive)
REMARK    1  A    between atoms: O1_1  and  C1_2 
REMARK    2  A    between atoms: C17_22  and  O2_23 
REMARK    3  A    between atoms: O2_23  and  C18_24 
REMARK    4  A    between atoms: C18_24  and  C19_25 
REMARK    5  A    between atoms: C19_25  and  N5_26 
ROOT
HETATM    1  C1  UNL     1      21.725   6.321  50.326  1.00  0.00     0.077 C 
HETATM    2  C2  UNL     1      21.425   5.222  51.040  1.00  0.00     0.022 C 
HETATM    3  C3  UNL     1      22.440   4.228  51.444  1.00  0.00     0.074 C 
HETATM    4  C4  UNL     1      23.430   5.027  52.241  1.00  0.00     0.104 C 
HETATM    5  N1  UNL     1      24.189   5.964  51.662  1.00  0.00    -0.246 NA
HETATM    6  C5  UNL     1      24.173   6.119  50.202  1.00  0.00     0.162 C 
HETATM    7  N2  UNL     1      25.246   5.489  50.218  1.00  0.00    -0.224 NA
HETATM    8  C6  UNL     1      26.084   5.098  49.188  1.00  0.00     0.230 C 
HETATM    9  N3  UNL     1      26.562   3.990  49.549  1.00  0.00    -0.264 NA
HETATM   10  C7  UNL     1      26.426   3.171  50.667  1.00  0.00     0.267 C 
HETATM   11  N4  UNL     1      25.142   2.535  50.869  1.00  0.00    -0.399 N 
HETATM   12  C8  UNL     1      25.098   1.691  51.997  1.00  0.00     0.096 A 
HETATM   13  C9  UNL     1      24.988   2.145  53.381  1.00  0.00     0.046 A 
HETATM   14  C10 UNL     1      23.910   1.355  52.718  1.00  0.00     0.026 A 
HETATM   15  C11 UNL     1      23.776  -0.085  53.192  1.00  0.00    -0.010 A 
HETATM   16  C12 UNL     1      22.774  -0.909  53.401  1.00  0.00    -0.003 A 
HETATM   17  C13 UNL     1      21.459  -0.355  53.118  1.00  0.00     0.000 A 
HETATM   18  C14 UNL     1      21.455   0.914  52.673  1.00  0.00     0.008 A 
HETATM   19  C15 UNL     1      22.592   1.851  52.412  1.00  0.00    -0.046 A 
HETATM   20  C16 UNL     1      22.057   2.953  51.918  1.00  0.00    -0.005 C 
HETATM   21  C17 UNL     1      22.974   6.855  49.709  1.00  0.00     0.248 C 
HETATM   22  H8  UNL     1      24.657   2.235  50.021  1.00  0.00     0.155 HD
ENDROOT
BRANCH  21  23
HETATM   23  O2  UNL     1      22.845   6.821  48.357  1.00  0.00    -0.370 OA
BRANCH  23  24
HETATM   24  C18 UNL     1      23.537   7.716  47.605  1.00  0.00     0.199 C 
BRANCH  24  25
HETATM   25  C19 UNL     1      24.000   8.965  48.264  1.00  0.00     0.298 C 
BRANCH  25  26
HETATM   26  N5  UNL     1      25.463   8.844  48.388  1.00  0.00     0.094 N 
HETATM   27  C20 UNL     1      25.893   9.270  49.704  1.00  0.00     0.298 C 
HETATM   28  C21 UNL     1      27.372   9.091  49.892  1.00  0.00     0.198 C 
HETATM   29  O3  UNL     1      28.038   8.953  48.673  1.00  0.00    -0.388 OA
HETATM   30  C22 UNL     1      27.539   9.838  47.720  1.00  0.00     0.198 C 
HETATM   31  C23 UNL     1      26.139   9.496  47.316  1.00  0.00     0.298 C 
ENDBRANCH  25  26
ENDBRANCH  24  25
ENDBRANCH  23  24
ENDBRANCH  21  23
BRANCH   1  32
HETATM   32  O1  UNL     1      20.614   7.119  50.132  1.00  0.00    -0.362 OA
HETATM   33  H1  UNL     1      20.556   8.030  50.551  1.00  0.00     0.217 HD
ENDBRANCH   1  32
TORSDOF 5
ENDMDL
MODEL 8
REMARK VINA RESULT:      -7.8      3.666      5.593
REMARK  5 active torsions:
REMARK  status: ('A' for Active; 'I' for Inactive)
REMARK    1  A    between atoms: O1_1  and  C1_2 
REMARK    2  A    between atoms: C17_22  and  O2_23 
REMARK    3  A    between atoms: O2_23  and  C18_24 
REMARK    4  A    between atoms: C18_24  and  C19_25 
REMARK    5  A    between atoms: C19_25  and  N5_26 
ROOT
HETATM    1  C1  UNL     1      20.955   3.453  52.024  1.00  0.00     0.077 C 
HETATM    2  C2  UNL     1      21.715   2.473  52.542  1.00  0.00     0.022 C 
HETATM    3  C3  UNL     1      23.174   2.390  52.324  1.00  0.00     0.074 C 
HETATM    4  C4  UNL     1      23.692   3.694  52.858  1.00  0.00     0.104 C 
HETATM    5  N1  UNL     1      23.397   4.853  52.259  1.00  0.00    -0.246 NA
HETATM    6  C5  UNL     1      22.684   4.853  50.976  1.00  0.00     0.162 C 
HETATM    7  N2  UNL     1      23.799   5.058  50.463  1.00  0.00    -0.224 NA
HETATM    8  C6  UNL     1      24.173   5.217  49.141  1.00  0.00     0.230 C 
HETATM    9  N3  UNL     1      25.319   4.701  49.054  1.00  0.00    -0.264 NA
HETATM   10  C7  UNL     1      26.190   4.071  49.940  1.00  0.00     0.267 C 
HETATM   11  N4  UNL     1      25.790   2.778  50.453  1.00  0.00    -0.399 N 
HETATM   12  C8  UNL     1      26.742   2.188  51.308  1.00  0.00     0.096 A 
HETATM   13  C9  UNL     1      26.970   2.569  52.700  1.00  0.00     0.046 A 
HETATM   14  C10 UNL     1      26.442   1.225  52.321  1.00  0.00     0.026 A 
HETATM   15  C11 UNL     1      27.422   0.073  52.489  1.00  0.00    -0.010 A 
HETATM   16  C12 UNL     1      27.329  -1.183  52.865  1.00  0.00    -0.003 A 
HETATM   17  C13 UNL     1      25.985  -1.621  53.207  1.00  0.00     0.000 A 
HETATM   18  C14 UNL     1      25.028  -0.685  53.080  1.00  0.00     0.008 A 
HETATM   19  C15 UNL     1      25.120   0.740  52.632  1.00  0.00    -0.046 A 
HETATM   20  C16 UNL     1      23.884   1.205  52.617  1.00  0.00    -0.005 C 
HETATM   21  C17 UNL     1      21.220   4.614  51.126  1.00  0.00     0.248 C 
HETATM   22  H8  UNL     1      25.290   2.175  49.797  1.00  0.00     0.155 HD
ENDROOT
BRANCH  21  23
HETATM   23  O2  UNL     1      20.589   4.404  49.940  1.00  0.00    -0.370 OA
BRANCH  23  24
HETATM   24  C18 UNL     1      20.243   5.474  49.179  1.00  0.00     0.199 C 
BRANCH  24  25
HETATM   25  C19 UNL     1      19.367   5.237  48.003  1.00  0.00     0.298 C 
BRANCH  25  26
HETATM   26  N5  UNL     1      20.243   5.302  46.821  1.00  0.00     0.094 N 
HETATM   27  C20 UNL     1      20.780   3.990  46.519  1.00  0.00     0.298 C 
HETATM   28  C21 UNL     1      21.621   4.004  45.275  1.00  0.00     0.198 C 
HETATM   29  O3  UNL     1      22.023   5.296  44.934  1.00  0.00    -0.388 OA
HETATM   30  C22 UNL     1      22.398   6.024  46.061  1.00  0.00     0.198 C 
HETATM   31  C23 UNL     1      21.233   6.319  46.953  1.00  0.00     0.298 C 
ENDBRANCH  25  26
ENDBRANCH  24  25
ENDBRANCH  23  24
ENDBRANCH  21  23
BRANCH   1  32
HETATM   32  O1  UNL     1      19.637   3.338  52.425  1.00  0.00    -0.362 OA
HETATM   33  H1  UNL     1      19.202   4.063  52.968  1.00  0.00     0.217 HD
ENDBRANCH   1  32
TORSDOF 5
ENDMDL
MODEL 9
REMARK VINA RESULT:      -7.7      5.004      7.942
REMARK  5 active torsions:
REMARK  status: ('A' for Active; 'I' for Inactive)
REMARK    1  A    between atoms: O1_1  and  C1_2 
REMARK    2  A    between atoms: C17_22  and  O2_23 
REMARK    3  A    between atoms: O2_23  and  C18_24 
REMARK    4  A    between atoms: C18_24  and  C19_25 
REMARK    5  A    between atoms: C19_25  and  N5_26 
ROOT
HETATM    1  C1  UNL     1      17.933   4.240  50.870  1.00  0.00     0.077 C 
HETATM    2  C2  UNL     1      18.475   3.497  51.851  1.00  0.00     0.022 C 
HETATM    3  C3  UNL     1      19.850   2.959  51.783  1.00  0.00     0.074 C 
HETATM    4  C4  UNL     1      20.706   4.181  51.615  1.00  0.00     0.104 C 
HETATM    5  N1  UNL     1      20.650   4.917  50.500  1.00  0.00    -0.246 NA
HETATM    6  C5  UNL     1      19.859   4.453  49.355  1.00  0.00     0.162 C 
HETATM    7  N2  UNL     1      20.946   4.091  48.869  1.00  0.00    -0.224 NA
HETATM    8  C6  UNL     1      21.241   3.470  47.668  1.00  0.00     0.230 C 
HETATM    9  N3  UNL     1      22.219   2.716  47.915  1.00  0.00    -0.264 NA
HETATM   10  C7  UNL     1      22.981   2.419  49.042  1.00  0.00     0.267 C 
HETATM   11  N4  UNL     1      22.324   1.702  50.114  1.00  0.00    -0.399 N 
HETATM   12  C8  UNL     1      23.173   1.403  51.199  1.00  0.00     0.096 A 
HETATM   13  C9  UNL     1      23.595   2.358  52.221  1.00  0.00     0.046 A 
HETATM   14  C10 UNL     1      22.732   1.183  52.541  1.00  0.00     0.026 A 
HETATM   15  C11 UNL     1      23.417   0.068  53.318  1.00  0.00    -0.010 A 
HETATM   16  C12 UNL     1      23.056  -0.764  54.269  1.00  0.00    -0.003 A 
HETATM   17  C13 UNL     1      21.677  -0.624  54.712  1.00  0.00     0.000 A 
HETATM   18  C14 UNL     1      20.966   0.326  54.080  1.00  0.00     0.008 A 
HETATM   19  C15 UNL     1      21.362   1.262  52.982  1.00  0.00    -0.046 A 
HETATM   20  C16 UNL     1      20.276   1.946  52.670  1.00  0.00    -0.005 C 
HETATM   21  C17 UNL     1      18.397   4.690  49.526  1.00  0.00     0.248 C 
HETATM   22  H8  UNL     1      21.644   0.996  49.824  1.00  0.00     0.155 HD
ENDROOT
BRANCH  21  23
HETATM   23  O2  UNL     1      17.642   4.080  48.575  1.00  0.00    -0.370 OA
BRANCH  23  24
HETATM   24  C18 UNL     1      17.645   2.724  48.498  1.00  0.00     0.199 C 
BRANCH  24  25
HETATM   25  C19 UNL     1      16.343   2.036  48.304  1.00  0.00     0.298 C 
BRANCH  25  26
HETATM   26  N5  UNL     1      16.272   0.994  49.342  1.00  0.00     0.094 N 
HETATM   27  C20 UNL     1      15.432   1.431  50.439  1.00  0.00     0.298 C 
HETATM   28  C21 UNL     1      15.278   0.364  51.484  1.00  0.00     0.198 C 
HETATM   29  O3  UNL     1      16.268  -0.614  51.378  1.00  0.00    -0.388 OA
HETATM   30  C22 UNL     1      17.512  -0.048  51.109  1.00  0.00     0.198 C 
HETATM   31  C23 UNL     1      17.570   0.559  49.743  1.00  0.00     0.298 C 
ENDBRANCH  25  26
ENDBRANCH  24  25
ENDBRANCH  23  24
ENDBRANCH  21  23
BRANCH   1  32
HETATM   32  O1  UNL     1      16.663   4.671  51.204  1.00  0.00    -0.362 OA
HETATM   33  H1  UNL     1      15.855   4.131  50.948  1.00  0.00     0.217 HD
ENDBRANCH   1  32
TORSDOF 5
ENDMDL
