MODEL 1
REMARK VINA RESULT:      -8.3      0.000      0.000
REMARK  6 active torsions:
REMARK  status: ('A' for Active; 'I' for Inactive)
REMARK    1  A    between atoms: C4_6  and  C5_7 
REMARK    2  A    between atoms: C7_10  and  N3_11 
REMARK    3  A    between atoms: N3_11  and  C8_12 
REMARK    4  A    between atoms: C11_15  and  O2_16 
REMARK    5  A    between atoms: O2_16  and  C12_17 
REMARK    6  A    between atoms: C12_17  and  C13_18 
ROOT
HETATM    1  N1  UNL     1      27.248  -0.161  55.023  1.00  0.00    -0.191 NA
HETATM    2  C1  UNL     1      26.125  -0.371  54.845  1.00  0.00     0.103 C 
HETATM    3  C2  UNL     1      24.735  -0.628  54.600  1.00  0.00     0.088 A 
HETATM    4  C3  UNL     1      24.039  -1.201  55.661  1.00  0.00     0.142 A 
HETATM    5  N2  UNL     1      22.749  -1.465  55.496  1.00  0.00    -0.256 NA
HETATM    6  C4  UNL     1      22.073  -1.211  54.362  1.00  0.00     0.096 A 
HETATM    7  C6  UNL     1      22.766  -0.643  53.314  1.00  0.00     0.066 A 
HETATM    8  C7  UNL     1      24.107  -0.331  53.387  1.00  0.00     0.057 A 
ENDROOT
BRANCH   8   9
HETATM    9  N3  UNL     1      24.853   0.246  52.345  1.00  0.00    -0.355 N 
HETATM   10  H4  UNL     1      25.357  -0.591  51.941  1.00  0.00     0.166 HD
BRANCH   9  11
HETATM   11  C8  UNL     1      25.044   1.537  51.801  1.00  0.00     0.034 A 
HETATM   12  C9  UNL     1      26.192   1.802  51.078  1.00  0.00     0.032 A 
HETATM   13  C10 UNL     1      26.276   3.089  50.591  1.00  0.00     0.041 A 
HETATM   14  C11 UNL     1      25.345   4.081  50.764  1.00  0.00     0.091 A 
HETATM   15  C19 UNL     1      24.213   3.773  51.493  1.00  0.00     0.069 A 
HETATM   16 CL1  UNL     1      23.002   5.021  51.734  1.00  0.00    -0.081 Cl
HETATM   17  C20 UNL     1      24.075   2.498  52.006  1.00  0.00     0.056 A 
BRANCH  14  18
HETATM   18  O2  UNL     1      25.493   5.357  50.246  1.00  0.00    -0.345 OA
BRANCH  18  19
HETATM   19  C12 UNL     1      25.490   5.541  48.848  1.00  0.00     0.214 C 
BRANCH  19  20
HETATM   20  C13 UNL     1      26.847   6.055  48.459  1.00  0.00    -0.034 A 
HETATM   21  C14 UNL     1      27.909   5.149  48.530  1.00  0.00     0.009 A 
HETATM   22  C15 UNL     1      29.194   5.540  48.190  1.00  0.00     0.001 A 
HETATM   23  C16 UNL     1      29.404   6.831  47.782  1.00  0.00     0.000 A 
HETATM   24  C17 UNL     1      28.359   7.749  47.704  1.00  0.00     0.001 A 
HETATM   25  C18 UNL     1      27.081   7.350  48.045  1.00  0.00     0.009 A 
ENDBRANCH  19  20
ENDBRANCH  18  19
ENDBRANCH  14  18
ENDBRANCH   9  11
ENDBRANCH   8   9
BRANCH   6  26
HETATM   26  C5  UNL     1      20.645  -1.514  54.210  1.00  0.00     0.290 C 
HETATM   27  O1  UNL     1      19.862  -0.792  53.539  1.00  0.00    -0.300 OA
ENDBRANCH   6  26
TORSDOF 6
ENDMDL
MODEL 2
REMARK VINA RESULT:      -8.3      5.437      7.189
REMARK  6 active torsions:
REMARK  status: ('A' for Active; 'I' for Inactive)
REMARK    1  A    between atoms: C4_6  and  C5_7 
REMARK    2  A    between atoms: C7_10  and  N3_11 
REMARK    3  A    between atoms: N3_11  and  C8_12 
REMARK    4  A    between atoms: C11_15  and  O2_16 
REMARK    5  A    between atoms: O2_16  and  C12_17 
REMARK    6  A    between atoms: C12_17  and  C13_18 
ROOT
HETATM    1  N1  UNL     1      17.735   1.600  51.314  1.00  0.00    -0.191 NA
HETATM    2  C1  UNL     1      17.585   0.550  51.773  1.00  0.00     0.103 C 
HETATM    3  C2  UNL     1      17.414  -0.748  52.360  1.00  0.00     0.088 A 
HETATM    4  C3  UNL     1      16.332  -1.482  51.881  1.00  0.00     0.142 A 
HETATM    5  N2  UNL     1      16.118  -2.690  52.387  1.00  0.00    -0.256 NA
HETATM    6  C4  UNL     1      16.889  -3.249  53.336  1.00  0.00     0.096 A 
HETATM    7  C6  UNL     1      17.960  -2.520  53.807  1.00  0.00     0.066 A 
HETATM    8  C7  UNL     1      18.264  -1.256  53.346  1.00  0.00     0.057 A 
ENDROOT
BRANCH   8   9
HETATM    9  N3  UNL     1      19.343  -0.477  53.798  1.00  0.00    -0.355 N 
HETATM   10  H4  UNL     1      18.854   0.285  54.344  1.00  0.00     0.166 HD
BRANCH   9  11
HETATM   11  C8  UNL     1      20.753  -0.497  53.689  1.00  0.00     0.034 A 
HETATM   12  C9  UNL     1      21.480  -1.339  54.508  1.00  0.00     0.032 A 
HETATM   13  C10 UNL     1      22.845  -1.281  54.318  1.00  0.00     0.041 A 
HETATM   14  C11 UNL     1      23.503  -0.484  53.415  1.00  0.00     0.091 A 
HETATM   15  C19 UNL     1      22.736   0.341  52.618  1.00  0.00     0.069 A 
HETATM   16 CL1  UNL     1      23.547   1.375  51.453  1.00  0.00    -0.081 Cl
HETATM   17  C20 UNL     1      21.362   0.326  52.765  1.00  0.00     0.056 A 
BRANCH  14  18
HETATM   18  O2  UNL     1      24.880  -0.476  53.276  1.00  0.00    -0.345 OA
BRANCH  18  19
HETATM   19  C12 UNL     1      25.674   0.131  54.273  1.00  0.00     0.214 C 
BRANCH  19  20
HETATM   20  C13 UNL     1      27.109  -0.169  53.949  1.00  0.00    -0.034 A 
HETATM   21  C14 UNL     1      28.053   0.796  54.311  1.00  0.00     0.009 A 
HETATM   22  C15 UNL     1      29.399   0.601  54.049  1.00  0.00     0.001 A 
HETATM   23  C16 UNL     1      29.789  -0.557  53.429  1.00  0.00     0.000 A 
HETATM   24  C17 UNL     1      28.864  -1.532  53.060  1.00  0.00     0.001 A 
HETATM   25  C18 UNL     1      27.524  -1.328  53.326  1.00  0.00     0.009 A 
ENDBRANCH  19  20
ENDBRANCH  18  19
ENDBRANCH  14  18
ENDBRANCH   9  11
ENDBRANCH   8   9
BRANCH   6  26
HETATM   26  C5  UNL     1      16.628  -4.589  53.875  1.00  0.00     0.290 C 
HETATM   27  O1  UNL     1      15.713  -5.335  53.438  1.00  0.00    -0.300 OA
ENDBRANCH   6  26
TORSDOF 6
ENDMDL
MODEL 3
REMARK VINA RESULT:      -8.1      3.603      8.687
REMARK  6 active torsions:
REMARK  status: ('A' for Active; 'I' for Inactive)
REMARK    1  A    between atoms: C4_6  and  C5_7 
REMARK    2  A    between atoms: C7_10  and  N3_11 
REMARK    3  A    between atoms: N3_11  and  C8_12 
REMARK    4  A    between atoms: C11_15  and  O2_16 
REMARK    5  A    between atoms: O2_16  and  C12_17 
REMARK    6  A    between atoms: C12_17  and  C13_18 
ROOT
HETATM    1  N1  UNL     1      23.883   7.310  51.121  1.00  0.00    -0.191 NA
HETATM    2  C1  UNL     1      24.853   7.238  50.497  1.00  0.00     0.103 C 
HETATM    3  C2  UNL     1      26.050   7.128  49.713  1.00  0.00     0.088 A 
HETATM    4  C3  UNL     1      26.820   8.286  49.634  1.00  0.00     0.142 A 
HETATM    5  N2  UNL     1      27.938   8.249  48.921  1.00  0.00    -0.256 NA
HETATM    6  C4  UNL     1      28.373   7.157  48.269  1.00  0.00     0.096 A 
HETATM    7  C6  UNL     1      27.608   6.013  48.350  1.00  0.00     0.066 A 
HETATM    8  C7  UNL     1      26.431   5.950  49.065  1.00  0.00     0.057 A 
ENDROOT
BRANCH   8   9
HETATM    9  N3  UNL     1      25.619   4.808  49.173  1.00  0.00    -0.355 N 
HETATM   10  H4  UNL     1      24.951   4.931  48.364  1.00  0.00     0.166 HD
BRANCH   9  11
HETATM   11  C8  UNL     1      25.524   3.682  50.024  1.00  0.00     0.034 A 
HETATM   12  C9  UNL     1      26.673   2.995  50.366  1.00  0.00     0.032 A 
HETATM   13  C10 UNL     1      26.467   1.917  51.200  1.00  0.00     0.041 A 
HETATM   14  C11 UNL     1      25.258   1.495  51.693  1.00  0.00     0.091 A 
HETATM   15  C19 UNL     1      24.136   2.211  51.325  1.00  0.00     0.069 A 
HETATM   16 CL1  UNL     1      22.573   1.696  51.938  1.00  0.00    -0.081 Cl
HETATM   17  C20 UNL     1      24.282   3.302  50.490  1.00  0.00     0.056 A 
BRANCH  14  18
HETATM   18  O2  UNL     1      25.122   0.400  52.529  1.00  0.00    -0.345 OA
BRANCH  18  19
HETATM   19  C12 UNL     1      25.789   0.390  53.772  1.00  0.00     0.214 C 
BRANCH  19  20
HETATM   20  C13 UNL     1      27.035  -0.432  53.608  1.00  0.00    -0.034 A 
HETATM   21  C14 UNL     1      26.905  -1.646  52.928  1.00  0.00     0.009 A 
HETATM   22  C15 UNL     1      28.004  -2.467  52.733  1.00  0.00     0.001 A 
HETATM   23  C16 UNL     1      29.221  -2.066  53.218  1.00  0.00     0.000 A 
HETATM   24  C17 UNL     1      29.371  -0.860  53.899  1.00  0.00     0.001 A 
HETATM   25  C18 UNL     1      28.269  -0.048  54.089  1.00  0.00     0.009 A 
ENDBRANCH  19  20
ENDBRANCH  18  19
ENDBRANCH  14  18
ENDBRANCH   9  11
ENDBRANCH   8   9
BRANCH   6  26
HETATM   26  C5  UNL     1      29.616   7.147  47.488  1.00  0.00     0.290 C 
HETATM   27  O1  UNL     1      30.248   8.197  47.197  1.00  0.00    -0.300 OA
ENDBRANCH   6  26
TORSDOF 6
ENDMDL
MODEL 4
REMARK VINA RESULT:      -8.0      2.505      3.706
REMARK  6 active torsions:
REMARK  status: ('A' for Active; 'I' for Inactive)
REMARK    1  A    between atoms: C4_6  and  C5_7 
REMARK    2  A    between atoms: C7_10  and  N3_11 
REMARK    3  A    between atoms: N3_11  and  C8_12 
REMARK    4  A    between atoms: C11_15  and  O2_16 
REMARK    5  A    between atoms: O2_16  and  C12_17 
REMARK    6  A    between atoms: C12_17  and  C13_18 
ROOT
HETATM    1  N1  UNL     1      22.540  -0.260  52.941  1.00  0.00    -0.191 NA
HETATM    2  C1  UNL     1      23.651  -0.045  53.177  1.00  0.00     0.103 C 
HETATM    3  C2  UNL     1      25.030   0.239  53.456  1.00  0.00     0.088 A 
HETATM    4  C3  UNL     1      25.555  -0.400  54.576  1.00  0.00     0.142 A 
HETATM    5  N2  UNL     1      26.825  -0.176  54.889  1.00  0.00    -0.256 NA
HETATM    6  C4  UNL     1      27.636   0.633  54.185  1.00  0.00     0.096 A 
HETATM    7  C6  UNL     1      27.112   1.264  53.077  1.00  0.00     0.066 A 
HETATM    8  C7  UNL     1      25.805   1.096  52.670  1.00  0.00     0.057 A 
ENDROOT
BRANCH   8   9
HETATM    9  N3  UNL     1      25.228   1.718  51.551  1.00  0.00    -0.355 N 
HETATM   10  H4  UNL     1      24.525   0.997  51.231  1.00  0.00     0.166 HD
BRANCH   9  11
HETATM   11  C8  UNL     1      25.372   2.943  50.857  1.00  0.00     0.034 A 
HETATM   12  C9  UNL     1      26.379   3.074  49.921  1.00  0.00     0.032 A 
HETATM   13  C10 UNL     1      26.429   4.306  49.304  1.00  0.00     0.041 A 
HETATM   14  C11 UNL     1      25.589   5.364  49.542  1.00  0.00     0.091 A 
HETATM   15  C19 UNL     1      24.596   5.189  50.486  1.00  0.00     0.069 A 
HETATM   16 CL1  UNL     1      23.504   6.524  50.815  1.00  0.00    -0.081 Cl
HETATM   17  C20 UNL     1      24.499   3.974  51.137  1.00  0.00     0.056 A 
BRANCH  14  18
HETATM   18  O2  UNL     1      25.695   6.578  48.885  1.00  0.00    -0.345 OA
BRANCH  18  19
HETATM   19  C12 UNL     1      26.713   7.481  49.257  1.00  0.00     0.214 C 
BRANCH  19  20
HETATM   20  C13 UNL     1      27.632   7.634  48.079  1.00  0.00    -0.034 A 
HETATM   21  C14 UNL     1      28.916   7.096  48.206  1.00  0.00     0.009 A 
HETATM   22  C15 UNL     1      29.827   7.194  47.168  1.00  0.00     0.001 A 
HETATM   23  C16 UNL     1      29.447   7.826  46.013  1.00  0.00     0.000 A 
HETATM   24  C17 UNL     1      28.172   8.369  45.867  1.00  0.00     0.001 A 
HETATM   25  C18 UNL     1      27.270   8.266  46.908  1.00  0.00     0.009 A 
ENDBRANCH  19  20
ENDBRANCH  18  19
ENDBRANCH  14  18
ENDBRANCH   9  11
ENDBRANCH   8   9
BRANCH   6  26
HETATM   26  C5  UNL     1      29.038   0.861  54.556  1.00  0.00     0.290 C 
HETATM   27  O1  UNL     1      29.474   1.985  54.922  1.00  0.00    -0.300 OA
ENDBRANCH   6  26
TORSDOF 6
ENDMDL
MODEL 5
REMARK VINA RESULT:      -7.9      2.506      3.897
REMARK  6 active torsions:
REMARK  status: ('A' for Active; 'I' for Inactive)
REMARK    1  A    between atoms: C4_6  and  C5_7 
REMARK    2  A    between atoms: C7_10  and  N3_11 
REMARK    3  A    between atoms: N3_11  and  C8_12 
REMARK    4  A    between atoms: C11_15  and  O2_16 
REMARK    5  A    between atoms: O2_16  and  C12_17 
REMARK    6  A    between atoms: C12_17  and  C13_18 
ROOT
HETATM    1  N1  UNL     1      22.118  -0.627  53.176  1.00  0.00    -0.191 NA
HETATM    2  C1  UNL     1      23.233  -0.429  53.408  1.00  0.00     0.103 C 
HETATM    3  C2  UNL     1      24.617  -0.165  53.681  1.00  0.00     0.088 A 
HETATM    4  C3  UNL     1      25.137  -0.808  54.802  1.00  0.00     0.142 A 
HETATM    5  N2  UNL     1      26.411  -0.603  55.109  1.00  0.00    -0.256 NA
HETATM    6  C4  UNL     1      27.232   0.191  54.400  1.00  0.00     0.096 A 
HETATM    7  C6  UNL     1      26.714   0.826  53.291  1.00  0.00     0.066 A 
HETATM    8  C7  UNL     1      25.403   0.677  52.890  1.00  0.00     0.057 A 
ENDROOT
BRANCH   8   9
HETATM    9  N3  UNL     1      24.832   1.304  51.770  1.00  0.00    -0.355 N 
HETATM   10  H4  UNL     1      24.881   0.544  51.038  1.00  0.00     0.166 HD
BRANCH   9  11
HETATM   11  C8  UNL     1      24.279   2.569  51.461  1.00  0.00     0.034 A 
HETATM   12  C9  UNL     1      24.089   3.488  52.474  1.00  0.00     0.032 A 
HETATM   13  C10 UNL     1      23.547   4.687  52.064  1.00  0.00     0.041 A 
HETATM   14  C11 UNL     1      23.197   5.019  50.779  1.00  0.00     0.091 A 
HETATM   15  C19 UNL     1      23.404   4.070  49.798  1.00  0.00     0.069 A 
HETATM   16 CL1  UNL     1      22.967   4.463  48.143  1.00  0.00    -0.081 Cl
HETATM   17  C20 UNL     1      23.945   2.850  50.152  1.00  0.00     0.056 A 
BRANCH  14  18
HETATM   18  O2  UNL     1      22.655   6.246  50.435  1.00  0.00    -0.345 OA
BRANCH  18  19
HETATM   19  C12 UNL     1      23.410   7.420  50.643  1.00  0.00     0.214 C 
BRANCH  19  20
HETATM   20  C13 UNL     1      24.467   7.470  49.577  1.00  0.00    -0.034 A 
HETATM   21  C14 UNL     1      25.781   7.219  49.979  1.00  0.00     0.009 A 
HETATM   22  C15 UNL     1      26.818   7.246  49.060  1.00  0.00     0.001 A 
HETATM   23  C16 UNL     1      26.530   7.522  47.749  1.00  0.00     0.000 A 
HETATM   24  C17 UNL     1      25.226   7.775  47.329  1.00  0.00     0.001 A 
HETATM   25  C18 UNL     1      24.199   7.746  48.253  1.00  0.00     0.009 A 
ENDBRANCH  19  20
ENDBRANCH  18  19
ENDBRANCH  14  18
ENDBRANCH   9  11
ENDBRANCH   8   9
BRANCH   6  26
HETATM   26  C5  UNL     1      28.638   0.399  54.764  1.00  0.00     0.290 C 
HETATM   27  O1  UNL     1      29.094   1.517  55.121  1.00  0.00    -0.300 OA
ENDBRANCH   6  26
TORSDOF 6
ENDMDL
MODEL 6
REMARK VINA RESULT:      -7.9      2.764      3.956
REMARK  6 active torsions:
REMARK  status: ('A' for Active; 'I' for Inactive)
REMARK    1  A    between atoms: C4_6  and  C5_7 
REMARK    2  A    between atoms: C7_10  and  N3_11 
REMARK    3  A    between atoms: N3_11  and  C8_12 
REMARK    4  A    between atoms: C11_15  and  O2_16 
REMARK    5  A    between atoms: O2_16  and  C12_17 
REMARK    6  A    between atoms: C12_17  and  C13_18 
ROOT
HETATM    1  N1  UNL     1      22.235  -0.321  53.085  1.00  0.00    -0.191 NA
HETATM    2  C1  UNL     1      23.365  -0.214  53.307  1.00  0.00     0.103 C 
HETATM    3  C2  UNL     1      24.768  -0.064  53.565  1.00  0.00     0.088 A 
HETATM    4  C3  UNL     1      25.235  -0.706  54.709  1.00  0.00     0.142 A 
HETATM    5  N2  UNL     1      26.525  -0.602  55.005  1.00  0.00    -0.256 NA
HETATM    6  C4  UNL     1      27.408   0.087  54.263  1.00  0.00     0.096 A 
HETATM    7  C6  UNL     1      26.942   0.721  53.131  1.00  0.00     0.066 A 
HETATM    8  C7  UNL     1      25.621   0.673  52.739  1.00  0.00     0.057 A 
ENDROOT
BRANCH   8   9
HETATM    9  N3  UNL     1      25.100   1.305  51.596  1.00  0.00    -0.355 N 
HETATM   10  H4  UNL     1      24.579   0.516  51.123  1.00  0.00     0.166 HD
BRANCH   9  11
HETATM   11  C8  UNL     1      25.125   2.599  51.027  1.00  0.00     0.034 A 
HETATM   12  C9  UNL     1      24.067   3.457  51.255  1.00  0.00     0.032 A 
HETATM   13  C10 UNL     1      24.194   4.692  50.655  1.00  0.00     0.041 A 
HETATM   14  C11 UNL     1      25.247   5.112  49.882  1.00  0.00     0.091 A 
HETATM   15  C19 UNL     1      26.283   4.221  49.680  1.00  0.00     0.069 A 
HETATM   16 CL1  UNL     1      27.645   4.726  48.695  1.00  0.00    -0.081 Cl
HETATM   17  C20 UNL     1      26.209   2.968  50.257  1.00  0.00     0.056 A 
BRANCH  14  18
HETATM   18  O2  UNL     1      25.311   6.370  49.308  1.00  0.00    -0.345 OA
BRANCH  18  19
HETATM   19  C12 UNL     1      25.589   7.489  50.120  1.00  0.00     0.214 C 
BRANCH  19  20
HETATM   20  C13 UNL     1      26.639   8.303  49.420  1.00  0.00    -0.034 A 
HETATM   21  C14 UNL     1      26.731   8.158  48.033  1.00  0.00     0.009 A 
HETATM   22  C15 UNL     1      27.672   8.870  47.309  1.00  0.00     0.001 A 
HETATM   23  C16 UNL     1      28.512   9.722  47.978  1.00  0.00     0.000 A 
HETATM   24  C17 UNL     1      28.437   9.881  49.359  1.00  0.00     0.001 A 
HETATM   25  C18 UNL     1      27.495   9.166  50.073  1.00  0.00     0.009 A 
ENDBRANCH  19  20
ENDBRANCH  18  19
ENDBRANCH  14  18
ENDBRANCH   9  11
ENDBRANCH   8   9
BRANCH   6  26
HETATM   26  C5  UNL     1      28.830   0.183  54.615  1.00  0.00     0.290 C 
HETATM   27  O1  UNL     1      29.701  -0.603  54.157  1.00  0.00    -0.300 OA
ENDBRANCH   6  26
TORSDOF 6
ENDMDL
MODEL 7
REMARK VINA RESULT:      -7.8      4.090      9.771
REMARK  6 active torsions:
REMARK  status: ('A' for Active; 'I' for Inactive)
REMARK    1  A    between atoms: C4_6  and  C5_7 
REMARK    2  A    between atoms: C7_10  and  N3_11 
REMARK    3  A    between atoms: N3_11  and  C8_12 
REMARK    4  A    between atoms: C11_15  and  O2_16 
REMARK    5  A    between atoms: O2_16  and  C12_17 
REMARK    6  A    between atoms: C12_17  and  C13_18 
ROOT
HETATM    1  N1  UNL     1      27.136   9.892  50.045  1.00  0.00    -0.191 NA
HETATM    2  C1  UNL     1      28.046   9.334  49.601  1.00  0.00     0.103 C 
HETATM    3  C2  UNL     1      29.161   8.628  49.038  1.00  0.00     0.088 A 
HETATM    4  C3  UNL     1      30.406   9.215  49.249  1.00  0.00     0.142 A 
HETATM    5  N2  UNL     1      31.478   8.611  48.751  1.00  0.00    -0.256 NA
HETATM    6  C4  UNL     1      31.431   7.463  48.053  1.00  0.00     0.096 A 
HETATM    7  C6  UNL     1      30.196   6.885  47.846  1.00  0.00     0.066 A 
HETATM    8  C7  UNL     1      29.025   7.435  48.323  1.00  0.00     0.057 A 
ENDROOT
BRANCH   8   9
HETATM    9  N3  UNL     1      27.746   6.883  48.136  1.00  0.00    -0.355 N 
HETATM   10  H4  UNL     1      27.367   7.463  47.338  1.00  0.00     0.166 HD
BRANCH   9  11
HETATM   11  C8  UNL     1      26.968   5.854  48.715  1.00  0.00     0.034 A 
HETATM   12  C9  UNL     1      27.494   4.580  48.805  1.00  0.00     0.032 A 
HETATM   13  C10 UNL     1      26.653   3.654  49.386  1.00  0.00     0.041 A 
HETATM   14  C11 UNL     1      25.388   3.897  49.860  1.00  0.00     0.091 A 
HETATM   15  C19 UNL     1      24.902   5.184  49.749  1.00  0.00     0.069 A 
HETATM   16 CL1  UNL     1      23.286   5.527  50.344  1.00  0.00    -0.081 Cl
HETATM   17  C20 UNL     1      25.702   6.153  49.174  1.00  0.00     0.056 A 
BRANCH  14  18
HETATM   18  O2  UNL     1      24.595   2.918  50.434  1.00  0.00    -0.345 OA
BRANCH  18  19
HETATM   19  C12 UNL     1      24.881   2.472  51.741  1.00  0.00     0.214 C 
BRANCH  19  20
HETATM   20  C13 UNL     1      23.875   1.411  52.085  1.00  0.00    -0.034 A 
HETATM   21  C14 UNL     1      24.230   0.506  53.090  1.00  0.00     0.009 A 
HETATM   22  C15 UNL     1      23.362  -0.504  53.468  1.00  0.00     0.001 A 
HETATM   23  C16 UNL     1      22.147  -0.600  52.841  1.00  0.00     0.000 A 
HETATM   24  C17 UNL     1      21.775   0.292  51.838  1.00  0.00     0.001 A 
HETATM   25  C18 UNL     1      22.648   1.296  51.467  1.00  0.00     0.009 A 
ENDBRANCH  19  20
ENDBRANCH  18  19
ENDBRANCH  14  18
ENDBRANCH   9  11
ENDBRANCH   8   9
BRANCH   6  26
HETATM   26  C5  UNL     1      32.634   6.818  47.514  1.00  0.00     0.290 C 
HETATM   27  O1  UNL     1      33.714   6.740  48.158  1.00  0.00    -0.300 OA
ENDBRANCH   6  26
TORSDOF 6
ENDMDL
MODEL 8
REMARK VINA RESULT:      -7.8      2.068      2.877
REMARK  6 active torsions:
REMARK  status: ('A' for Active; 'I' for Inactive)
REMARK    1  A    between atoms: C4_6  and  C5_7 
REMARK    2  A    between atoms: C7_10  and  N3_11 
REMARK    3  A    between atoms: N3_11  and  C8_12 
REMARK    4  A    between atoms: C11_15  and  O2_16 
REMARK    5  A    between atoms: O2_16  and  C12_17 
REMARK    6  A    between atoms: C12_17  and  C13_18 
ROOT
HETATM    1  N1  UNL     1      28.192   2.255  52.726  1.00  0.00    -0.191 NA
HETATM    2  C1  UNL     1      27.345   1.604  53.168  1.00  0.00     0.103 C 
HETATM    3  C2  UNL     1      26.283   0.797  53.696  1.00  0.00     0.088 A 
HETATM    4  C3  UNL     1      26.587   0.098  54.861  1.00  0.00     0.142 A 
HETATM    5  N2  UNL     1      25.647  -0.668  55.398  1.00  0.00    -0.256 NA
HETATM    6  C4  UNL     1      24.413  -0.809  54.882  1.00  0.00     0.096 A 
HETATM    7  C6  UNL     1      24.116  -0.115  53.729  1.00  0.00     0.066 A 
HETATM    8  C7  UNL     1      25.024   0.706  53.095  1.00  0.00     0.057 A 
ENDROOT
BRANCH   8   9
HETATM    9  N3  UNL     1      24.766   1.431  51.919  1.00  0.00    -0.355 N 
HETATM   10  H4  UNL     1      25.098   0.764  51.169  1.00  0.00     0.166 HD
BRANCH   9  11
HETATM   11  C8  UNL     1      24.228   2.693  51.578  1.00  0.00     0.034 A 
HETATM   12  C9  UNL     1      24.034   3.635  52.570  1.00  0.00     0.032 A 
HETATM   13  C10 UNL     1      23.506   4.830  52.128  1.00  0.00     0.041 A 
HETATM   14  C11 UNL     1      23.176   5.138  50.832  1.00  0.00     0.091 A 
HETATM   15  C19 UNL     1      23.386   4.167  49.873  1.00  0.00     0.069 A 
HETATM   16 CL1  UNL     1      22.972   4.529  48.206  1.00  0.00    -0.081 Cl
HETATM   17  C20 UNL     1      23.913   2.949  50.259  1.00  0.00     0.056 A 
BRANCH  14  18
HETATM   18  O2  UNL     1      22.648   6.361  50.457  1.00  0.00    -0.345 OA
BRANCH  18  19
HETATM   19  C12 UNL     1      23.406   7.534  50.658  1.00  0.00     0.214 C 
BRANCH  19  20
HETATM   20  C13 UNL     1      24.532   7.518  49.664  1.00  0.00    -0.034 A 
HETATM   21  C14 UNL     1      24.209   7.824  48.339  1.00  0.00     0.009 A 
HETATM   22  C15 UNL     1      25.186   7.831  47.358  1.00  0.00     0.001 A 
HETATM   23  C16 UNL     1      26.477   7.534  47.710  1.00  0.00     0.000 A 
HETATM   24  C17 UNL     1      26.819   7.227  49.025  1.00  0.00     0.001 A 
HETATM   25  C18 UNL     1      25.838   7.222  49.996  1.00  0.00     0.009 A 
ENDBRANCH  19  20
ENDBRANCH  18  19
ENDBRANCH  14  18
ENDBRANCH   9  11
ENDBRANCH   8   9
BRANCH   6  26
HETATM   26  C5  UNL     1      23.393  -1.664  55.499  1.00  0.00     0.290 C 
HETATM   27  O1  UNL     1      22.158  -1.497  55.313  1.00  0.00    -0.300 OA
ENDBRANCH   6  26
TORSDOF 6
ENDMDL
MODEL 9
REMARK VINA RESULT:      -7.8      5.196      7.092
REMARK  6 active torsions:
REMARK  status: ('A' for Active; 'I' for Inactive)
REMARK    1  A    between atoms: C4_6  and  C5_7 
REMARK    2  A    between atoms: C7_10  and  N3_11 
REMARK    3  A    between atoms: N3_11  and  C8_12 
REMARK    4  A    between atoms: C11_15  and  O2_16 
REMARK    5  A    between atoms: O2_16  and  C12_17 
REMARK    6  A    between atoms: C12_17  and  C13_18 
ROOT
HETATM    1  N1  UNL     1      18.033  -1.660  53.441  1.00  0.00    -0.191 NA
HETATM    2  C1  UNL     1      18.107  -0.855  52.614  1.00  0.00     0.103 C 
HETATM    3  C2  UNL     1      18.219   0.148  51.595  1.00  0.00     0.088 A 
HETATM    4  C3  UNL     1      17.280   0.067  50.571  1.00  0.00     0.142 A 
HETATM    5  N2  UNL     1      17.332   0.966  49.596  1.00  0.00    -0.256 NA
HETATM    6  C4  UNL     1      18.242   1.954  49.540  1.00  0.00     0.096 A 
HETATM    7  C6  UNL     1      19.171   2.032  50.556  1.00  0.00     0.066 A 
HETATM    8  C7  UNL     1      19.199   1.145  51.612  1.00  0.00     0.057 A 
ENDROOT
BRANCH   8   9
HETATM    9  N3  UNL     1      20.126   1.184  52.667  1.00  0.00    -0.355 N 
HETATM   10  H4  UNL     1      19.604   1.734  53.404  1.00  0.00     0.166 HD
BRANCH   9  11
HETATM   11  C8  UNL     1      21.434   0.706  52.915  1.00  0.00     0.034 A 
HETATM   12  C9  UNL     1      22.457   1.065  52.059  1.00  0.00     0.032 A 
HETATM   13  C10 UNL     1      23.690   0.547  52.392  1.00  0.00     0.041 A 
HETATM   14  C11 UNL     1      23.963  -0.264  53.465  1.00  0.00     0.091 A 
HETATM   15  C19 UNL     1      22.910  -0.598  54.294  1.00  0.00     0.069 A 
HETATM   16 CL1  UNL     1      23.225  -1.636  55.675  1.00  0.00    -0.081 Cl
HETATM   17  C20 UNL     1      21.651  -0.107  54.008  1.00  0.00     0.056 A 
BRANCH  14  18
HETATM   18  O2  UNL     1      25.228  -0.752  53.743  1.00  0.00    -0.345 OA
BRANCH  18  19
HETATM   19  C12 UNL     1      26.099  -1.065  52.678  1.00  0.00     0.214 C 
BRANCH  19  20
HETATM   20  C13 UNL     1      27.457  -0.532  53.036  1.00  0.00    -0.034 A 
HETATM   21  C14 UNL     1      28.473  -1.472  53.231  1.00  0.00     0.009 A 
HETATM   22  C15 UNL     1      29.755  -1.067  53.565  1.00  0.00     0.001 A 
HETATM   23  C16 UNL     1      30.009   0.273  53.699  1.00  0.00     0.000 A 
HETATM   24  C17 UNL     1      29.011   1.225  53.508  1.00  0.00     0.001 A 
HETATM   25  C18 UNL     1      27.735   0.811  53.175  1.00  0.00     0.009 A 
ENDBRANCH  19  20
ENDBRANCH  18  19
ENDBRANCH  14  18
ENDBRANCH   9  11
ENDBRANCH   8   9
BRANCH   6  26
HETATM   26  C5  UNL     1      18.275   2.935  48.449  1.00  0.00     0.290 C 
HETATM   27  O1  UNL     1      18.870   4.041  48.543  1.00  0.00    -0.300 OA
ENDBRANCH   6  26
TORSDOF 6
ENDMDL
