MODEL 1
REMARK VINA RESULT:      -8.9      0.000      0.000
REMARK  4 active torsions:
REMARK  status: ('A' for Active; 'I' for Inactive)
REMARK    1  A    between atoms: C2_2  and  C3_4 
REMARK    2  A    between atoms: C5_6  and  C6_7 
REMARK    3  A    between atoms: C16_19  and  C17_20 
REMARK    4  A    between atoms: C20_23  and  O3_24 
ROOT
HETATM    1  C3  UNL     1      21.125   0.672  52.711  1.00  0.00     0.044 A 
HETATM    2  C4  UNL     1      22.357   0.068  52.790  1.00  0.00     0.029 A 
HETATM    3  C5  UNL     1      23.595   0.715  52.686  1.00  0.00    -0.034 A 
HETATM    4  C15 UNL     1      23.475   2.082  52.484  1.00  0.00     0.021 A 
HETATM    5  C16 UNL     1      22.268   2.748  52.396  1.00  0.00    -0.020 A 
HETATM    6  C20 UNL     1      21.111   2.020  52.512  1.00  0.00     0.086 A 
ENDROOT
BRANCH   3   7
HETATM    7  C6  UNL     1      24.845  -0.014  52.769  1.00  0.00     0.029 C 
HETATM    8  C7  UNL     1      26.020   0.294  53.277  1.00  0.00     0.045 A 
HETATM    9  C8  UNL     1      26.516   1.482  53.951  1.00  0.00     0.257 A 
HETATM   10  C14 UNL     1      27.153  -0.616  53.236  1.00  0.00     0.006 A 
HETATM   11  O2  UNL     1      25.859   2.522  54.200  1.00  0.00    -0.267 OA
HETATM   12  N1  UNL     1      27.887   1.322  54.311  1.00  0.00    -0.322 N 
HETATM   13  C9  UNL     1      28.213   0.019  53.844  1.00  0.00     0.046 A 
HETATM   14  H6  UNL     1      28.514   1.997  54.802  1.00  0.00     0.169 HD
HETATM   15  C10 UNL     1      29.414  -0.642  53.934  1.00  0.00     0.030 A 
HETATM   16  C11 UNL     1      29.618  -1.931  53.440  1.00  0.00     0.002 A 
HETATM   17  C12 UNL     1      28.556  -2.542  52.840  1.00  0.00     0.001 A 
HETATM   18  C13 UNL     1      27.343  -1.898  52.739  1.00  0.00     0.015 A 
ENDBRANCH   3   7
BRANCH   1  19
HETATM   19  C2  UNL     1      19.887  -0.076  52.829  1.00  0.00     0.158 C 
HETATM   20  C1  UNL     1      19.641  -1.121  53.851  1.00  0.00     0.097 C 
HETATM   21  O1  UNL     1      18.956   0.181  52.001  1.00  0.00    -0.293 OA
ENDBRANCH   1  19
BRANCH   5  22
HETATM   22  C17 UNL     1      22.243   4.227  52.182  1.00  0.00     0.013 C 
HETATM   23  C18 UNL     1      23.465   4.784  52.888  1.00  0.00     0.015 C 
HETATM   24  C19 UNL     1      22.254   4.654  50.765  1.00  0.00     0.015 C 
ENDBRANCH   5  22
BRANCH   6  25
HETATM   25  O3  UNL     1      19.898   2.687  52.423  1.00  0.00    -0.359 OA
HETATM   26  H19 UNL     1      19.043   2.309  52.052  1.00  0.00     0.217 HD
ENDBRANCH   6  25
TORSDOF 4
ENDMDL
MODEL 2
REMARK VINA RESULT:      -8.9      2.739      7.169
REMARK  4 active torsions:
REMARK  status: ('A' for Active; 'I' for Inactive)
REMARK    1  A    between atoms: C2_2  and  C3_4 
REMARK    2  A    between atoms: C5_6  and  C6_7 
REMARK    3  A    between atoms: C16_19  and  C17_20 
REMARK    4  A    between atoms: C20_23  and  O3_24 
ROOT
HETATM    1  C3  UNL     1      25.248   3.062  50.917  1.00  0.00     0.044 A 
HETATM    2  C4  UNL     1      23.959   2.586  50.943  1.00  0.00     0.029 A 
HETATM    3  C5  UNL     1      23.518   1.454  51.641  1.00  0.00    -0.034 A 
HETATM    4  C15 UNL     1      24.535   0.819  52.338  1.00  0.00     0.021 A 
HETATM    5  C16 UNL     1      25.848   1.247  52.351  1.00  0.00    -0.020 A 
HETATM    6  C20 UNL     1      26.176   2.368  51.634  1.00  0.00     0.086 A 
ENDROOT
BRANCH   3   7
HETATM    7  C6  UNL     1      22.135   1.022  51.596  1.00  0.00     0.029 C 
HETATM    8  C7  UNL     1      21.383   0.360  52.450  1.00  0.00     0.045 A 
HETATM    9  C8  UNL     1      21.650  -0.192  53.767  1.00  0.00     0.257 A 
HETATM   10  C14 UNL     1      19.995   0.028  52.177  1.00  0.00     0.006 A 
HETATM   11  O2  UNL     1      22.736  -0.130  54.391  1.00  0.00    -0.267 OA
HETATM   12  N1  UNL     1      20.488  -0.835  54.289  1.00  0.00    -0.322 N 
HETATM   13  C9  UNL     1      19.515  -0.664  53.266  1.00  0.00     0.046 A 
HETATM   14  H6  UNL     1      20.369  -1.322  55.206  1.00  0.00     0.169 HD
HETATM   15  C10 UNL     1      18.210  -1.093  53.252  1.00  0.00     0.030 A 
HETATM   16  C11 UNL     1      17.339  -0.863  52.187  1.00  0.00     0.002 A 
HETATM   17  C12 UNL     1      17.834  -0.176  51.117  1.00  0.00     0.001 A 
HETATM   18  C13 UNL     1      19.138   0.263  51.109  1.00  0.00     0.015 A 
ENDBRANCH   3   7
BRANCH   1  19
HETATM   19  C2  UNL     1      25.620   4.246  50.164  1.00  0.00     0.158 C 
HETATM   20  C1  UNL     1      24.932   5.554  50.277  1.00  0.00     0.097 C 
HETATM   21  O1  UNL     1      26.598   4.152  49.356  1.00  0.00    -0.293 OA
ENDBRANCH   1  19
BRANCH   5  22
HETATM   22  C17 UNL     1      26.873   0.494  53.138  1.00  0.00     0.013 C 
HETATM   23  C18 UNL     1      26.427   0.549  54.587  1.00  0.00     0.015 C 
HETATM   24  C19 UNL     1      27.059  -0.916  52.733  1.00  0.00     0.015 C 
ENDBRANCH   5  22
BRANCH   6  25
HETATM   25  O3  UNL     1      27.494   2.800  51.646  1.00  0.00    -0.359 OA
HETATM   26  H19 UNL     1      27.960   3.255  52.413  1.00  0.00     0.217 HD
ENDBRANCH   6  25
TORSDOF 4
ENDMDL
MODEL 3
REMARK VINA RESULT:      -8.9      2.632      6.790
REMARK  4 active torsions:
REMARK  status: ('A' for Active; 'I' for Inactive)
REMARK    1  A    between atoms: C2_2  and  C3_4 
REMARK    2  A    between atoms: C5_6  and  C6_7 
REMARK    3  A    between atoms: C16_19  and  C17_20 
REMARK    4  A    between atoms: C20_23  and  O3_24 
ROOT
HETATM    1  C3  UNL     1      25.476   0.029  53.564  1.00  0.00     0.044 A 
HETATM    2  C4  UNL     1      25.144   0.928  52.580  1.00  0.00     0.029 A 
HETATM    3  C5  UNL     1      23.845   1.326  52.238  1.00  0.00    -0.034 A 
HETATM    4  C15 UNL     1      22.871   0.708  53.007  1.00  0.00     0.021 A 
HETATM    5  C16 UNL     1      23.139  -0.203  54.009  1.00  0.00    -0.020 A 
HETATM    6  C20 UNL     1      24.447  -0.524  54.267  1.00  0.00     0.086 A 
ENDROOT
BRANCH   3   7
HETATM    7  C6  UNL     1      23.595   2.275  51.171  1.00  0.00     0.029 C 
HETATM    8  C7  UNL     1      23.489   3.587  51.157  1.00  0.00     0.045 A 
HETATM    9  C8  UNL     1      23.584   4.589  52.205  1.00  0.00     0.257 A 
HETATM   10  C14 UNL     1      23.223   4.338  49.941  1.00  0.00     0.006 A 
HETATM   11  O2  UNL     1      23.808   4.373  53.420  1.00  0.00    -0.267 OA
HETATM   12  N1  UNL     1      23.386   5.897  51.671  1.00  0.00    -0.322 N 
HETATM   13  C9  UNL     1      23.170   5.670  50.283  1.00  0.00     0.046 A 
HETATM   14  H6  UNL     1      23.395   6.814  52.171  1.00  0.00     0.169 HD
HETATM   15  C10 UNL     1      22.928   6.596  49.297  1.00  0.00     0.030 A 
HETATM   16  C11 UNL     1      22.733   6.255  47.958  1.00  0.00     0.002 A 
HETATM   17  C12 UNL     1      22.788   4.929  47.639  1.00  0.00     0.001 A 
HETATM   18  C13 UNL     1      23.030   3.985  48.612  1.00  0.00     0.015 A 
ENDBRANCH   3   7
BRANCH   1  19
HETATM   19  C2  UNL     1      26.853  -0.329  53.854  1.00  0.00     0.158 C 
HETATM   20  C1  UNL     1      27.788  -0.909  52.861  1.00  0.00     0.097 C 
HETATM   21  O1  UNL     1      27.282  -0.132  55.035  1.00  0.00    -0.293 OA
ENDBRANCH   1  19
BRANCH   5  22
HETATM   22  C17 UNL     1      22.017  -0.812  54.788  1.00  0.00     0.013 C 
HETATM   23  C18 UNL     1      20.901   0.215  54.807  1.00  0.00     0.015 C 
HETATM   24  C19 UNL     1      21.503  -2.090  54.247  1.00  0.00     0.015 C 
ENDBRANCH   5  22
BRANCH   6  25
HETATM   25  O3  UNL     1      24.719  -1.440  55.272  1.00  0.00    -0.359 OA
HETATM   26  H19 UNL     1      25.279  -1.269  56.091  1.00  0.00     0.217 HD
ENDBRANCH   6  25
TORSDOF 4
ENDMDL
MODEL 4
REMARK VINA RESULT:      -8.8      3.236      6.237
REMARK  4 active torsions:
REMARK  status: ('A' for Active; 'I' for Inactive)
REMARK    1  A    between atoms: C2_2  and  C3_4 
REMARK    2  A    between atoms: C5_6  and  C6_7 
REMARK    3  A    between atoms: C16_19  and  C17_20 
REMARK    4  A    between atoms: C20_23  and  O3_24 
ROOT
HETATM    1  C3  UNL     1      24.835   0.184  52.860  1.00  0.00     0.044 A 
HETATM    2  C4  UNL     1      25.236   1.300  52.167  1.00  0.00     0.029 A 
HETATM    3  C5  UNL     1      24.398   2.165  51.452  1.00  0.00    -0.034 A 
HETATM    4  C15 UNL     1      23.065   1.788  51.498  1.00  0.00     0.021 A 
HETATM    5  C16 UNL     1      22.599   0.678  52.175  1.00  0.00    -0.020 A 
HETATM    6  C20 UNL     1      23.503  -0.105  52.846  1.00  0.00     0.086 A 
ENDROOT
BRANCH   3   7
HETATM    7  C6  UNL     1      24.920   3.315  50.739  1.00  0.00     0.029 C 
HETATM    8  C7  UNL     1      24.786   4.611  50.926  1.00  0.00     0.045 A 
HETATM    9  C8  UNL     1      24.066   5.389  51.919  1.00  0.00     0.257 A 
HETATM   10  C14 UNL     1      25.412   5.596  50.058  1.00  0.00     0.006 A 
HETATM   11  O2  UNL     1      23.384   4.932  52.867  1.00  0.00    -0.267 OA
HETATM   12  N1  UNL     1      24.232   6.786  51.683  1.00  0.00    -0.322 N 
HETATM   13  C9  UNL     1      25.065   6.841  50.531  1.00  0.00     0.046 A 
HETATM   14  H6  UNL     1      23.839   7.590  52.223  1.00  0.00     0.169 HD
HETATM   15  C10 UNL     1      25.537   7.952  49.875  1.00  0.00     0.030 A 
HETATM   16  C11 UNL     1      26.356   7.885  48.747  1.00  0.00     0.002 A 
HETATM   17  C12 UNL     1      26.688   6.641  48.293  1.00  0.00     0.001 A 
HETATM   18  C13 UNL     1      26.226   5.515  48.936  1.00  0.00     0.015 A 
ENDBRANCH   3   7
BRANCH   1  19
HETATM   19  C2  UNL     1      25.773  -0.661  53.576  1.00  0.00     0.158 C 
HETATM   20  C1  UNL     1      26.942  -1.323  52.949  1.00  0.00     0.097 C 
HETATM   21  O1  UNL     1      25.577  -0.846  54.819  1.00  0.00    -0.293 OA
ENDBRANCH   1  19
BRANCH   5  22
HETATM   22  C17 UNL     1      21.138   0.356  52.169  1.00  0.00     0.013 C 
HETATM   23  C18 UNL     1      20.506   1.210  53.252  1.00  0.00     0.015 C 
HETATM   24  C19 UNL     1      20.450   0.601  50.883  1.00  0.00     0.015 C 
ENDBRANCH   5  22
BRANCH   6  25
HETATM   25  O3  UNL     1      23.037  -1.219  53.527  1.00  0.00    -0.359 OA
HETATM   26  H19 UNL     1      22.647  -1.225  54.454  1.00  0.00     0.217 HD
ENDBRANCH   6  25
TORSDOF 4
ENDMDL
MODEL 5
REMARK VINA RESULT:      -8.5      3.910      6.242
REMARK  4 active torsions:
REMARK  status: ('A' for Active; 'I' for Inactive)
REMARK    1  A    between atoms: C2_2  and  C3_4 
REMARK    2  A    between atoms: C5_6  and  C6_7 
REMARK    3  A    between atoms: C16_19  and  C17_20 
REMARK    4  A    between atoms: C20_23  and  O3_24 
ROOT
HETATM    1  C3  UNL     1      23.523   1.067  51.929  1.00  0.00     0.044 A 
HETATM    2  C4  UNL     1      24.226   1.984  51.186  1.00  0.00     0.029 A 
HETATM    3  C5  UNL     1      25.615   2.164  51.209  1.00  0.00    -0.034 A 
HETATM    4  C15 UNL     1      26.258   1.304  52.086  1.00  0.00     0.021 A 
HETATM    5  C16 UNL     1      25.609   0.362  52.860  1.00  0.00    -0.020 A 
HETATM    6  C20 UNL     1      24.244   0.265  52.763  1.00  0.00     0.086 A 
ENDROOT
BRANCH   3   7
HETATM    7  C6  UNL     1      26.266   3.172  50.393  1.00  0.00     0.029 C 
HETATM    8  C7  UNL     1      25.931   4.402  50.068  1.00  0.00     0.045 A 
HETATM    9  C8  UNL     1      24.782   5.226  50.403  1.00  0.00     0.257 A 
HETATM   10  C14 UNL     1      26.757   5.238  49.212  1.00  0.00     0.006 A 
HETATM   11  O2  UNL     1      23.816   4.892  51.129  1.00  0.00    -0.267 OA
HETATM   12  N1  UNL     1      24.885   6.509  49.786  1.00  0.00    -0.322 N 
HETATM   13  C9  UNL     1      26.115   6.447  49.074  1.00  0.00     0.046 A 
HETATM   14  H6  UNL     1      24.220   7.313  49.839  1.00  0.00     0.169 HD
HETATM   15  C10 UNL     1      26.701   7.421  48.303  1.00  0.00     0.030 A 
HETATM   16  C11 UNL     1      27.921   7.249  47.648  1.00  0.00     0.002 A 
HETATM   17  C12 UNL     1      28.541   6.043  47.796  1.00  0.00     0.001 A 
HETATM   18  C13 UNL     1      27.972   5.053  48.565  1.00  0.00     0.015 A 
ENDBRANCH   3   7
BRANCH   1  19
HETATM   19  C2  UNL     1      22.079   0.946  51.846  1.00  0.00     0.158 C 
HETATM   20  C1  UNL     1      21.338   0.676  50.590  1.00  0.00     0.097 C 
HETATM   21  O1  UNL     1      21.408   1.083  52.918  1.00  0.00    -0.293 OA
ENDBRANCH   1  19
BRANCH   5  22
HETATM   22  C17 UNL     1      26.393  -0.524  53.774  1.00  0.00     0.013 C 
HETATM   23  C18 UNL     1      27.357  -1.301  52.897  1.00  0.00     0.015 C 
HETATM   24  C19 UNL     1      27.148   0.181  54.832  1.00  0.00     0.015 C 
ENDBRANCH   5  22
BRANCH   6  25
HETATM   25  O3  UNL     1      23.591  -0.680  53.540  1.00  0.00    -0.359 OA
HETATM   26  H19 UNL     1      23.842  -1.650  53.625  1.00  0.00     0.217 HD
ENDBRANCH   6  25
TORSDOF 4
ENDMDL
MODEL 6
REMARK VINA RESULT:      -8.5      2.725      6.776
REMARK  4 active torsions:
REMARK  status: ('A' for Active; 'I' for Inactive)
REMARK    1  A    between atoms: C2_2  and  C3_4 
REMARK    2  A    between atoms: C5_6  and  C6_7 
REMARK    3  A    between atoms: C16_19  and  C17_20 
REMARK    4  A    between atoms: C20_23  and  O3_24 
ROOT
HETATM    1  C3  UNL     1      25.742   1.294  52.512  1.00  0.00     0.044 A 
HETATM    2  C4  UNL     1      24.423   0.931  52.382  1.00  0.00     0.029 A 
HETATM    3  C5  UNL     1      23.471   1.579  51.585  1.00  0.00    -0.034 A 
HETATM    4  C15 UNL     1      23.987   2.672  50.906  1.00  0.00     0.021 A 
HETATM    5  C16 UNL     1      25.301   3.088  50.995  1.00  0.00    -0.020 A 
HETATM    6  C20 UNL     1      26.155   2.383  51.804  1.00  0.00     0.086 A 
ENDROOT
BRANCH   3   7
HETATM    7  C6  UNL     1      22.094   1.126  51.524  1.00  0.00     0.029 C 
HETATM    8  C7  UNL     1      21.334   0.479  52.381  1.00  0.00     0.045 A 
HETATM    9  C8  UNL     1      21.578  -0.028  53.721  1.00  0.00     0.257 A 
HETATM   10  C14 UNL     1      19.956   0.119  52.089  1.00  0.00     0.006 A 
HETATM   11  O2  UNL     1      22.650   0.069  54.366  1.00  0.00    -0.267 OA
HETATM   12  N1  UNL     1      20.415  -0.671  54.237  1.00  0.00    -0.322 N 
HETATM   13  C9  UNL     1      19.462  -0.546  53.188  1.00  0.00     0.046 A 
HETATM   14  H6  UNL     1      20.282  -1.131  55.165  1.00  0.00     0.169 HD
HETATM   15  C10 UNL     1      18.164  -0.994  53.159  1.00  0.00     0.030 A 
HETATM   16  C11 UNL     1      17.313  -0.810  52.069  1.00  0.00     0.002 A 
HETATM   17  C12 UNL     1      17.822  -0.149  50.988  1.00  0.00     0.001 A 
HETATM   18  C13 UNL     1      19.120   0.309  50.996  1.00  0.00     0.015 A 
ENDBRANCH   3   7
BRANCH   1  19
HETATM   19  C2  UNL     1      26.665   0.565  53.363  1.00  0.00     0.158 C 
HETATM   20  C1  UNL     1      27.162  -0.801  53.073  1.00  0.00     0.097 C 
HETATM   21  O1  UNL     1      27.072   1.136  54.424  1.00  0.00    -0.293 OA
ENDBRANCH   1  19
BRANCH   5  22
HETATM   22  C17 UNL     1      25.764   4.279  50.218  1.00  0.00     0.013 C 
HETATM   23  C18 UNL     1      26.746   3.762  49.184  1.00  0.00     0.015 C 
HETATM   24  C19 UNL     1      24.690   5.039  49.542  1.00  0.00     0.015 C 
ENDBRANCH   5  22
BRANCH   6  25
HETATM   25  O3  UNL     1      27.475   2.799  51.895  1.00  0.00    -0.359 OA
HETATM   26  H19 UNL     1      27.912   3.202  52.706  1.00  0.00     0.217 HD
ENDBRANCH   6  25
TORSDOF 4
ENDMDL
MODEL 7
REMARK VINA RESULT:      -8.3      7.644      8.697
REMARK  4 active torsions:
REMARK  status: ('A' for Active; 'I' for Inactive)
REMARK    1  A    between atoms: C2_2  and  C3_4 
REMARK    2  A    between atoms: C5_6  and  C6_7 
REMARK    3  A    between atoms: C16_19  and  C17_20 
REMARK    4  A    between atoms: C20_23  and  O3_24 
ROOT
HETATM    1  C3  UNL     1      26.719   5.408  48.956  1.00  0.00     0.044 A 
HETATM    2  C4  UNL     1      27.932   4.912  48.542  1.00  0.00     0.029 A 
HETATM    3  C5  UNL     1      29.020   5.674  48.098  1.00  0.00    -0.034 A 
HETATM    4  C15 UNL     1      28.765   7.037  48.107  1.00  0.00     0.021 A 
HETATM    5  C16 UNL     1      27.569   7.597  48.510  1.00  0.00    -0.020 A 
HETATM    6  C20 UNL     1      26.565   6.762  48.929  1.00  0.00     0.086 A 
ENDROOT
BRANCH   3   7
HETATM    7  C6  UNL     1      30.259   5.055  47.668  1.00  0.00     0.029 C 
HETATM    8  C7  UNL     1      31.498   5.158  48.098  1.00  0.00     0.045 A 
HETATM    9  C8  UNL     1      32.103   5.928  49.171  1.00  0.00     0.257 A 
HETATM   10  C14 UNL     1      32.600   4.429  47.491  1.00  0.00     0.006 A 
HETATM   11  O2  UNL     1      31.504   6.702  49.957  1.00  0.00    -0.267 OA
HETATM   12  N1  UNL     1      33.508   5.694  49.230  1.00  0.00    -0.322 N 
HETATM   13  C9  UNL     1      33.745   4.769  48.176  1.00  0.00     0.046 A 
HETATM   14  H6  UNL     1      34.210   6.101  49.889  1.00  0.00     0.169 HD
HETATM   15  C10 UNL     1      34.937   4.205  47.789  1.00  0.00     0.030 A 
HETATM   16  C11 UNL     1      35.050   3.300  46.734  1.00  0.00     0.002 A 
HETATM   17  C12 UNL     1      33.903   2.977  46.067  1.00  0.00     0.001 A 
HETATM   18  C13 UNL     1      32.698   3.530  46.438  1.00  0.00     0.015 A 
ENDBRANCH   3   7
BRANCH   1  19
HETATM   19  C2  UNL     1      25.641   4.544  49.401  1.00  0.00     0.158 C 
HETATM   20  C1  UNL     1      25.818   3.407  50.335  1.00  0.00     0.097 C 
HETATM   21  O1  UNL     1      24.471   4.779  48.960  1.00  0.00    -0.293 OA
ENDBRANCH   1  19
BRANCH   5  22
HETATM   22  C17 UNL     1      27.392   9.082  48.488  1.00  0.00     0.013 C 
HETATM   23  C18 UNL     1      28.008   9.607  49.771  1.00  0.00     0.015 C 
HETATM   24  C19 UNL     1      28.005   9.767  47.329  1.00  0.00     0.015 C 
ENDBRANCH   5  22
BRANCH   6  25
HETATM   25  O3  UNL     1      25.363   7.323  49.334  1.00  0.00    -0.359 OA
HETATM   26  H19 UNL     1      24.952   8.166  48.970  1.00  0.00     0.217 HD
ENDBRANCH   6  25
TORSDOF 4
ENDMDL
MODEL 8
REMARK VINA RESULT:      -8.3      3.349      6.673
REMARK  4 active torsions:
REMARK  status: ('A' for Active; 'I' for Inactive)
REMARK    1  A    between atoms: C2_2  and  C3_4 
REMARK    2  A    between atoms: C5_6  and  C6_7 
REMARK    3  A    between atoms: C16_19  and  C17_20 
REMARK    4  A    between atoms: C20_23  and  O3_24 
ROOT
HETATM    1  C3  UNL     1      25.440   1.076  53.310  1.00  0.00     0.044 A 
HETATM    2  C4  UNL     1      25.510   2.272  52.637  1.00  0.00     0.029 A 
HETATM    3  C5  UNL     1      24.482   2.847  51.879  1.00  0.00    -0.034 A 
HETATM    4  C15 UNL     1      23.330   2.075  51.857  1.00  0.00     0.021 A 
HETATM    5  C16 UNL     1      23.197   0.867  52.511  1.00  0.00    -0.020 A 
HETATM    6  C20 UNL     1      24.265   0.391  53.228  1.00  0.00     0.086 A 
ENDROOT
BRANCH   3   7
HETATM    7  C6  UNL     1      24.657   4.113  51.193  1.00  0.00     0.029 C 
HETATM    8  C7  UNL     1      25.507   4.511  50.270  1.00  0.00     0.045 A 
HETATM    9  C8  UNL     1      26.594   3.837  49.581  1.00  0.00     0.257 A 
HETATM   10  C14 UNL     1      25.496   5.859  49.725  1.00  0.00     0.006 A 
HETATM   11  O2  UNL     1      26.953   2.647  49.749  1.00  0.00    -0.267 OA
HETATM   12  N1  UNL     1      27.229   4.718  48.657  1.00  0.00    -0.322 N 
HETATM   13  C9  UNL     1      26.508   5.937  48.797  1.00  0.00     0.046 A 
HETATM   14  H6  UNL     1      28.035   4.525  48.021  1.00  0.00     0.169 HD
HETATM   15  C10 UNL     1      26.706   7.123  48.133  1.00  0.00     0.030 A 
HETATM   16  C11 UNL     1      25.929   8.262  48.351  1.00  0.00     0.002 A 
HETATM   17  C12 UNL     1      24.931   8.165  49.277  1.00  0.00     0.001 A 
HETATM   18  C13 UNL     1      24.715   6.985  49.953  1.00  0.00     0.015 A 
ENDBRANCH   3   7
BRANCH   1  19
HETATM   19  C2  UNL     1      26.557   0.551  54.074  1.00  0.00     0.158 C 
HETATM   20  C1  UNL     1      27.732  -0.125  53.472  1.00  0.00     0.097 C 
HETATM   21  O1  UNL     1      26.524   0.679  55.339  1.00  0.00    -0.293 OA
ENDBRANCH   1  19
BRANCH   5  22
HETATM   22  C17 UNL     1      21.910   0.109  52.431  1.00  0.00     0.013 C 
HETATM   23  C18 UNL     1      21.038   0.624  53.560  1.00  0.00     0.015 C 
HETATM   24  C19 UNL     1      21.186   0.243  51.148  1.00  0.00     0.015 C 
ENDBRANCH   5  22
BRANCH   6  25
HETATM   25  O3  UNL     1      24.133  -0.823  53.885  1.00  0.00    -0.359 OA
HETATM   26  H19 UNL     1      23.649  -0.975  54.754  1.00  0.00     0.217 HD
ENDBRANCH   6  25
TORSDOF 4
ENDMDL
MODEL 9
REMARK VINA RESULT:      -8.2      1.614      3.499
REMARK  4 active torsions:
REMARK  status: ('A' for Active; 'I' for Inactive)
REMARK    1  A    between atoms: C2_2  and  C3_4 
REMARK    2  A    between atoms: C5_6  and  C6_7 
REMARK    3  A    between atoms: C16_19  and  C17_20 
REMARK    4  A    between atoms: C20_23  and  O3_24 
ROOT
HETATM    1  C3  UNL     1      21.885   2.700  50.285  1.00  0.00     0.044 A 
HETATM    2  C4  UNL     1      23.060   2.136  50.717  1.00  0.00     0.029 A 
HETATM    3  C5  UNL     1      23.176   1.099  51.651  1.00  0.00    -0.034 A 
HETATM    4  C15 UNL     1      21.949   0.666  52.133  1.00  0.00     0.021 A 
HETATM    5  C16 UNL     1      20.735   1.192  51.739  1.00  0.00    -0.020 A 
HETATM    6  C20 UNL     1      20.731   2.206  50.816  1.00  0.00     0.086 A 
ENDROOT
BRANCH   3   7
HETATM    7  C6  UNL     1      24.467   0.577  52.055  1.00  0.00     0.029 C 
HETATM    8  C7  UNL     1      25.429   1.071  52.806  1.00  0.00     0.045 A 
HETATM    9  C8  UNL     1      25.565   2.327  53.524  1.00  0.00     0.257 A 
HETATM   10  C14 UNL     1      26.664   0.351  53.070  1.00  0.00     0.006 A 
HETATM   11  O2  UNL     1      24.719   3.252  53.568  1.00  0.00    -0.267 OA
HETATM   12  N1  UNL     1      26.820   2.389  54.198  1.00  0.00    -0.322 N 
HETATM   13  C9  UNL     1      27.441   1.149  53.878  1.00  0.00     0.046 A 
HETATM   14  H6  UNL     1      27.205   3.158  54.791  1.00  0.00     0.169 HD
HETATM   15  C10 UNL     1      28.673   0.687  54.272  1.00  0.00     0.030 A 
HETATM   16  C11 UNL     1      29.182  -0.556  53.896  1.00  0.00     0.002 A 
HETATM   17  C12 UNL     1      28.397  -1.332  53.094  1.00  0.00     0.001 A 
HETATM   18  C13 UNL     1      27.158  -0.889  52.687  1.00  0.00     0.015 A 
ENDBRANCH   3   7
BRANCH   1  19
HETATM   19  C2  UNL     1      21.855   3.776  49.310  1.00  0.00     0.158 C 
HETATM   20  C1  UNL     1      22.483   3.702  47.970  1.00  0.00     0.097 C 
HETATM   21  O1  UNL     1      21.252   4.850  49.630  1.00  0.00    -0.293 OA
ENDBRANCH   1  19
BRANCH   5  22
HETATM   22  C17 UNL     1      19.464   0.653  52.314  1.00  0.00     0.013 C 
HETATM   23  C18 UNL     1      18.844  -0.222  51.240  1.00  0.00     0.015 C 
HETATM   24  C19 UNL     1      19.624  -0.131  53.557  1.00  0.00     0.015 C 
ENDBRANCH   5  22
BRANCH   6  25
HETATM   25  O3  UNL     1      19.512   2.736  50.420  1.00  0.00    -0.359 OA
HETATM   26  H19 UNL     1      19.223   2.908  49.471  1.00  0.00     0.217 HD
ENDBRANCH   6  25
TORSDOF 4
ENDMDL
