MODEL 1
REMARK VINA RESULT:      -6.7      0.000      0.000
REMARK  7 active torsions:
REMARK  status: ('A' for Active; 'I' for Inactive)
REMARK    1  A    between atoms: C3_3  and  C4_5 
REMARK    2  A    between atoms: C4_5  and  C5_6 
REMARK    3  A    between atoms: C5_6  and  S1_7 
REMARK    4  A    between atoms: S1_7  and  N1_10 
REMARK       I    between atoms: N1_10  and  C6_11 
REMARK    5  A    between atoms: C6_11  and  C7_13 
REMARK    6  A    between atoms: C7_13  and  N2_14 
REMARK    7  A    between atoms: C8_15  and  C9_16 
ROOT
HETATM    1  N1  UNL     1      24.517   1.758  51.558  1.00  0.00    -0.249 N 
HETATM    2  C6  UNL     1      25.633   1.924  52.410  1.00  0.00     0.249 C 
HETATM    3  O3  UNL     1      25.529   2.367  53.569  1.00  0.00    -0.271 OA
HETATM    4  H7  UNL     1      24.805   1.373  50.619  1.00  0.00     0.182 HD
ENDROOT
BRANCH   1   5
HETATM    5  S1  UNL     1      22.815   1.939  51.431  1.00  0.00     0.255 S 
HETATM    6  O1  UNL     1      22.472   3.401  51.281  1.00  0.00    -0.201 OA
HETATM    7  O2  UNL     1      22.350   1.207  50.179  1.00  0.00    -0.201 OA
BRANCH   5   8
HETATM    8  C5  UNL     1      21.929   1.299  52.769  1.00  0.00     0.134 C 
BRANCH   8   9
HETATM    9  C4  UNL     1      21.231   0.505  53.561  1.00  0.00     0.055 C 
BRANCH   9  10
HETATM   10  C3  UNL     1      20.612  -0.789  53.794  1.00  0.00     0.113 C 
HETATM   11  C2  UNL     1      21.452  -1.468  54.551  1.00  0.00     0.011 C 
HETATM   12  C1  UNL     1      22.766  -1.340  55.210  1.00  0.00     0.039 C 
HETATM   13  F1  UNL     1      19.427  -0.871  53.186  1.00  0.00    -0.206 F 
ENDBRANCH   9  10
ENDBRANCH   8   9
ENDBRANCH   5   8
ENDBRANCH   1   5
BRANCH   2  14
HETATM   14  C7  UNL     1      27.002   1.595  52.020  1.00  0.00     0.234 C 
BRANCH  14  15
HETATM   15  N2  UNL     1      27.609   0.580  52.886  1.00  0.00    -0.323 N 
HETATM   16  C8  UNL     1      28.543   0.899  53.802  1.00  0.00     0.092 A 
HETATM   17  C10 UNL     1      28.955  -0.234  54.490  1.00  0.00     0.151 A 
HETATM   18  N3  UNL     1      28.227  -1.235  53.941  1.00  0.00    -0.245 NA
HETATM   19  C11 UNL     1      27.420  -0.748  52.981  1.00  0.00     0.102 A 
HETATM   20  C12 UNL     1      26.454  -1.484  52.123  1.00  0.00     0.091 C 
BRANCH  16  21
HETATM   21  C9  UNL     1      29.111   2.224  54.110  1.00  0.00     0.289 C 
HETATM   22  O4  UNL     1      29.866   2.506  55.077  1.00  0.00    -0.300 OA
ENDBRANCH  16  21
ENDBRANCH  14  15
ENDBRANCH   2  14
TORSDOF 7
ENDMDL
MODEL 2
REMARK VINA RESULT:      -6.7      3.290      4.004
REMARK  7 active torsions:
REMARK  status: ('A' for Active; 'I' for Inactive)
REMARK    1  A    between atoms: C3_3  and  C4_5 
REMARK    2  A    between atoms: C4_5  and  C5_6 
REMARK    3  A    between atoms: C5_6  and  S1_7 
REMARK    4  A    between atoms: S1_7  and  N1_10 
REMARK       I    between atoms: N1_10  and  C6_11 
REMARK    5  A    between atoms: C6_11  and  C7_13 
REMARK    6  A    between atoms: C7_13  and  N2_14 
REMARK    7  A    between atoms: C8_15  and  C9_16 
ROOT
HETATM    1  N1  UNL     1      25.714   3.179  51.722  1.00  0.00    -0.249 N 
HETATM    2  C6  UNL     1      25.010   2.695  52.849  1.00  0.00     0.249 C 
HETATM    3  O3  UNL     1      23.768   2.724  52.924  1.00  0.00    -0.271 OA
HETATM    4  H7  UNL     1      26.756   3.071  51.844  1.00  0.00     0.182 HD
ENDROOT
BRANCH   1   5
HETATM    5  S1  UNL     1      25.549   3.899  50.172  1.00  0.00     0.255 S 
HETATM    6  O1  UNL     1      25.353   5.387  50.326  1.00  0.00    -0.201 OA
HETATM    7  O2  UNL     1      26.838   3.663  49.397  1.00  0.00    -0.201 OA
BRANCH   5   8
HETATM    8  C5  UNL     1      24.248   3.265  49.228  1.00  0.00     0.134 C 
BRANCH   8   9
HETATM    9  C4  UNL     1      23.059   2.849  48.829  1.00  0.00     0.055 C 
BRANCH   9  10
HETATM   10  C3  UNL     1      22.261   2.082  47.888  1.00  0.00     0.113 C 
HETATM   11  C2  UNL     1      21.566   1.222  48.608  1.00  0.00     0.011 C 
HETATM   12  C1  UNL     1      21.350   0.806  50.008  1.00  0.00     0.039 C 
HETATM   13  F1  UNL     1      22.480   2.483  46.635  1.00  0.00    -0.206 F 
ENDBRANCH   9  10
ENDBRANCH   8   9
ENDBRANCH   5   8
ENDBRANCH   1   5
BRANCH   2  14
HETATM   14  C7  UNL     1      25.663   2.122  54.023  1.00  0.00     0.234 C 
BRANCH  14  15
HETATM   15  N2  UNL     1      26.218   0.790  53.767  1.00  0.00    -0.323 N 
HETATM   16  C8  UNL     1      27.529   0.604  53.525  1.00  0.00     0.092 A 
HETATM   17  C10 UNL     1      27.799  -0.742  53.317  1.00  0.00     0.151 A 
HETATM   18  N3  UNL     1      26.593  -1.342  53.445  1.00  0.00    -0.245 NA
HETATM   19  C11 UNL     1      25.645  -0.427  53.715  1.00  0.00     0.102 A 
HETATM   20  C12 UNL     1      24.189  -0.637  53.933  1.00  0.00     0.091 C 
BRANCH  16  21
HETATM   21  C9  UNL     1      28.604   1.612  53.468  1.00  0.00     0.289 C 
HETATM   22  O4  UNL     1      28.648   2.613  52.707  1.00  0.00    -0.300 OA
ENDBRANCH  16  21
ENDBRANCH  14  15
ENDBRANCH   2  14
TORSDOF 7
ENDMDL
MODEL 3
REMARK VINA RESULT:      -6.6      4.387      6.312
REMARK  7 active torsions:
REMARK  status: ('A' for Active; 'I' for Inactive)
REMARK    1  A    between atoms: C3_3  and  C4_5 
REMARK    2  A    between atoms: C4_5  and  C5_6 
REMARK    3  A    between atoms: C5_6  and  S1_7 
REMARK    4  A    between atoms: S1_7  and  N1_10 
REMARK       I    between atoms: N1_10  and  C6_11 
REMARK    5  A    between atoms: C6_11  and  C7_13 
REMARK    6  A    between atoms: C7_13  and  N2_14 
REMARK    7  A    between atoms: C8_15  and  C9_16 
ROOT
HETATM    1  N1  UNL     1      25.601   3.320  51.708  1.00  0.00    -0.249 N 
HETATM    2  C6  UNL     1      24.942   2.736  52.814  1.00  0.00     0.249 C 
HETATM    3  O3  UNL     1      23.704   2.625  52.873  1.00  0.00    -0.271 OA
HETATM    4  H7  UNL     1      26.647   3.326  51.843  1.00  0.00     0.182 HD
ENDROOT
BRANCH   1   5
HETATM    5  S1  UNL     1      25.375   4.052  50.171  1.00  0.00     0.255 S 
HETATM    6  O1  UNL     1      24.459   3.194  49.334  1.00  0.00    -0.201 OA
HETATM    7  O2  UNL     1      24.706   5.404  50.381  1.00  0.00    -0.201 OA
BRANCH   5   8
HETATM    8  C5  UNL     1      26.836   4.323  49.290  1.00  0.00     0.134 C 
BRANCH   8   9
HETATM    9  C4  UNL     1      27.768   4.850  48.516  1.00  0.00     0.055 C 
BRANCH   9  10
HETATM   10  C3  UNL     1      28.780   5.872  48.306  1.00  0.00     0.113 C 
HETATM   11  C2  UNL     1      28.133   6.962  47.944  1.00  0.00     0.011 C 
HETATM   12  C1  UNL     1      26.765   7.457  47.692  1.00  0.00     0.039 C 
HETATM   13  F1  UNL     1      30.002   5.392  48.542  1.00  0.00    -0.206 F 
ENDBRANCH   9  10
ENDBRANCH   8   9
ENDBRANCH   5   8
ENDBRANCH   1   5
BRANCH   2  14
HETATM   14  C7  UNL     1      25.642   2.214  53.985  1.00  0.00     0.234 C 
BRANCH  14  15
HETATM   15  N2  UNL     1      26.261   0.908  53.738  1.00  0.00    -0.323 N 
HETATM   16  C8  UNL     1      27.580   0.784  53.499  1.00  0.00     0.092 A 
HETATM   17  C10 UNL     1      27.914  -0.549  53.299  1.00  0.00     0.151 A 
HETATM   18  N3  UNL     1      26.738  -1.205  53.429  1.00  0.00    -0.245 NA
HETATM   19  C11 UNL     1      25.746  -0.335  53.693  1.00  0.00     0.102 A 
HETATM   20  C12 UNL     1      24.302  -0.614  53.910  1.00  0.00     0.091 C 
BRANCH  16  21
HETATM   21  C9  UNL     1      28.604   1.843  53.438  1.00  0.00     0.289 C 
HETATM   22  O4  UNL     1      29.066   2.491  54.413  1.00  0.00    -0.300 OA
ENDBRANCH  16  21
ENDBRANCH  14  15
ENDBRANCH   2  14
TORSDOF 7
ENDMDL
MODEL 4
REMARK VINA RESULT:      -6.6      4.025      6.122
REMARK  7 active torsions:
REMARK  status: ('A' for Active; 'I' for Inactive)
REMARK    1  A    between atoms: C3_3  and  C4_5 
REMARK    2  A    between atoms: C4_5  and  C5_6 
REMARK    3  A    between atoms: C5_6  and  S1_7 
REMARK    4  A    between atoms: S1_7  and  N1_10 
REMARK       I    between atoms: N1_10  and  C6_11 
REMARK    5  A    between atoms: C6_11  and  C7_13 
REMARK    6  A    between atoms: C7_13  and  N2_14 
REMARK    7  A    between atoms: C8_15  and  C9_16 
ROOT
HETATM    1  N1  UNL     1      25.074   2.410  51.256  1.00  0.00    -0.249 N 
HETATM    2  C6  UNL     1      26.354   1.872  51.524  1.00  0.00     0.249 C 
HETATM    3  O3  UNL     1      27.380   2.574  51.561  1.00  0.00    -0.271 OA
HETATM    4  H7  UNL     1      24.332   1.661  51.265  1.00  0.00     0.182 HD
ENDROOT
BRANCH   1   5
HETATM    5  S1  UNL     1      24.208   3.851  50.907  1.00  0.00     0.255 S 
HETATM    6  O1  UNL     1      22.961   3.514  50.128  1.00  0.00    -0.201 OA
HETATM    7  O2  UNL     1      23.791   4.487  52.227  1.00  0.00    -0.201 OA
BRANCH   5   8
HETATM    8  C5  UNL     1      25.110   5.028  50.021  1.00  0.00     0.134 C 
BRANCH   8   9
HETATM    9  C4  UNL     1      26.038   5.630  49.298  1.00  0.00     0.055 C 
BRANCH   9  10
HETATM   10  C3  UNL     1      27.293   5.554  48.570  1.00  0.00     0.113 C 
HETATM   11  C2  UNL     1      27.520   6.764  48.098  1.00  0.00     0.011 C 
HETATM   12  C1  UNL     1      26.930   8.117  48.074  1.00  0.00     0.039 C 
HETATM   13  F1  UNL     1      27.797   4.320  48.612  1.00  0.00    -0.206 F 
ENDBRANCH   9  10
ENDBRANCH   8   9
ENDBRANCH   5   8
ENDBRANCH   1   5
BRANCH   2  14
HETATM   14  C7  UNL     1      26.594   0.454  51.780  1.00  0.00     0.234 C 
BRANCH  14  15
HETATM   15  N2  UNL     1      26.648   0.138  53.211  1.00  0.00    -0.323 N 
HETATM   16  C8  UNL     1      25.534  -0.121  53.920  1.00  0.00     0.092 A 
HETATM   17  C10 UNL     1      25.855  -0.390  55.245  1.00  0.00     0.151 A 
HETATM   18  N3  UNL     1      27.202  -0.276  55.287  1.00  0.00    -0.245 NA
HETATM   19  C11 UNL     1      27.680   0.040  54.069  1.00  0.00     0.102 A 
HETATM   20  C12 UNL     1      29.091   0.261  53.657  1.00  0.00     0.091 C 
BRANCH  16  21
HETATM   21  C9  UNL     1      24.135  -0.145  53.456  1.00  0.00     0.289 C 
HETATM   22  O4  UNL     1      23.388   0.854  53.290  1.00  0.00    -0.300 OA
ENDBRANCH  16  21
ENDBRANCH  14  15
ENDBRANCH   2  14
TORSDOF 7
ENDMDL
MODEL 5
REMARK VINA RESULT:      -6.5      3.970      5.837
REMARK  7 active torsions:
REMARK  status: ('A' for Active; 'I' for Inactive)
REMARK    1  A    between atoms: C3_3  and  C4_5 
REMARK    2  A    between atoms: C4_5  and  C5_6 
REMARK    3  A    between atoms: C5_6  and  S1_7 
REMARK    4  A    between atoms: S1_7  and  N1_10 
REMARK       I    between atoms: N1_10  and  C6_11 
REMARK    5  A    between atoms: C6_11  and  C7_13 
REMARK    6  A    between atoms: C7_13  and  N2_14 
REMARK    7  A    between atoms: C8_15  and  C9_16 
ROOT
HETATM    1  N1  UNL     1      25.219   3.324  52.020  1.00  0.00    -0.249 N 
HETATM    2  C6  UNL     1      26.340   2.542  52.382  1.00  0.00     0.249 C 
HETATM    3  O3  UNL     1      27.258   2.280  51.584  1.00  0.00    -0.271 OA
HETATM    4  H7  UNL     1      24.550   3.434  52.828  1.00  0.00     0.182 HD
ENDROOT
BRANCH   1   5
HETATM    5  S1  UNL     1      24.478   4.201  50.743  1.00  0.00     0.255 S 
HETATM    6  O1  UNL     1      23.397   3.358  50.113  1.00  0.00    -0.201 OA
HETATM    7  O2  UNL     1      23.833   5.447  51.332  1.00  0.00    -0.201 OA
BRANCH   5   8
HETATM    8  C5  UNL     1      25.570   4.713  49.505  1.00  0.00     0.134 C 
BRANCH   8   9
HETATM    9  C4  UNL     1      26.457   5.394  48.803  1.00  0.00     0.055 C 
BRANCH   9  10
HETATM   10  C3  UNL     1      26.962   6.678  48.346  1.00  0.00     0.113 C 
HETATM   11  C2  UNL     1      28.251   6.508  48.121  1.00  0.00     0.011 C 
HETATM   12  C1  UNL     1      29.301   5.473  48.183  1.00  0.00     0.039 C 
HETATM   13  F1  UNL     1      25.989   7.589  48.303  1.00  0.00    -0.206 F 
ENDBRANCH   9  10
ENDBRANCH   8   9
ENDBRANCH   5   8
ENDBRANCH   1   5
BRANCH   2  14
HETATM   14  C7  UNL     1      26.528   1.971  53.713  1.00  0.00     0.234 C 
BRANCH  14  15
HETATM   15  N2  UNL     1      27.230   0.685  53.683  1.00  0.00    -0.323 N 
HETATM   16  C8  UNL     1      28.554   0.596  53.911  1.00  0.00     0.092 A 
HETATM   17  C10 UNL     1      28.973  -0.725  53.827  1.00  0.00     0.151 A 
HETATM   18  N3  UNL     1      27.843  -1.411  53.538  1.00  0.00    -0.245 NA
HETATM   19  C11 UNL     1      26.798  -0.568  53.452  1.00  0.00     0.102 A 
HETATM   20  C12 UNL     1      25.375  -0.884  53.156  1.00  0.00     0.091 C 
BRANCH  16  21
HETATM   21  C9  UNL     1      29.507   1.678  54.216  1.00  0.00     0.289 C 
HETATM   22  O4  UNL     1      29.601   2.305  55.304  1.00  0.00    -0.300 OA
ENDBRANCH  16  21
ENDBRANCH  14  15
ENDBRANCH   2  14
TORSDOF 7
ENDMDL
MODEL 6
REMARK VINA RESULT:      -6.3      3.456      5.591
REMARK  7 active torsions:
REMARK  status: ('A' for Active; 'I' for Inactive)
REMARK    1  A    between atoms: C3_3  and  C4_5 
REMARK    2  A    between atoms: C4_5  and  C5_6 
REMARK    3  A    between atoms: C5_6  and  S1_7 
REMARK    4  A    between atoms: S1_7  and  N1_10 
REMARK       I    between atoms: N1_10  and  C6_11 
REMARK    5  A    between atoms: C6_11  and  C7_13 
REMARK    6  A    between atoms: C7_13  and  N2_14 
REMARK    7  A    between atoms: C8_15  and  C9_16 
ROOT
HETATM    1  N1  UNL     1      25.341   2.264  51.811  1.00  0.00    -0.249 N 
HETATM    2  C6  UNL     1      25.793   2.924  50.645  1.00  0.00     0.249 C 
HETATM    3  O3  UNL     1      26.977   2.872  50.263  1.00  0.00    -0.271 OA
HETATM    4  H7  UNL     1      24.312   2.426  51.970  1.00  0.00     0.182 HD
ENDROOT
BRANCH   1   5
HETATM    5  S1  UNL     1      25.813   1.262  53.123  1.00  0.00     0.255 S 
HETATM    6  O1  UNL     1      26.909   0.327  52.675  1.00  0.00    -0.201 OA
HETATM    7  O2  UNL     1      26.365   2.152  54.228  1.00  0.00    -0.201 OA
BRANCH   5   8
HETATM    8  C5  UNL     1      24.530   0.324  53.799  1.00  0.00     0.134 C 
BRANCH   8   9
HETATM    9  C4  UNL     1      23.531  -0.527  53.958  1.00  0.00     0.055 C 
BRANCH   9  10
HETATM   10  C3  UNL     1      22.506  -1.096  54.816  1.00  0.00     0.113 C 
HETATM   11  C2  UNL     1      21.397  -0.431  54.557  1.00  0.00     0.011 C 
HETATM   12  C1  UNL     1      20.885   0.662  53.708  1.00  0.00     0.039 C 
HETATM   13  F1  UNL     1      23.002  -2.080  55.569  1.00  0.00    -0.206 F 
ENDBRANCH   9  10
ENDBRANCH   8   9
ENDBRANCH   5   8
ENDBRANCH   1   5
BRANCH   2  14
HETATM   14  C7  UNL     1      24.926   3.725  49.785  1.00  0.00     0.234 C 
BRANCH  14  15
HETATM   15  N2  UNL     1      24.981   5.156  50.100  1.00  0.00    -0.323 N 
HETATM   16  C8  UNL     1      24.146   5.715  50.996  1.00  0.00     0.092 A 
HETATM   17  C10 UNL     1      24.402   7.075  51.113  1.00  0.00     0.151 A 
HETATM   18  N3  UNL     1      25.421   7.294  50.250  1.00  0.00    -0.245 NA
HETATM   19  C11 UNL     1      25.769   6.146  49.642  1.00  0.00     0.102 A 
HETATM   20  C12 UNL     1      26.832   5.921  48.627  1.00  0.00     0.091 C 
BRANCH  16  21
HETATM   21  C9  UNL     1      23.085   5.070  51.789  1.00  0.00     0.289 C 
HETATM   22  O4  UNL     1      23.250   4.320  52.786  1.00  0.00    -0.300 OA
ENDBRANCH  16  21
ENDBRANCH  14  15
ENDBRANCH   2  14
TORSDOF 7
ENDMDL
MODEL 7
REMARK VINA RESULT:      -6.0      3.885      6.329
REMARK  7 active torsions:
REMARK  status: ('A' for Active; 'I' for Inactive)
REMARK    1  A    between atoms: C3_3  and  C4_5 
REMARK    2  A    between atoms: C4_5  and  C5_6 
REMARK    3  A    between atoms: C5_6  and  S1_7 
REMARK    4  A    between atoms: S1_7  and  N1_10 
REMARK       I    between atoms: N1_10  and  C6_11 
REMARK    5  A    between atoms: C6_11  and  C7_13 
REMARK    6  A    between atoms: C7_13  and  N2_14 
REMARK    7  A    between atoms: C8_15  and  C9_16 
ROOT
HETATM    1  N1  UNL     1      22.276   2.596  51.356  1.00  0.00    -0.249 N 
HETATM    2  C6  UNL     1      21.462   1.662  52.038  1.00  0.00     0.249 C 
HETATM    3  O3  UNL     1      20.565   2.010  52.829  1.00  0.00    -0.271 OA
HETATM    4  H7  UNL     1      22.977   2.112  50.734  1.00  0.00     0.182 HD
ENDROOT
BRANCH   1   5
HETATM    5  S1  UNL     1      22.594   4.267  51.122  1.00  0.00     0.255 S 
HETATM    6  O1  UNL     1      21.523   4.866  50.244  1.00  0.00    -0.201 OA
HETATM    7  O2  UNL     1      22.543   4.956  52.478  1.00  0.00    -0.201 OA
BRANCH   5   8
HETATM    8  C5  UNL     1      24.136   4.606  50.421  1.00  0.00     0.134 C 
BRANCH   8   9
HETATM    9  C4  UNL     1      25.368   4.493  49.956  1.00  0.00     0.055 C 
BRANCH   9  10
HETATM   10  C3  UNL     1      26.522   3.654  49.680  1.00  0.00     0.113 C 
HETATM   11  C2  UNL     1      27.359   4.397  48.983  1.00  0.00     0.011 C 
HETATM   12  C1  UNL     1      27.494   5.753  48.416  1.00  0.00     0.039 C 
HETATM   13  F1  UNL     1      26.368   2.438  50.207  1.00  0.00    -0.206 F 
ENDBRANCH   9  10
ENDBRANCH   8   9
ENDBRANCH   5   8
ENDBRANCH   1   5
BRANCH   2  14
HETATM   14  C7  UNL     1      21.593   0.216  51.886  1.00  0.00     0.234 C 
BRANCH  14  15
HETATM   15  N2  UNL     1      21.789  -0.473  53.165  1.00  0.00    -0.323 N 
HETATM   16  C8  UNL     1      22.998  -0.543  53.753  1.00  0.00     0.092 A 
HETATM   17  C10 UNL     1      22.917  -1.243  54.949  1.00  0.00     0.151 A 
HETATM   18  N3  UNL     1      21.610  -1.584  55.042  1.00  0.00    -0.245 NA
HETATM   19  C11 UNL     1      20.933  -1.123  53.975  1.00  0.00     0.102 A 
HETATM   20  C12 UNL     1      19.486  -1.264  53.665  1.00  0.00     0.091 C 
BRANCH  16  21
HETATM   21  C9  UNL     1      24.281   0.009  53.281  1.00  0.00     0.289 C 
HETATM   22  O4  UNL     1      24.620   1.221  53.289  1.00  0.00    -0.300 OA
ENDBRANCH  16  21
ENDBRANCH  14  15
ENDBRANCH   2  14
TORSDOF 7
ENDMDL
MODEL 8
REMARK VINA RESULT:      -6.0      3.769      6.980
REMARK  7 active torsions:
REMARK  status: ('A' for Active; 'I' for Inactive)
REMARK    1  A    between atoms: C3_3  and  C4_5 
REMARK    2  A    between atoms: C4_5  and  C5_6 
REMARK    3  A    between atoms: C5_6  and  S1_7 
REMARK    4  A    between atoms: S1_7  and  N1_10 
REMARK       I    between atoms: N1_10  and  C6_11 
REMARK    5  A    between atoms: C6_11  and  C7_13 
REMARK    6  A    between atoms: C7_13  and  N2_14 
REMARK    7  A    between atoms: C8_15  and  C9_16 
ROOT
HETATM    1  N1  UNL     1      24.606   0.668  52.549  1.00  0.00    -0.249 N 
HETATM    2  C6  UNL     1      24.185   2.002  52.345  1.00  0.00     0.249 C 
HETATM    3  O3  UNL     1      24.429   2.912  53.159  1.00  0.00    -0.271 OA
HETATM    4  H7  UNL     1      24.305   0.044  51.754  1.00  0.00     0.182 HD
ENDROOT
BRANCH   1   5
HETATM    5  S1  UNL     1      25.444  -0.388  53.612  1.00  0.00     0.255 S 
HETATM    6  O1  UNL     1      24.498  -0.885  54.678  1.00  0.00    -0.201 OA
HETATM    7  O2  UNL     1      25.932  -1.585  52.808  1.00  0.00    -0.201 OA
BRANCH   5   8
HETATM    8  C5  UNL     1      26.819   0.321  54.381  1.00  0.00     0.134 C 
BRANCH   8   9
HETATM    9  C4  UNL     1      28.056   0.642  54.718  1.00  0.00     0.055 C 
BRANCH   9  10
HETATM   10  C3  UNL     1      29.395   1.029  54.310  1.00  0.00     0.113 C 
HETATM   11  C2  UNL     1      29.919  -0.025  53.715  1.00  0.00     0.011 C 
HETATM   12  C1  UNL     1      29.593  -1.416  53.346  1.00  0.00     0.039 C 
HETATM   13  F1  UNL     1      29.657   2.290  54.658  1.00  0.00    -0.206 F 
ENDBRANCH   9  10
ENDBRANCH   8   9
ENDBRANCH   5   8
ENDBRANCH   1   5
BRANCH   2  14
HETATM   14  C7  UNL     1      23.431   2.440  51.173  1.00  0.00     0.234 C 
BRANCH  14  15
HETATM   15  N2  UNL     1      21.995   2.565  51.439  1.00  0.00    -0.323 N 
HETATM   16  C8  UNL     1      21.429   3.755  51.716  1.00  0.00     0.092 A 
HETATM   17  C10 UNL     1      20.064   3.605  51.928  1.00  0.00     0.151 A 
HETATM   18  N3  UNL     1      19.850   2.279  51.765  1.00  0.00    -0.245 NA
HETATM   19  C11 UNL     1      21.005   1.654  51.472  1.00  0.00     0.102 A 
HETATM   20  C12 UNL     1      21.236   0.209  51.214  1.00  0.00     0.091 C 
BRANCH  16  21
HETATM   21  C9  UNL     1      22.071   5.079  51.806  1.00  0.00     0.289 C 
HETATM   22  O4  UNL     1      21.593   6.169  51.398  1.00  0.00    -0.300 OA
ENDBRANCH  16  21
ENDBRANCH  14  15
ENDBRANCH   2  14
TORSDOF 7
ENDMDL
MODEL 9
REMARK VINA RESULT:      -6.0      2.754      4.144
REMARK  7 active torsions:
REMARK  status: ('A' for Active; 'I' for Inactive)
REMARK    1  A    between atoms: C3_3  and  C4_5 
REMARK    2  A    between atoms: C4_5  and  C5_6 
REMARK    3  A    between atoms: C5_6  and  S1_7 
REMARK    4  A    between atoms: S1_7  and  N1_10 
REMARK       I    between atoms: N1_10  and  C6_11 
REMARK    5  A    between atoms: C6_11  and  C7_13 
REMARK    6  A    between atoms: C7_13  and  N2_14 
REMARK    7  A    between atoms: C8_15  and  C9_16 
ROOT
HETATM    1  N1  UNL     1      25.465   2.789  52.551  1.00  0.00    -0.249 N 
HETATM    2  C6  UNL     1      26.759   2.272  52.789  1.00  0.00     0.249 C 
HETATM    3  O3  UNL     1      27.719   2.495  52.028  1.00  0.00    -0.271 OA
HETATM    4  H7  UNL     1      24.787   2.491  53.302  1.00  0.00     0.182 HD
ENDROOT
BRANCH   1   5
HETATM    5  S1  UNL     1      24.514   3.745  51.488  1.00  0.00     0.255 S 
HETATM    6  O1  UNL     1      23.837   4.845  52.268  1.00  0.00    -0.201 OA
HETATM    7  O2  UNL     1      25.442   4.385  50.464  1.00  0.00    -0.201 OA
BRANCH   5   8
HETATM    8  C5  UNL     1      23.309   2.862  50.620  1.00  0.00     0.134 C 
BRANCH   8   9
HETATM    9  C4  UNL     1      22.599   2.300  49.658  1.00  0.00     0.055 C 
BRANCH   9  10
HETATM   10  C3  UNL     1      21.566   1.358  49.262  1.00  0.00     0.113 C 
HETATM   11  C2  UNL     1      20.935   1.909  48.243  1.00  0.00     0.011 C 
HETATM   12  C1  UNL     1      20.941   3.128  47.411  1.00  0.00     0.039 C 
HETATM   13  F1  UNL     1      21.589   0.269  50.033  1.00  0.00    -0.206 F 
ENDBRANCH   9  10
ENDBRANCH   8   9
ENDBRANCH   5   8
ENDBRANCH   1   5
BRANCH   2  14
HETATM   14  C7  UNL     1      27.094   1.435  53.938  1.00  0.00     0.234 C 
BRANCH  14  15
HETATM   15  N2  UNL     1      27.341   0.038  53.567  1.00  0.00    -0.323 N 
HETATM   16  C8  UNL     1      26.331  -0.826  53.353  1.00  0.00     0.092 A 
HETATM   17  C10 UNL     1      26.827  -2.078  53.016  1.00  0.00     0.151 A 
HETATM   18  N3  UNL     1      28.171  -1.918  53.042  1.00  0.00    -0.245 NA
HETATM   19  C11 UNL     1      28.480  -0.650  53.371  1.00  0.00     0.102 A 
HETATM   20  C12 UNL     1      29.825  -0.033  53.517  1.00  0.00     0.091 C 
BRANCH  16  21
HETATM   21  C9  UNL     1      24.880  -0.580  53.436  1.00  0.00     0.289 C 
HETATM   22  O4  UNL     1      24.183   0.060  52.606  1.00  0.00    -0.300 OA
ENDBRANCH  16  21
ENDBRANCH  14  15
ENDBRANCH   2  14
TORSDOF 7
ENDMDL
