MODEL 1
REMARK VINA RESULT:      -9.2      0.000      0.000
REMARK  4 active torsions:
REMARK  status: ('A' for Active; 'I' for Inactive)
REMARK    1  A    between atoms: O1_2  and  C2_3 
REMARK    2  A    between atoms: C6_9  and  C7_10 
REMARK    3  A    between atoms: C7_10  and  N3_11 
REMARK    4  A    between atoms: N3_11  and  C8_12 
ROOT
HETATM    1  C7  UNL     1      24.153   0.828  53.024  1.00  0.00     0.121 C 
ENDROOT
BRANCH   1   2
HETATM    2  C6  UNL     1      23.328   0.023  53.671  1.00  0.00     0.086 A 
HETATM    3  N2  UNL     1      23.767  -0.733  54.687  1.00  0.00    -0.240 NA
HETATM    4  C5  UNL     1      22.991  -1.574  55.387  1.00  0.00     0.234 A 
HETATM    5  N1  UNL     1      21.700  -1.635  55.016  1.00  0.00    -0.241 NA
HETATM    6  C4  UNL     1      21.186  -0.905  54.003  1.00  0.00     0.074 A 
HETATM    7  C3  UNL     1      19.763  -1.041  53.667  1.00  0.00     0.069 A 
HETATM    8  C17 UNL     1      22.007  -0.031  53.283  1.00  0.00     0.034 A 
HETATM    9  C2  UNL     1      19.356  -0.285  52.658  1.00  0.00     0.071 A 
HETATM   10  C19 UNL     1      20.291   0.596  51.967  1.00  0.00     0.050 A 
HETATM   11  C18 UNL     1      21.544   0.688  52.302  1.00  0.00    -0.007 A 
BRANCH   9  12
HETATM   12  O1  UNL     1      18.008  -0.451  52.383  1.00  0.00    -0.356 OA
HETATM   13  C1  UNL     1      17.331  -1.496  53.053  1.00  0.00     0.210 C 
ENDBRANCH   9  12
ENDBRANCH   1   2
BRANCH   1  14
HETATM   14  N3  UNL     1      25.345   0.503  52.352  1.00  0.00    -0.362 N 
HETATM   15  H7  UNL     1      25.382   0.006  51.415  1.00  0.00     0.165 HD
BRANCH  14  16
HETATM   16  C8  UNL     1      26.580   0.836  52.917  1.00  0.00     0.060 A 
HETATM   17  C9  UNL     1      27.012   2.076  53.371  1.00  0.00     0.146 A 
HETATM   18  N4  UNL     1      28.225   2.268  53.905  1.00  0.00    -0.270 NA
HETATM   19  C10 UNL     1      29.129   1.275  54.046  1.00  0.00     0.128 A 
HETATM   20  C11 UNL     1      28.736   0.026  53.605  1.00  0.00    -0.006 A 
HETATM   21  C12 UNL     1      29.697  -0.969  53.769  1.00  0.00     0.014 A 
HETATM   22  C16 UNL     1      27.489  -0.215  53.046  1.00  0.00     0.004 A 
HETATM   23  C13 UNL     1      29.380  -2.249  53.353  1.00  0.00     0.001 A 
HETATM   24  C14 UNL     1      28.149  -2.522  52.794  1.00  0.00     0.001 A 
HETATM   25  C15 UNL     1      27.237  -1.519  52.651  1.00  0.00     0.014 A 
ENDBRANCH  14  16
ENDBRANCH   1  14
TORSDOF 4
ENDMDL
MODEL 2
REMARK VINA RESULT:      -8.9      4.129      6.089
REMARK  4 active torsions:
REMARK  status: ('A' for Active; 'I' for Inactive)
REMARK    1  A    between atoms: O1_2  and  C2_3 
REMARK    2  A    between atoms: C6_9  and  C7_10 
REMARK    3  A    between atoms: C7_10  and  N3_11 
REMARK    4  A    between atoms: N3_11  and  C8_12 
ROOT
HETATM    1  C7  UNL     1      24.651   1.555  51.692  1.00  0.00     0.121 C 
ENDROOT
BRANCH   1   2
HETATM    2  C6  UNL     1      24.360   2.835  51.534  1.00  0.00     0.086 A 
HETATM    3  N2  UNL     1      23.315   3.382  52.169  1.00  0.00    -0.240 NA
HETATM    4  C5  UNL     1      22.957   4.670  52.055  1.00  0.00     0.234 A 
HETATM    5  N1  UNL     1      23.718   5.426  51.244  1.00  0.00    -0.241 NA
HETATM    6  C4  UNL     1      24.786   4.945  50.571  1.00  0.00     0.074 A 
HETATM    7  C3  UNL     1      25.556   5.845  49.704  1.00  0.00     0.069 A 
HETATM    8  C17 UNL     1      25.147   3.600  50.700  1.00  0.00     0.034 A 
HETATM    9  C2  UNL     1      26.582   5.278  49.086  1.00  0.00     0.071 A 
HETATM   10  C19 UNL     1      26.879   3.864  49.285  1.00  0.00     0.050 A 
HETATM   11  C18 UNL     1      26.170   3.104  50.067  1.00  0.00    -0.007 A 
BRANCH   9  12
HETATM   12  O1  UNL     1      27.273   6.171  48.282  1.00  0.00    -0.356 OA
HETATM   13  C1  UNL     1      28.669   5.984  48.153  1.00  0.00     0.210 C 
ENDBRANCH   9  12
ENDBRANCH   1   2
BRANCH   1  14
HETATM   14  N3  UNL     1      25.129   0.903  52.844  1.00  0.00    -0.362 N 
HETATM   15  H7  UNL     1      24.532   0.286  53.468  1.00  0.00     0.165 HD
BRANCH  14  16
HETATM   16  C8  UNL     1      26.466   1.048  53.226  1.00  0.00     0.060 A 
HETATM   17  C9  UNL     1      27.114   2.193  53.673  1.00  0.00     0.146 A 
HETATM   18  N4  UNL     1      28.406   2.204  54.021  1.00  0.00    -0.270 NA
HETATM   19  C10 UNL     1      29.189   1.105  53.965  1.00  0.00     0.128 A 
HETATM   20  C11 UNL     1      28.580  -0.056  53.525  1.00  0.00    -0.006 A 
HETATM   21  C12 UNL     1      29.422  -1.165  53.484  1.00  0.00     0.014 A 
HETATM   22  C16 UNL     1      27.244  -0.109  53.156  1.00  0.00     0.004 A 
HETATM   23  C13 UNL     1      28.888  -2.366  53.054  1.00  0.00     0.001 A 
HETATM   24  C14 UNL     1      27.562  -2.453  52.681  1.00  0.00     0.001 A 
HETATM   25  C15 UNL     1      26.774  -1.342  52.735  1.00  0.00     0.014 A 
ENDBRANCH  14  16
ENDBRANCH   1  14
TORSDOF 4
ENDMDL
MODEL 3
REMARK VINA RESULT:      -8.7      1.378      2.016
REMARK  4 active torsions:
REMARK  status: ('A' for Active; 'I' for Inactive)
REMARK    1  A    between atoms: O1_2  and  C2_3 
REMARK    2  A    between atoms: C6_9  and  C7_10 
REMARK    3  A    between atoms: C7_10  and  N3_11 
REMARK    4  A    between atoms: N3_11  and  C8_12 
ROOT
HETATM    1  C7  UNL     1      24.357   0.648  53.230  1.00  0.00     0.121 C 
ENDROOT
BRANCH   1   2
HETATM    2  C6  UNL     1      23.134   1.069  52.956  1.00  0.00     0.086 A 
HETATM    3  N2  UNL     1      22.934   2.279  52.415  1.00  0.00    -0.240 NA
HETATM    4  C5  UNL     1      21.725   2.775  52.113  1.00  0.00     0.234 A 
HETATM    5  N1  UNL     1      20.675   1.981  52.384  1.00  0.00    -0.241 NA
HETATM    6  C4  UNL     1      20.798   0.751  52.928  1.00  0.00     0.074 A 
HETATM    7  C3  UNL     1      19.593  -0.044  53.193  1.00  0.00     0.069 A 
HETATM    8  C17 UNL     1      22.066   0.247  53.238  1.00  0.00     0.034 A 
HETATM    9  C2  UNL     1      19.819  -1.234  53.730  1.00  0.00     0.071 A 
HETATM   10  C19 UNL     1      21.181  -1.671  54.018  1.00  0.00     0.050 A 
HETATM   11  C18 UNL     1      22.221  -0.934  53.762  1.00  0.00    -0.007 A 
BRANCH   9  12
HETATM   12  O1  UNL     1      18.650  -1.942  53.959  1.00  0.00    -0.356 OA
HETATM   13  C1  UNL     1      17.545  -1.663  53.121  1.00  0.00     0.210 C 
ENDBRANCH   9  12
ENDBRANCH   1   2
BRANCH   1  14
HETATM   14  N3  UNL     1      25.507   0.713  52.422  1.00  0.00    -0.362 N 
HETATM   15  H7  UNL     1      25.501   0.580  51.369  1.00  0.00     0.165 HD
BRANCH  14  16
HETATM   16  C8  UNL     1      26.755   0.964  53.000  1.00  0.00     0.060 A 
HETATM   17  C9  UNL     1      27.249   2.166  53.492  1.00  0.00     0.146 A 
HETATM   18  N4  UNL     1      28.467   2.279  54.035  1.00  0.00    -0.270 NA
HETATM   19  C10 UNL     1      29.318   1.236  54.149  1.00  0.00     0.128 A 
HETATM   20  C11 UNL     1      28.862   0.022  53.670  1.00  0.00    -0.006 A 
HETATM   21  C12 UNL     1      29.770  -1.026  53.808  1.00  0.00     0.014 A 
HETATM   22  C16 UNL     1      27.608  -0.137  53.101  1.00  0.00     0.004 A 
HETATM   23  C13 UNL     1      29.389  -2.274  53.352  1.00  0.00     0.001 A 
HETATM   24  C14 UNL     1      28.147  -2.466  52.782  1.00  0.00     0.001 A 
HETATM   25  C15 UNL     1      27.289  -1.413  52.666  1.00  0.00     0.014 A 
ENDBRANCH  14  16
ENDBRANCH   1  14
TORSDOF 4
ENDMDL
MODEL 4
REMARK VINA RESULT:      -8.4      4.328      6.428
REMARK  4 active torsions:
REMARK  status: ('A' for Active; 'I' for Inactive)
REMARK    1  A    between atoms: O1_2  and  C2_3 
REMARK    2  A    between atoms: C6_9  and  C7_10 
REMARK    3  A    between atoms: C7_10  and  N3_11 
REMARK    4  A    between atoms: N3_11  and  C8_12 
ROOT
HETATM    1  C7  UNL     1      22.872   2.845  51.995  1.00  0.00     0.121 C 
ENDROOT
BRANCH   1   2
HETATM    2  C6  UNL     1      22.978   1.623  52.490  1.00  0.00     0.086 A 
HETATM    3  N2  UNL     1      21.961   0.757  52.395  1.00  0.00    -0.240 NA
HETATM    4  C5  UNL     1      21.993  -0.495  52.875  1.00  0.00     0.234 A 
HETATM    5  N1  UNL     1      23.134  -0.866  53.482  1.00  0.00    -0.241 NA
HETATM    6  C4  UNL     1      24.201  -0.049  53.616  1.00  0.00     0.074 A 
HETATM    7  C3  UNL     1      25.404  -0.541  54.298  1.00  0.00     0.069 A 
HETATM    8  C17 UNL     1      24.152   1.254  53.110  1.00  0.00     0.034 A 
HETATM    9  C2  UNL     1      26.394   0.336  54.381  1.00  0.00     0.071 A 
HETATM   10  C19 UNL     1      26.247   1.675  53.822  1.00  0.00     0.050 A 
HETATM   11  C18 UNL     1      25.162   2.068  53.221  1.00  0.00    -0.007 A 
BRANCH   9  12
HETATM   12  O1  UNL     1      27.503  -0.178  55.033  1.00  0.00    -0.356 OA
HETATM   13  C1  UNL     1      28.774   0.278  54.614  1.00  0.00     0.210 C 
ENDBRANCH   9  12
ENDBRANCH   1   2
BRANCH   1  14
HETATM   14  N3  UNL     1      22.830   3.242  50.646  1.00  0.00    -0.362 N 
HETATM   15  H7  UNL     1      22.438   2.642  49.862  1.00  0.00     0.165 HD
BRANCH  14  16
HETATM   16  C8  UNL     1      23.322   4.495  50.270  1.00  0.00     0.060 A 
HETATM   17  C9  UNL     1      22.669   5.721  50.297  1.00  0.00     0.146 A 
HETATM   18  N4  UNL     1      23.255   6.862  49.917  1.00  0.00    -0.270 NA
HETATM   19  C10 UNL     1      24.530   6.918  49.474  1.00  0.00     0.128 A 
HETATM   20  C11 UNL     1      25.214   5.718  49.431  1.00  0.00    -0.006 A 
HETATM   21  C12 UNL     1      26.524   5.821  48.969  1.00  0.00     0.014 A 
HETATM   22  C16 UNL     1      24.643   4.514  49.817  1.00  0.00     0.004 A 
HETATM   23  C13 UNL     1      27.277   4.663  48.898  1.00  0.00     0.001 A 
HETATM   24  C14 UNL     1      26.739   3.450  49.274  1.00  0.00     0.001 A 
HETATM   25  C15 UNL     1      25.452   3.394  49.720  1.00  0.00     0.014 A 
ENDBRANCH  14  16
ENDBRANCH   1  14
TORSDOF 4
ENDMDL
MODEL 5
REMARK VINA RESULT:      -8.4      4.459      6.886
REMARK  4 active torsions:
REMARK  status: ('A' for Active; 'I' for Inactive)
REMARK    1  A    between atoms: O1_2  and  C2_3 
REMARK    2  A    between atoms: C6_9  and  C7_10 
REMARK    3  A    between atoms: C7_10  and  N3_11 
REMARK    4  A    between atoms: N3_11  and  C8_12 
ROOT
HETATM    1  C7  UNL     1      23.883   3.135  52.578  1.00  0.00     0.121 C 
ENDROOT
BRANCH   1   2
HETATM    2  C6  UNL     1      24.149   1.902  52.974  1.00  0.00     0.086 A 
HETATM    3  N2  UNL     1      23.172   0.990  53.066  1.00  0.00    -0.240 NA
HETATM    4  C5  UNL     1      23.365  -0.278  53.462  1.00  0.00     0.234 A 
HETATM    5  N1  UNL     1      24.627  -0.614  53.778  1.00  0.00    -0.241 NA
HETATM    6  C4  UNL     1      25.662   0.252  53.710  1.00  0.00     0.074 A 
HETATM    7  C3  UNL     1      27.008  -0.204  54.079  1.00  0.00     0.069 A 
HETATM    8  C17 UNL     1      25.446   1.570  53.294  1.00  0.00     0.034 A 
HETATM    9  C2  UNL     1      27.954   0.719  53.981  1.00  0.00     0.071 A 
HETATM   10  C19 UNL     1      27.629   2.070  53.537  1.00  0.00     0.050 A 
HETATM   11  C18 UNL     1      26.421   2.429  53.216  1.00  0.00    -0.007 A 
BRANCH   9  12
HETATM   12  O1  UNL     1      29.203   0.236  54.340  1.00  0.00    -0.356 OA
HETATM   13  C1  UNL     1      29.755  -0.795  53.546  1.00  0.00     0.210 C 
ENDBRANCH   9  12
ENDBRANCH   1   2
BRANCH   1  14
HETATM   14  N3  UNL     1      23.655   3.605  51.271  1.00  0.00    -0.362 N 
HETATM   15  H7  UNL     1      23.197   3.032  50.505  1.00  0.00     0.165 HD
BRANCH  14  16
HETATM   16  C8  UNL     1      24.041   4.901  50.916  1.00  0.00     0.060 A 
HETATM   17  C9  UNL     1      23.420   6.102  51.235  1.00  0.00     0.146 A 
HETATM   18  N4  UNL     1      23.896   7.290  50.841  1.00  0.00    -0.270 NA
HETATM   19  C10 UNL     1      25.017   7.420  50.101  1.00  0.00     0.128 A 
HETATM   20  C11 UNL     1      25.665   6.247  49.763  1.00  0.00    -0.006 A 
HETATM   21  C12 UNL     1      26.817   6.427  49.000  1.00  0.00     0.014 A 
HETATM   22  C16 UNL     1      25.206   4.997  50.151  1.00  0.00     0.004 A 
HETATM   23  C13 UNL     1      27.524   5.300  48.622  1.00  0.00     0.001 A 
HETATM   24  C14 UNL     1      27.094   4.043  48.992  1.00  0.00     0.001 A 
HETATM   25  C15 UNL     1      25.960   3.911  49.738  1.00  0.00     0.014 A 
ENDBRANCH  14  16
ENDBRANCH   1  14
TORSDOF 4
ENDMDL
MODEL 6
REMARK VINA RESULT:      -8.3      1.128      2.188
REMARK  4 active torsions:
REMARK  status: ('A' for Active; 'I' for Inactive)
REMARK    1  A    between atoms: O1_2  and  C2_3 
REMARK    2  A    between atoms: C6_9  and  C7_10 
REMARK    3  A    between atoms: C7_10  and  N3_11 
REMARK    4  A    between atoms: N3_11  and  C8_12 
ROOT
HETATM    1  C7  UNL     1      24.399   0.607  52.989  1.00  0.00     0.121 C 
ENDROOT
BRANCH   1   2
HETATM    2  C6  UNL     1      23.480  -0.091  53.636  1.00  0.00     0.086 A 
HETATM    3  N2  UNL     1      23.805  -0.811  54.718  1.00  0.00    -0.240 NA
HETATM    4  C5  UNL     1      22.930  -1.544  55.422  1.00  0.00     0.234 A 
HETATM    5  N1  UNL     1      21.659  -1.531  54.983  1.00  0.00    -0.241 NA
HETATM    6  C4  UNL     1      21.257  -0.830  53.901  1.00  0.00     0.074 A 
HETATM    7  C3  UNL     1      19.847  -0.878  53.494  1.00  0.00     0.069 A 
HETATM    8  C17 UNL     1      22.181  -0.069  53.177  1.00  0.00     0.034 A 
HETATM    9  C2  UNL     1      19.554  -0.160  52.420  1.00  0.00     0.071 A 
HETATM   10  C19 UNL     1      20.590   0.602  51.731  1.00  0.00     0.050 A 
HETATM   11  C18 UNL     1      21.828   0.619  52.131  1.00  0.00    -0.007 A 
BRANCH   9  12
HETATM   12  O1  UNL     1      18.213  -0.241  52.080  1.00  0.00    -0.356 OA
HETATM   13  C1  UNL     1      17.593   0.933  51.594  1.00  0.00     0.210 C 
ENDBRANCH   9  12
ENDBRANCH   1   2
BRANCH   1  14
HETATM   14  N3  UNL     1      25.353   0.149  52.062  1.00  0.00    -0.362 N 
HETATM   15  H7  UNL     1      25.270   0.279  51.012  1.00  0.00     0.165 HD
BRANCH  14  16
HETATM   16  C8  UNL     1      26.495  -0.524  52.507  1.00  0.00     0.060 A 
HETATM   17  C9  UNL     1      26.750  -1.889  52.494  1.00  0.00     0.146 A 
HETATM   18  N4  UNL     1      27.895  -2.416  52.944  1.00  0.00    -0.270 NA
HETATM   19  C10 UNL     1      28.897  -1.665  53.449  1.00  0.00     0.128 A 
HETATM   20  C11 UNL     1      28.681  -0.300  53.480  1.00  0.00    -0.006 A 
HETATM   21  C12 UNL     1      29.740   0.436  54.008  1.00  0.00     0.014 A 
HETATM   22  C16 UNL     1      27.510   0.285  53.023  1.00  0.00     0.004 A 
HETATM   23  C13 UNL     1      29.601   1.811  54.072  1.00  0.00     0.001 A 
HETATM   24  C14 UNL     1      28.449   2.424  53.626  1.00  0.00     0.001 A 
HETATM   25  C15 UNL     1      27.437   1.665  53.117  1.00  0.00     0.014 A 
ENDBRANCH  14  16
ENDBRANCH   1  14
TORSDOF 4
ENDMDL
MODEL 7
REMARK VINA RESULT:      -8.2      4.774      6.709
REMARK  4 active torsions:
REMARK  status: ('A' for Active; 'I' for Inactive)
REMARK    1  A    between atoms: O1_2  and  C2_3 
REMARK    2  A    between atoms: C6_9  and  C7_10 
REMARK    3  A    between atoms: C7_10  and  N3_11 
REMARK    4  A    between atoms: N3_11  and  C8_12 
ROOT
HETATM    1  C7  UNL     1      25.940   2.949  50.943  1.00  0.00     0.121 C 
ENDROOT
BRANCH   1   2
HETATM    2  C6  UNL     1      26.356   2.145  51.907  1.00  0.00     0.086 A 
HETATM    3  N2  UNL     1      27.645   2.125  52.269  1.00  0.00    -0.240 NA
HETATM    4  C5  UNL     1      28.141   1.336  53.235  1.00  0.00     0.234 A 
HETATM    5  N1  UNL     1      27.259   0.530  53.852  1.00  0.00    -0.241 NA
HETATM    6  C4  UNL     1      25.945   0.496  53.540  1.00  0.00     0.074 A 
HETATM    7  C3  UNL     1      25.056  -0.420  54.266  1.00  0.00     0.069 A 
HETATM    8  C17 UNL     1      25.442   1.325  52.532  1.00  0.00     0.034 A 
HETATM    9  C2  UNL     1      23.787  -0.381  53.886  1.00  0.00     0.071 A 
HETATM   10  C19 UNL     1      23.360   0.519  52.821  1.00  0.00     0.050 A 
HETATM   11  C18 UNL     1      24.182   1.318  52.207  1.00  0.00    -0.007 A 
BRANCH   9  12
HETATM   12  O1  UNL     1      22.994  -1.263  54.602  1.00  0.00    -0.356 OA
HETATM   13  C1  UNL     1      21.616  -1.304  54.285  1.00  0.00     0.210 C 
ENDBRANCH   9  12
ENDBRANCH   1   2
BRANCH   1  14
HETATM   14  N3  UNL     1      26.677   3.906  50.222  1.00  0.00    -0.362 N 
HETATM   15  H7  UNL     1      27.733   3.885  50.114  1.00  0.00     0.165 HD
BRANCH  14  16
HETATM   16  C8  UNL     1      26.019   4.967  49.593  1.00  0.00     0.060 A 
HETATM   17  C9  UNL     1      24.677   5.317  49.672  1.00  0.00     0.146 A 
HETATM   18  N4  UNL     1      24.164   6.369  49.024  1.00  0.00    -0.270 NA
HETATM   19  C10 UNL     1      24.906   7.178  48.238  1.00  0.00     0.128 A 
HETATM   20  C11 UNL     1      26.247   6.863  48.133  1.00  0.00    -0.006 A 
HETATM   21  C12 UNL     1      26.976   7.723  47.313  1.00  0.00     0.014 A 
HETATM   22  C16 UNL     1      26.818   5.782  48.788  1.00  0.00     0.004 A 
HETATM   23  C13 UNL     1      28.327   7.475  47.157  1.00  0.00     0.001 A 
HETATM   24  C14 UNL     1      28.926   6.408  47.795  1.00  0.00     0.001 A 
HETATM   25  C15 UNL     1      28.176   5.591  48.587  1.00  0.00     0.014 A 
ENDBRANCH  14  16
ENDBRANCH   1  14
TORSDOF 4
ENDMDL
MODEL 8
REMARK VINA RESULT:      -8.1      2.824      8.049
REMARK  4 active torsions:
REMARK  status: ('A' for Active; 'I' for Inactive)
REMARK    1  A    between atoms: O1_2  and  C2_3 
REMARK    2  A    between atoms: C6_9  and  C7_10 
REMARK    3  A    between atoms: C7_10  and  N3_11 
REMARK    4  A    between atoms: N3_11  and  C8_12 
ROOT
HETATM    1  C7  UNL     1      23.292   1.894  52.189  1.00  0.00     0.121 C 
ENDROOT
BRANCH   1   2
HETATM    2  C6  UNL     1      24.574   2.096  51.935  1.00  0.00     0.086 A 
HETATM    3  N2  UNL     1      24.954   2.979  51.001  1.00  0.00    -0.240 NA
HETATM    4  C5  UNL     1      26.233   3.235  50.687  1.00  0.00     0.234 A 
HETATM    5  N1  UNL     1      27.160   2.543  51.371  1.00  0.00    -0.241 NA
HETATM    6  C4  UNL     1      26.853   1.637  52.326  1.00  0.00     0.074 A 
HETATM    7  C3  UNL     1      27.934   0.926  53.019  1.00  0.00     0.069 A 
HETATM    8  C17 UNL     1      25.515   1.381  52.643  1.00  0.00     0.034 A 
HETATM    9  C2  UNL     1      27.530   0.057  53.934  1.00  0.00     0.071 A 
HETATM   10  C19 UNL     1      26.109  -0.140  54.194  1.00  0.00     0.050 A 
HETATM   11  C18 UNL     1      25.183   0.517  53.558  1.00  0.00    -0.007 A 
BRANCH   9  12
HETATM   12  O1  UNL     1      28.589  -0.585  54.557  1.00  0.00    -0.356 OA
HETATM   13  C1  UNL     1      29.749  -0.826  53.785  1.00  0.00     0.210 C 
ENDBRANCH   9  12
ENDBRANCH   1   2
BRANCH   1  14
HETATM   14  N3  UNL     1      22.383   1.070  51.501  1.00  0.00    -0.362 N 
HETATM   15  H7  UNL     1      22.382   0.934  50.448  1.00  0.00     0.165 HD
BRANCH  14  16
HETATM   16  C8  UNL     1      21.403   0.367  52.208  1.00  0.00     0.060 A 
HETATM   17  C9  UNL     1      21.534  -0.324  53.406  1.00  0.00     0.146 A 
HETATM   18  N4  UNL     1      20.510  -0.955  53.994  1.00  0.00    -0.270 NA
HETATM   19  C10 UNL     1      19.265  -0.974  53.472  1.00  0.00     0.128 A 
HETATM   20  C11 UNL     1      19.094  -0.298  52.279  1.00  0.00    -0.006 A 
HETATM   21  C12 UNL     1      17.795  -0.342  51.776  1.00  0.00     0.014 A 
HETATM   22  C16 UNL     1      20.128   0.368  51.638  1.00  0.00     0.004 A 
HETATM   23  C13 UNL     1      17.541   0.312  50.585  1.00  0.00     0.001 A 
HETATM   24  C14 UNL     1      18.548   0.984  49.923  1.00  0.00     0.001 A 
HETATM   25  C15 UNL     1      19.805   1.002  50.450  1.00  0.00     0.014 A 
ENDBRANCH  14  16
ENDBRANCH   1  14
TORSDOF 4
ENDMDL
MODEL 9
REMARK VINA RESULT:      -7.9      3.040      3.815
REMARK  4 active torsions:
REMARK  status: ('A' for Active; 'I' for Inactive)
REMARK    1  A    between atoms: O1_2  and  C2_3 
REMARK    2  A    between atoms: C6_9  and  C7_10 
REMARK    3  A    between atoms: C7_10  and  N3_11 
REMARK    4  A    between atoms: N3_11  and  C8_12 
ROOT
HETATM    1  C7  UNL     1      24.300   1.404  52.190  1.00  0.00     0.121 C 
ENDROOT
BRANCH   1   2
HETATM    2  C6  UNL     1      23.111   1.170  51.662  1.00  0.00     0.086 A 
HETATM    3  N2  UNL     1      22.221   0.397  52.298  1.00  0.00    -0.240 NA
HETATM    4  C5  UNL     1      20.999   0.113  51.824  1.00  0.00     0.234 A 
HETATM    5  N1  UNL     1      20.685   0.654  50.634  1.00  0.00    -0.241 NA
HETATM    6  C4  UNL     1      21.530   1.442  49.934  1.00  0.00     0.074 A 
HETATM    7  C3  UNL     1      21.102   1.985  48.639  1.00  0.00     0.069 A 
HETATM    8  C17 UNL     1      22.801   1.730  50.442  1.00  0.00     0.034 A 
HETATM    9  C2  UNL     1      22.002   2.743  48.030  1.00  0.00     0.071 A 
HETATM   10  C19 UNL     1      23.304   2.986  48.641  1.00  0.00     0.050 A 
HETATM   11  C18 UNL     1      23.640   2.486  49.794  1.00  0.00    -0.007 A 
BRANCH   9  12
HETATM   12  O1  UNL     1      21.547   3.230  46.814  1.00  0.00    -0.356 OA
HETATM   13  C1  UNL     1      20.522   4.204  46.846  1.00  0.00     0.210 C 
ENDBRANCH   9  12
ENDBRANCH   1   2
BRANCH   1  14
HETATM   14  N3  UNL     1      24.971   0.679  53.192  1.00  0.00    -0.362 N 
HETATM   15  H7  UNL     1      24.524  -0.095  53.766  1.00  0.00     0.165 HD
BRANCH  14  16
HETATM   16  C8  UNL     1      26.309   0.961  53.483  1.00  0.00     0.060 A 
HETATM   17  C9  UNL     1      26.863   2.163  53.904  1.00  0.00     0.146 A 
HETATM   18  N4  UNL     1      28.169   2.308  54.161  1.00  0.00    -0.270 NA
HETATM   19  C10 UNL     1      29.056   1.298  54.032  1.00  0.00     0.128 A 
HETATM   20  C11 UNL     1      28.543   0.084  53.615  1.00  0.00    -0.006 A 
HETATM   21  C12 UNL     1      29.492  -0.929  53.496  1.00  0.00     0.014 A 
HETATM   22  C16 UNL     1      27.197  -0.106  53.338  1.00  0.00     0.004 A 
HETATM   23  C13 UNL     1      29.057  -2.175  53.083  1.00  0.00     0.001 A 
HETATM   24  C14 UNL     1      27.725  -2.398  52.801  1.00  0.00     0.001 A 
HETATM   25  C15 UNL     1      26.830  -1.378  52.930  1.00  0.00     0.014 A 
ENDBRANCH  14  16
ENDBRANCH   1  14
TORSDOF 4
ENDMDL
