MODEL 1
REMARK VINA RESULT:      -9.9      0.000      0.000
REMARK  5 active torsions:
REMARK  status: ('A' for Active; 'I' for Inactive)
REMARK    1  A    between atoms: N2_4  and  C3_5 
REMARK    2  A    between atoms: C3_5  and  N3_6 
REMARK    3  A    between atoms: N4_7  and  C4_8 
REMARK    4  A    between atoms: C4_8  and  C5_9 
REMARK    5  A    between atoms: C5_9  and  O1_10 
ROOT
HETATM    1  N1  UNL     1      26.076   4.508  50.554  1.00  0.00    -0.288 N 
HETATM    2  C1  UNL     1      25.519   3.369  50.879  1.00  0.00     0.142 A 
HETATM    3  C2  UNL     1      24.506   3.584  49.864  1.00  0.00     0.174 A 
HETATM    4  N2  UNL     1      25.202   4.638  49.702  1.00  0.00    -0.251 N 
HETATM    5  N5  UNL     1      23.444   3.583  48.963  1.00  0.00    -0.261 NA
HETATM    6  C6  UNL     1      22.651   4.546  48.819  1.00  0.00     0.076 C 
HETATM    7  C7  UNL     1      21.961   5.054  49.786  1.00  0.00     0.193 C 
HETATM    8  C8  UNL     1      22.052   3.943  50.607  1.00  0.00     0.230 C 
HETATM    9  O2  UNL     1      22.573   4.694  51.481  1.00  0.00    -0.273 OA
HETATM   10  N6  UNL     1      22.147   2.875  51.417  1.00  0.00    -0.327 N 
HETATM   11  C9  UNL     1      22.246   1.773  52.255  1.00  0.00     0.036 A 
HETATM   12  C10 UNL     1      21.546   0.637  52.319  1.00  0.00     0.029 A 
HETATM   13  C11 UNL     1      22.446  -0.352  52.806  1.00  0.00     0.004 A 
HETATM   14  C12 UNL     1      23.780  -0.027  53.102  1.00  0.00     0.030 A 
HETATM   15  C13 UNL     1      24.089   1.296  52.883  1.00  0.00     0.043 A 
HETATM   16  C14 UNL     1      23.424   2.400  52.452  1.00  0.00     0.059 A 
HETATM   17  N7  UNL     1      25.508   1.559  52.865  1.00  0.00    -0.292 N 
HETATM   18  C15 UNL     1      25.943   2.441  51.917  1.00  0.00     0.168 A 
HETATM   19  N8  UNL     1      27.305   2.474  52.025  1.00  0.00    -0.226 NA
HETATM   20  C16 UNL     1      27.707   1.660  52.990  1.00  0.00     0.086 A 
HETATM   21  C17 UNL     1      29.002   1.388  53.449  1.00  0.00     0.034 A 
HETATM   22  C18 UNL     1      29.032   0.492  54.483  1.00  0.00     0.002 A 
HETATM   23  C19 UNL     1      27.915  -0.089  55.024  1.00  0.00     0.002 A 
HETATM   24  C20 UNL     1      26.666   0.214  54.535  1.00  0.00     0.032 A 
HETATM   25  C21 UNL     1      26.564   1.101  53.501  1.00  0.00     0.070 A 
HETATM   26  H1  UNL     1      26.941   4.841  51.057  1.00  0.00     0.187 HD
HETATM   27  H10 UNL     1      21.654   2.554  50.521  1.00  0.00     0.169 HD
ENDROOT
BRANCH   4  28
HETATM   28  C3  UNL     1      25.108   5.734  48.838  1.00  0.00     0.323 C 
BRANCH  28  29
HETATM   29  N3  UNL     1      26.304   6.226  48.256  1.00  0.00    -0.176 NA
HETATM   30  N4  UNL     1      26.892   7.199  48.694  1.00  0.00    -0.194 NA
BRANCH  30  31
HETATM   31  C4  UNL     1      26.575   8.023  49.793  1.00  0.00     0.199 C 
BRANCH  31  32
HETATM   32  C5  UNL     1      27.511   9.232  49.936  1.00  0.00     0.187 C 
BRANCH  32  33
HETATM   33  O1  UNL     1      27.640   9.544  51.280  1.00  0.00    -0.399 OA
HETATM   34  H8  UNL     1      27.145  10.402  51.430  1.00  0.00     0.209 HD
ENDBRANCH  32  33
ENDBRANCH  31  32
ENDBRANCH  30  31
ENDBRANCH  28  29
ENDBRANCH   4  28
TORSDOF 5
ENDMDL
MODEL 2
REMARK VINA RESULT:      -9.7      2.445      6.077
REMARK  5 active torsions:
REMARK  status: ('A' for Active; 'I' for Inactive)
REMARK    1  A    between atoms: N2_4  and  C3_5 
REMARK    2  A    between atoms: C3_5  and  N3_6 
REMARK    3  A    between atoms: N4_7  and  C4_8 
REMARK    4  A    between atoms: C4_8  and  C5_9 
REMARK    5  A    between atoms: C5_9  and  O1_10 
ROOT
HETATM    1  N1  UNL     1      26.519   0.687  51.476  1.00  0.00    -0.288 N 
HETATM    2  C1  UNL     1      25.774   1.743  51.683  1.00  0.00     0.142 A 
HETATM    3  C2  UNL     1      25.204   1.101  52.852  1.00  0.00     0.174 A 
HETATM    4  N2  UNL     1      26.014   0.192  52.479  1.00  0.00    -0.251 N 
HETATM    5  N5  UNL     1      24.528   0.684  53.996  1.00  0.00    -0.261 NA
HETATM    6  C6  UNL     1      23.934  -0.419  54.091  1.00  0.00     0.076 C 
HETATM    7  C7  UNL     1      23.004  -0.802  53.279  1.00  0.00     0.193 C 
HETATM    8  C8  UNL     1      22.693   0.470  52.830  1.00  0.00     0.230 C 
HETATM    9  O2  UNL     1      22.949   0.065  51.660  1.00  0.00    -0.273 OA
HETATM   10  N6  UNL     1      22.394   1.700  52.376  1.00  0.00    -0.327 N 
HETATM   11  C9  UNL     1      22.085   2.969  51.907  1.00  0.00     0.036 A 
HETATM   12  C10 UNL     1      21.298   3.932  52.393  1.00  0.00     0.029 A 
HETATM   13  C11 UNL     1      21.870   5.162  51.962  1.00  0.00     0.004 A 
HETATM   14  C12 UNL     1      23.043   5.178  51.190  1.00  0.00     0.030 A 
HETATM   15  C13 UNL     1      23.538   3.925  50.909  1.00  0.00     0.043 A 
HETATM   16  C14 UNL     1      23.177   2.644  51.184  1.00  0.00     0.059 A 
HETATM   17  N7  UNL     1      24.893   3.942  50.413  1.00  0.00    -0.292 N 
HETATM   18  C15 UNL     1      25.716   2.957  50.882  1.00  0.00     0.168 A 
HETATM   19  N8  UNL     1      26.951   3.211  50.355  1.00  0.00    -0.226 NA
HETATM   20  C16 UNL     1      26.910   4.294  49.594  1.00  0.00     0.086 A 
HETATM   21  C17 UNL     1      27.931   4.910  48.859  1.00  0.00     0.034 A 
HETATM   22  C18 UNL     1      27.509   6.018  48.173  1.00  0.00     0.002 A 
HETATM   23  C19 UNL     1      26.222   6.487  48.194  1.00  0.00     0.002 A 
HETATM   24  C20 UNL     1      25.258   5.843  48.934  1.00  0.00     0.032 A 
HETATM   25  C21 UNL     1      25.611   4.731  49.644  1.00  0.00     0.070 A 
HETATM   26  H1  UNL     1      27.183   0.656  50.657  1.00  0.00     0.187 HD
HETATM   27  H10 UNL     1      22.215   1.697  53.434  1.00  0.00     0.169 HD
ENDROOT
BRANCH   4  28
HETATM   28  C3  UNL     1      26.335  -1.077  52.973  1.00  0.00     0.323 C 
BRANCH  28  29
HETATM   29  N3  UNL     1      27.703  -1.448  53.009  1.00  0.00    -0.176 NA
HETATM   30  N4  UNL     1      28.502  -0.928  53.768  1.00  0.00    -0.194 NA
BRANCH  30  31
HETATM   31  C4  UNL     1      28.304   0.088  54.724  1.00  0.00     0.199 C 
BRANCH  31  32
HETATM   32  C5  UNL     1      29.073   1.379  54.408  1.00  0.00     0.187 C 
BRANCH  32  33
HETATM   33  O1  UNL     1      29.095   1.565  53.035  1.00  0.00    -0.399 OA
HETATM   34  H8  UNL     1      28.593   0.799  52.628  1.00  0.00     0.209 HD
ENDBRANCH  32  33
ENDBRANCH  31  32
ENDBRANCH  30  31
ENDBRANCH  28  29
ENDBRANCH   4  28
TORSDOF 5
ENDMDL
MODEL 3
REMARK VINA RESULT:      -9.3      1.997      2.452
REMARK  5 active torsions:
REMARK  status: ('A' for Active; 'I' for Inactive)
REMARK    1  A    between atoms: N2_4  and  C3_5 
REMARK    2  A    between atoms: C3_5  and  N3_6 
REMARK    3  A    between atoms: N4_7  and  C4_8 
REMARK    4  A    between atoms: C4_8  and  C5_9 
REMARK    5  A    between atoms: C5_9  and  O1_10 
ROOT
HETATM    1  N1  UNL     1      26.297   4.787  49.980  1.00  0.00    -0.288 N 
HETATM    2  C1  UNL     1      25.228   4.099  50.293  1.00  0.00     0.142 A 
HETATM    3  C2  UNL     1      24.428   4.982  49.465  1.00  0.00     0.174 A 
HETATM    4  N2  UNL     1      25.578   5.499  49.286  1.00  0.00    -0.251 N 
HETATM    5  N5  UNL     1      23.477   5.694  48.740  1.00  0.00    -0.261 NA
HETATM    6  C6  UNL     1      23.348   6.942  48.798  1.00  0.00     0.076 C 
HETATM    7  C7  UNL     1      23.141   7.589  49.897  1.00  0.00     0.193 C 
HETATM    8  C8  UNL     1      22.663   6.497  50.601  1.00  0.00     0.230 C 
HETATM    9  O2  UNL     1      23.584   6.700  51.443  1.00  0.00    -0.273 OA
HETATM   10  N6  UNL     1      22.212   5.439  51.298  1.00  0.00    -0.327 N 
HETATM   11  C9  UNL     1      21.747   4.348  52.018  1.00  0.00     0.036 A 
HETATM   12  C10 UNL     1      20.541   3.780  52.095  1.00  0.00     0.029 A 
HETATM   13  C11 UNL     1      20.772   2.400  52.357  1.00  0.00     0.004 A 
HETATM   14  C12 UNL     1      22.079   1.899  52.471  1.00  0.00     0.030 A 
HETATM   15  C13 UNL     1      23.055   2.858  52.316  1.00  0.00     0.043 A 
HETATM   16  C14 UNL     1      23.086   4.196  52.083  1.00  0.00     0.059 A 
HETATM   17  N7  UNL     1      24.371   2.307  52.103  1.00  0.00    -0.292 N 
HETATM   18  C15 UNL     1      25.145   2.944  51.174  1.00  0.00     0.168 A 
HETATM   19  N8  UNL     1      26.298   2.216  51.076  1.00  0.00    -0.226 NA
HETATM   20  C16 UNL     1      26.255   1.178  51.898  1.00  0.00     0.086 A 
HETATM   21  C17 UNL     1      27.210   0.180  52.130  1.00  0.00     0.034 A 
HETATM   22  C18 UNL     1      26.819  -0.734  53.071  1.00  0.00     0.002 A 
HETATM   23  C19 UNL     1      25.617  -0.690  53.727  1.00  0.00     0.002 A 
HETATM   24  C20 UNL     1      24.714   0.313  53.461  1.00  0.00     0.032 A 
HETATM   25  C21 UNL     1      25.041   1.258  52.531  1.00  0.00     0.070 A 
HETATM   26  H1  UNL     1      27.238   4.515  50.371  1.00  0.00     0.187 HD
HETATM   27  H10 UNL     1      21.552   5.578  50.464  1.00  0.00     0.169 HD
ENDROOT
BRANCH   4  28
HETATM   28  C3  UNL     1      26.041   6.587  48.538  1.00  0.00     0.323 C 
BRANCH  28  29
HETATM   29  N3  UNL     1      26.983   7.456  49.145  1.00  0.00    -0.176 NA
HETATM   30  N4  UNL     1      28.124   7.572  48.735  1.00  0.00    -0.194 NA
BRANCH  30  31
HETATM   31  C4  UNL     1      28.760   6.934  47.651  1.00  0.00     0.199 C 
BRANCH  31  32
HETATM   32  C5  UNL     1      29.715   5.811  48.080  1.00  0.00     0.187 C 
BRANCH  32  33
HETATM   33  O1  UNL     1      29.215   5.209  49.225  1.00  0.00    -0.399 OA
HETATM   34  H8  UNL     1      28.428   4.656  48.944  1.00  0.00     0.209 HD
ENDBRANCH  32  33
ENDBRANCH  31  32
ENDBRANCH  30  31
ENDBRANCH  28  29
ENDBRANCH   4  28
TORSDOF 5
ENDMDL
MODEL 4
REMARK VINA RESULT:      -9.3      1.901      4.486
REMARK  5 active torsions:
REMARK  status: ('A' for Active; 'I' for Inactive)
REMARK    1  A    between atoms: N2_4  and  C3_5 
REMARK    2  A    between atoms: C3_5  and  N3_6 
REMARK    3  A    between atoms: N4_7  and  C4_8 
REMARK    4  A    between atoms: C4_8  and  C5_9 
REMARK    5  A    between atoms: C5_9  and  O1_10 
ROOT
HETATM    1  N1  UNL     1      22.803   3.224  49.759  1.00  0.00    -0.288 N 
HETATM    2  C1  UNL     1      23.494   3.005  50.848  1.00  0.00     0.142 A 
HETATM    3  C2  UNL     1      24.307   4.170  50.556  1.00  0.00     0.174 A 
HETATM    4  N2  UNL     1      23.511   4.205  49.562  1.00  0.00    -0.251 N 
HETATM    5  N5  UNL     1      25.203   5.233  50.476  1.00  0.00    -0.261 NA
HETATM    6  C6  UNL     1      25.882   5.495  49.453  1.00  0.00     0.076 C 
HETATM    7  C7  UNL     1      26.679   4.650  48.888  1.00  0.00     0.193 C 
HETATM    8  C8  UNL     1      26.813   3.836  49.999  1.00  0.00     0.230 C 
HETATM    9  O2  UNL     1      26.384   2.881  49.290  1.00  0.00    -0.273 OA
HETATM   10  N6  UNL     1      26.937   3.031  51.069  1.00  0.00    -0.327 N 
HETATM   11  C9  UNL     1      27.066   2.199  52.172  1.00  0.00     0.036 A 
HETATM   12  C10 UNL     1      27.855   2.261  53.248  1.00  0.00     0.029 A 
HETATM   13  C11 UNL     1      27.128   1.643  54.304  1.00  0.00     0.004 A 
HETATM   14  C12 UNL     1      25.840   1.129  54.086  1.00  0.00     0.030 A 
HETATM   15  C13 UNL     1      25.394   1.282  52.793  1.00  0.00     0.043 A 
HETATM   16  C14 UNL     1      25.890   1.805  51.641  1.00  0.00     0.059 A 
HETATM   17  N7  UNL     1      23.975   1.065  52.645  1.00  0.00    -0.292 N 
HETATM   18  C15 UNL     1      23.322   1.920  51.804  1.00  0.00     0.168 A 
HETATM   19  N8  UNL     1      21.998   1.590  51.879  1.00  0.00    -0.226 NA
HETATM   20  C16 UNL     1      21.825   0.580  52.719  1.00  0.00     0.086 A 
HETATM   21  C17 UNL     1      20.649  -0.082  53.093  1.00  0.00     0.034 A 
HETATM   22  C18 UNL     1      20.861  -1.098  53.985  1.00  0.00     0.002 A 
HETATM   23  C19 UNL     1      22.094  -1.444  54.472  1.00  0.00     0.002 A 
HETATM   24  C20 UNL     1      23.218  -0.759  54.072  1.00  0.00     0.032 A 
HETATM   25  C21 UNL     1      23.078   0.268  53.184  1.00  0.00     0.070 A 
HETATM   26  H1  UNL     1      22.009   2.582  49.495  1.00  0.00     0.187 HD
HETATM   27  H10 UNL     1      27.300   3.999  51.353  1.00  0.00     0.169 HD
ENDROOT
BRANCH   4  28
HETATM   28  C3  UNL     1      23.375   5.062  48.465  1.00  0.00     0.323 C 
BRANCH  28  29
HETATM   29  N3  UNL     1      22.135   5.730  48.294  1.00  0.00    -0.176 NA
HETATM   30  N4  UNL     1      21.955   6.877  48.663  1.00  0.00    -0.194 NA
BRANCH  30  31
HETATM   31  C4  UNL     1      22.842   7.768  49.299  1.00  0.00     0.199 C 
BRANCH  31  32
HETATM   32  C5  UNL     1      22.706   7.773  50.828  1.00  0.00     0.187 C 
BRANCH  32  33
HETATM   33  O1  UNL     1      23.970   7.853  51.392  1.00  0.00    -0.399 OA
HETATM   34  H8  UNL     1      24.607   7.431  50.743  1.00  0.00     0.209 HD
ENDBRANCH  32  33
ENDBRANCH  31  32
ENDBRANCH  30  31
ENDBRANCH  28  29
ENDBRANCH   4  28
TORSDOF 5
ENDMDL
MODEL 5
REMARK VINA RESULT:      -9.2      2.886      6.939
REMARK  5 active torsions:
REMARK  status: ('A' for Active; 'I' for Inactive)
REMARK    1  A    between atoms: N2_4  and  C3_5 
REMARK    2  A    between atoms: C3_5  and  N3_6 
REMARK    3  A    between atoms: N4_7  and  C4_8 
REMARK    4  A    between atoms: C4_8  and  C5_9 
REMARK    5  A    between atoms: C5_9  and  O1_10 
ROOT
HETATM    1  N1  UNL     1      24.027   0.619  53.918  1.00  0.00    -0.288 N 
HETATM    2  C1  UNL     1      23.505   0.554  52.719  1.00  0.00     0.142 A 
HETATM    3  C2  UNL     1      24.822   0.746  52.144  1.00  0.00     0.174 A 
HETATM    4  N2  UNL     1      25.120   0.769  53.382  1.00  0.00    -0.251 N 
HETATM    5  N5  UNL     1      25.975   0.919  51.383  1.00  0.00    -0.261 NA
HETATM    6  C6  UNL     1      26.795   1.854  51.561  1.00  0.00     0.076 C 
HETATM    7  C7  UNL     1      26.469   3.104  51.534  1.00  0.00     0.193 C 
HETATM    8  C8  UNL     1      25.300   2.917  50.817  1.00  0.00     0.230 C 
HETATM    9  O2  UNL     1      24.684   3.471  51.773  1.00  0.00    -0.273 OA
HETATM   10  N6  UNL     1      24.155   2.744  50.134  1.00  0.00    -0.327 N 
HETATM   11  C9  UNL     1      22.973   2.567  49.429  1.00  0.00     0.036 A 
HETATM   12  C10 UNL     1      22.723   2.448  48.123  1.00  0.00     0.029 A 
HETATM   13  C11 UNL     1      21.568   1.623  48.017  1.00  0.00     0.004 A 
HETATM   14  C12 UNL     1      20.943   1.109  49.165  1.00  0.00     0.030 A 
HETATM   15  C13 UNL     1      21.548   1.490  50.341  1.00  0.00     0.043 A 
HETATM   16  C14 UNL     1      22.613   2.258  50.692  1.00  0.00     0.059 A 
HETATM   17  N7  UNL     1      21.124   0.714  51.481  1.00  0.00    -0.292 N 
HETATM   18  C15 UNL     1      22.103   0.372  52.372  1.00  0.00     0.168 A 
HETATM   19  N8  UNL     1      21.502  -0.418  53.312  1.00  0.00    -0.226 NA
HETATM   20  C16 UNL     1      20.216  -0.566  53.031  1.00  0.00     0.086 A 
HETATM   21  C17 UNL     1      19.227  -1.279  53.719  1.00  0.00     0.034 A 
HETATM   22  C18 UNL     1      17.993  -1.194  53.133  1.00  0.00     0.002 A 
HETATM   23  C19 UNL     1      17.737  -0.486  51.988  1.00  0.00     0.002 A 
HETATM   24  C20 UNL     1      18.747   0.198  51.351  1.00  0.00     0.032 A 
HETATM   25  C21 UNL     1      20.004   0.153  51.883  1.00  0.00     0.070 A 
HETATM   26  H1  UNL     1      23.413   0.526  54.771  1.00  0.00     0.187 HD
HETATM   27  H10 UNL     1      24.954   2.387  49.514  1.00  0.00     0.169 HD
ENDROOT
BRANCH   4  28
HETATM   28  C3  UNL     1      26.320   0.926  54.083  1.00  0.00     0.323 C 
BRANCH  28  29
HETATM   29  N3  UNL     1      26.745  -0.139  54.918  1.00  0.00    -0.176 NA
HETATM   30  N4  UNL     1      27.911  -0.486  54.992  1.00  0.00    -0.194 NA
BRANCH  30  31
HETATM   31  C4  UNL     1      29.046   0.025  54.331  1.00  0.00     0.199 C 
BRANCH  31  32
HETATM   32  C5  UNL     1      29.772  -1.020  53.473  1.00  0.00     0.187 C 
BRANCH  32  33
HETATM   33  O1  UNL     1      29.037  -2.196  53.479  1.00  0.00    -0.399 OA
HETATM   34  H8  UNL     1      28.232  -2.041  52.903  1.00  0.00     0.209 HD
ENDBRANCH  32  33
ENDBRANCH  31  32
ENDBRANCH  30  31
ENDBRANCH  28  29
ENDBRANCH   4  28
TORSDOF 5
ENDMDL
MODEL 6
REMARK VINA RESULT:      -9.0      2.451      4.544
REMARK  5 active torsions:
REMARK  status: ('A' for Active; 'I' for Inactive)
REMARK    1  A    between atoms: N2_4  and  C3_5 
REMARK    2  A    between atoms: C3_5  and  N3_6 
REMARK    3  A    between atoms: N4_7  and  C4_8 
REMARK    4  A    between atoms: C4_8  and  C5_9 
REMARK    5  A    between atoms: C5_9  and  O1_10 
ROOT
HETATM    1  N1  UNL     1      27.522   5.898  49.031  1.00  0.00    -0.288 N 
HETATM    2  C1  UNL     1      26.254   5.675  49.270  1.00  0.00     0.142 A 
HETATM    3  C2  UNL     1      25.903   6.743  48.353  1.00  0.00     0.174 A 
HETATM    4  N2  UNL     1      27.172   6.784  48.258  1.00  0.00    -0.251 N 
HETATM    5  N5  UNL     1      25.341   7.715  47.530  1.00  0.00    -0.261 NA
HETATM    6  C6  UNL     1      25.686   8.923  47.542  1.00  0.00     0.076 C 
HETATM    7  C7  UNL     1      25.661   9.662  48.602  1.00  0.00     0.193 C 
HETATM    8  C8  UNL     1      24.761   8.869  49.292  1.00  0.00     0.230 C 
HETATM    9  O2  UNL     1      25.630   8.763  50.204  1.00  0.00    -0.273 OA
HETATM   10  N6  UNL     1      23.899   8.096  49.976  1.00  0.00    -0.327 N 
HETATM   11  C9  UNL     1      23.010   7.299  50.683  1.00  0.00     0.036 A 
HETATM   12  C10 UNL     1      21.677   7.226  50.673  1.00  0.00     0.029 A 
HETATM   13  C11 UNL     1      21.355   5.877  50.991  1.00  0.00     0.004 A 
HETATM   14  C12 UNL     1      22.367   4.933  51.230  1.00  0.00     0.030 A 
HETATM   15  C13 UNL     1      23.639   5.449  51.133  1.00  0.00     0.043 A 
HETATM   16  C14 UNL     1      24.186   6.664  50.867  1.00  0.00     0.059 A 
HETATM   17  N7  UNL     1      24.664   4.437  51.048  1.00  0.00    -0.292 N 
HETATM   18  C15 UNL     1      25.683   4.686  50.172  1.00  0.00     0.168 A 
HETATM   19  N8  UNL     1      26.481   3.577  50.193  1.00  0.00    -0.226 NA
HETATM   20  C16 UNL     1      25.996   2.679  51.036  1.00  0.00     0.086 A 
HETATM   21  C17 UNL     1      26.488   1.413  51.376  1.00  0.00     0.034 A 
HETATM   22  C18 UNL     1      25.718   0.765  52.305  1.00  0.00     0.002 A 
HETATM   23  C19 UNL     1      24.578   1.291  52.855  1.00  0.00     0.002 A 
HETATM   24  C20 UNL     1      24.139   2.541  52.484  1.00  0.00     0.032 A 
HETATM   25  C21 UNL     1      24.860   3.241  51.560  1.00  0.00     0.070 A 
HETATM   26  H1  UNL     1      28.262   5.318  49.509  1.00  0.00     0.187 HD
HETATM   27  H10 UNL     1      23.399   8.422  49.085  1.00  0.00     0.169 HD
ENDROOT
BRANCH   4  28
HETATM   28  C3  UNL     1      28.060   7.577  47.524  1.00  0.00     0.323 C 
BRANCH  28  29
HETATM   29  N3  UNL     1      29.105   8.230  48.228  1.00  0.00    -0.176 NA
HETATM   30  N4  UNL     1      30.262   7.854  48.174  1.00  0.00    -0.194 NA
BRANCH  30  31
HETATM   31  C4  UNL     1      30.826   6.772  47.468  1.00  0.00     0.199 C 
BRANCH  31  32
HETATM   32  C5  UNL     1      31.200   5.587  48.368  1.00  0.00     0.187 C 
BRANCH  32  33
HETATM   33  O1  UNL     1      30.393   5.605  49.495  1.00  0.00    -0.399 OA
HETATM   34  H8  UNL     1      31.000   5.681  50.289  1.00  0.00     0.209 HD
ENDBRANCH  32  33
ENDBRANCH  31  32
ENDBRANCH  30  31
ENDBRANCH  28  29
ENDBRANCH   4  28
TORSDOF 5
ENDMDL
MODEL 7
REMARK VINA RESULT:      -8.5      2.953      6.135
REMARK  5 active torsions:
REMARK  status: ('A' for Active; 'I' for Inactive)
REMARK    1  A    between atoms: N2_4  and  C3_5 
REMARK    2  A    between atoms: C3_5  and  N3_6 
REMARK    3  A    between atoms: N4_7  and  C4_8 
REMARK    4  A    between atoms: C4_8  and  C5_9 
REMARK    5  A    between atoms: C5_9  and  O1_10 
ROOT
HETATM    1  N1  UNL     1      20.864   2.504  51.912  1.00  0.00    -0.288 N 
HETATM    2  C1  UNL     1      22.071   2.968  51.711  1.00  0.00     0.142 A 
HETATM    3  C2  UNL     1      21.508   4.255  51.353  1.00  0.00     0.174 A 
HETATM    4  N2  UNL     1      20.438   3.614  51.612  1.00  0.00    -0.251 N 
HETATM    5  N5  UNL     1      21.193   5.558  50.976  1.00  0.00    -0.261 NA
HETATM    6  C6  UNL     1      20.353   5.842  50.085  1.00  0.00     0.076 C 
HETATM    7  C7  UNL     1      20.420   5.400  48.873  1.00  0.00     0.193 C 
HETATM    8  C8  UNL     1      21.771   5.100  48.920  1.00  0.00     0.230 C 
HETATM    9  O2  UNL     1      21.466   3.909  48.622  1.00  0.00    -0.273 OA
HETATM   10  N6  UNL     1      23.079   4.790  48.960  1.00  0.00    -0.327 N 
HETATM   11  C9  UNL     1      24.428   4.471  49.001  1.00  0.00     0.036 A 
HETATM   12  C10 UNL     1      25.525   5.210  48.818  1.00  0.00     0.029 A 
HETATM   13  C11 UNL     1      26.536   4.620  49.628  1.00  0.00     0.004 A 
HETATM   14  C12 UNL     1      26.260   3.488  50.412  1.00  0.00     0.030 A 
HETATM   15  C13 UNL     1      24.963   3.040  50.300  1.00  0.00     0.043 A 
HETATM   16  C14 UNL     1      23.855   3.410  49.606  1.00  0.00     0.059 A 
HETATM   17  N7  UNL     1      24.588   2.105  51.333  1.00  0.00    -0.292 N 
HETATM   18  C15 UNL     1      23.330   2.249  51.845  1.00  0.00     0.168 A 
HETATM   19  N8  UNL     1      23.220   1.328  52.849  1.00  0.00    -0.226 NA
HETATM   20  C16 UNL     1      24.346   0.640  52.963  1.00  0.00     0.086 A 
HETATM   21  C17 UNL     1      24.675  -0.398  53.845  1.00  0.00     0.034 A 
HETATM   22  C18 UNL     1      25.941  -0.884  53.660  1.00  0.00     0.002 A 
HETATM   23  C19 UNL     1      26.811  -0.412  52.711  1.00  0.00     0.002 A 
HETATM   24  C20 UNL     1      26.436   0.611  51.870  1.00  0.00     0.032 A 
HETATM   25  C21 UNL     1      25.185   1.142  52.002  1.00  0.00     0.070 A 
HETATM   26  H1  UNL     1      20.722   1.505  52.220  1.00  0.00     0.187 HD
HETATM   27  H10 UNL     1      22.993   5.844  49.141  1.00  0.00     0.169 HD
ENDROOT
BRANCH   4  28
HETATM   28  C3  UNL     1      19.081   3.953  51.589  1.00  0.00     0.323 C 
BRANCH  28  29
HETATM   29  N3  UNL     1      18.136   2.901  51.477  1.00  0.00    -0.176 NA
HETATM   30  N4  UNL     1      16.951   3.060  51.711  1.00  0.00    -0.194 NA
BRANCH  30  31
HETATM   31  C4  UNL     1      16.261   4.219  52.119  1.00  0.00     0.199 C 
BRANCH  31  32
HETATM   32  C5  UNL     1      15.012   3.919  52.960  1.00  0.00     0.187 C 
BRANCH  32  33
HETATM   33  O1  UNL     1      15.146   4.530  54.198  1.00  0.00    -0.399 OA
HETATM   34  H8  UNL     1      16.066   4.925  54.231  1.00  0.00     0.209 HD
ENDBRANCH  32  33
ENDBRANCH  31  32
ENDBRANCH  30  31
ENDBRANCH  28  29
ENDBRANCH   4  28
TORSDOF 5
ENDMDL
MODEL 8
REMARK VINA RESULT:      -8.3      3.606      6.666
REMARK  5 active torsions:
REMARK  status: ('A' for Active; 'I' for Inactive)
REMARK    1  A    between atoms: N2_4  and  C3_5 
REMARK    2  A    between atoms: C3_5  and  N3_6 
REMARK    3  A    between atoms: N4_7  and  C4_8 
REMARK    4  A    between atoms: C4_8  and  C5_9 
REMARK    5  A    between atoms: C5_9  and  O1_10 
ROOT
HETATM    1  N1  UNL     1      19.128   2.857  51.401  1.00  0.00    -0.288 N 
HETATM    2  C1  UNL     1      20.429   2.973  51.494  1.00  0.00     0.142 A 
HETATM    3  C2  UNL     1      20.358   4.240  50.794  1.00  0.00     0.174 A 
HETATM    4  N2  UNL     1      19.121   3.938  50.822  1.00  0.00    -0.251 N 
HETATM    5  N5  UNL     1      20.526   5.461  50.145  1.00  0.00    -0.261 NA
HETATM    6  C6  UNL     1      20.044   5.722  49.015  1.00  0.00     0.076 C 
HETATM    7  C7  UNL     1      20.275   5.014  47.959  1.00  0.00     0.193 C 
HETATM    8  C8  UNL     1      21.431   4.430  48.445  1.00  0.00     0.230 C 
HETATM    9  O2  UNL     1      20.883   3.306  48.258  1.00  0.00    -0.273 OA
HETATM   10  N6  UNL     1      22.547   3.845  48.915  1.00  0.00    -0.327 N 
HETATM   11  C9  UNL     1      23.699   3.241  49.399  1.00  0.00     0.036 A 
HETATM   12  C10 UNL     1      24.970   3.647  49.436  1.00  0.00     0.029 A 
HETATM   13  C11 UNL     1      25.545   3.039  50.587  1.00  0.00     0.004 A 
HETATM   14  C12 UNL     1      24.777   2.208  51.420  1.00  0.00     0.030 A 
HETATM   15  C13 UNL     1      23.475   2.057  51.002  1.00  0.00     0.043 A 
HETATM   16  C14 UNL     1      22.720   2.506  49.965  1.00  0.00     0.059 A 
HETATM   17  N7  UNL     1      22.611   1.491  52.010  1.00  0.00    -0.292 N 
HETATM   18  C15 UNL     1      21.360   2.033  52.101  1.00  0.00     0.168 A 
HETATM   19  N8  UNL     1      20.754   1.413  53.158  1.00  0.00    -0.226 NA
HETATM   20  C16 UNL     1      21.575   0.528  53.702  1.00  0.00     0.086 A 
HETATM   21  C17 UNL     1      21.372  -0.331  54.790  1.00  0.00     0.034 A 
HETATM   22  C18 UNL     1      22.455  -1.124  55.061  1.00  0.00     0.002 A 
HETATM   23  C19 UNL     1      23.625  -1.091  54.349  1.00  0.00     0.002 A 
HETATM   24  C20 UNL     1      23.771  -0.227  53.289  1.00  0.00     0.032 A 
HETATM   25  C21 UNL     1      22.730   0.594  52.964  1.00  0.00     0.070 A 
HETATM   26  H1  UNL     1      18.639   2.013  51.803  1.00  0.00     0.187 HD
HETATM   27  H10 UNL     1      22.723   4.903  48.898  1.00  0.00     0.169 HD
ENDROOT
BRANCH   4  28
HETATM   28  C3  UNL     1      17.963   4.566  50.350  1.00  0.00     0.323 C 
BRANCH  28  29
HETATM   29  N3  UNL     1      16.787   3.783  50.226  1.00  0.00    -0.176 NA
HETATM   30  N4  UNL     1      15.958   3.703  51.115  1.00  0.00    -0.194 NA
BRANCH  30  31
HETATM   31  C4  UNL     1      15.942   4.308  52.388  1.00  0.00     0.199 C 
BRANCH  31  32
HETATM   32  C5  UNL     1      14.658   4.024  53.180  1.00  0.00     0.187 C 
BRANCH  32  33
HETATM   33  O1  UNL     1      14.669   4.781  54.342  1.00  0.00    -0.399 OA
HETATM   34  H8  UNL     1      15.561   5.236  54.385  1.00  0.00     0.209 HD
ENDBRANCH  32  33
ENDBRANCH  31  32
ENDBRANCH  30  31
ENDBRANCH  28  29
ENDBRANCH   4  28
TORSDOF 5
ENDMDL
MODEL 9
REMARK VINA RESULT:      -8.3      2.860      5.529
REMARK  5 active torsions:
REMARK  status: ('A' for Active; 'I' for Inactive)
REMARK    1  A    between atoms: N2_4  and  C3_5 
REMARK    2  A    between atoms: C3_5  and  N3_6 
REMARK    3  A    between atoms: N4_7  and  C4_8 
REMARK    4  A    between atoms: C4_8  and  C5_9 
REMARK    5  A    between atoms: C5_9  and  O1_10 
ROOT
HETATM    1  N1  UNL     1      20.486   4.264  50.881  1.00  0.00    -0.288 N 
HETATM    2  C1  UNL     1      21.696   3.932  51.257  1.00  0.00     0.142 A 
HETATM    3  C2  UNL     1      22.198   5.180  50.714  1.00  0.00     0.174 A 
HETATM    4  N2  UNL     1      20.959   5.310  50.447  1.00  0.00    -0.251 N 
HETATM    5  N5  UNL     1      22.892   6.300  50.266  1.00  0.00    -0.261 NA
HETATM    6  C6  UNL     1      22.799   6.758  49.100  1.00  0.00     0.076 C 
HETATM    7  C7  UNL     1      23.037   6.061  48.038  1.00  0.00     0.193 C 
HETATM    8  C8  UNL     1      23.799   5.102  48.681  1.00  0.00     0.230 C 
HETATM    9  O2  UNL     1      22.984   4.237  48.250  1.00  0.00    -0.273 OA
HETATM   10  N6  UNL     1      24.528   4.156  49.300  1.00  0.00    -0.327 N 
HETATM   11  C9  UNL     1      25.280   3.180  49.937  1.00  0.00     0.036 A 
HETATM   12  C10 UNL     1      26.568   3.134  50.286  1.00  0.00     0.029 A 
HETATM   13  C11 UNL     1      26.631   2.317  51.450  1.00  0.00     0.004 A 
HETATM   14  C12 UNL     1      25.466   1.757  51.999  1.00  0.00     0.030 A 
HETATM   15  C13 UNL     1      24.320   2.070  51.304  1.00  0.00     0.043 A 
HETATM   16  C14 UNL     1      24.014   2.791  50.194  1.00  0.00     0.059 A 
HETATM   17  N7  UNL     1      23.109   1.783  52.034  1.00  0.00    -0.292 N 
HETATM   18  C15 UNL     1      22.110   2.708  51.927  1.00  0.00     0.168 A 
HETATM   19  N8  UNL     1      21.107   2.282  52.752  1.00  0.00    -0.226 NA
HETATM   20  C16 UNL     1      21.453   1.149  53.345  1.00  0.00     0.086 A 
HETATM   21  C17 UNL     1      20.738   0.361  54.256  1.00  0.00     0.034 A 
HETATM   22  C18 UNL     1      21.417  -0.760  54.650  1.00  0.00     0.002 A 
HETATM   23  C19 UNL     1      22.670  -1.091  54.207  1.00  0.00     0.002 A 
HETATM   24  C20 UNL     1      23.329  -0.280  53.311  1.00  0.00     0.032 A 
HETATM   25  C21 UNL     1      22.709   0.857  52.878  1.00  0.00     0.070 A 
HETATM   26  H1  UNL     1      19.675   3.617  51.068  1.00  0.00     0.187 HD
HETATM   27  H10 UNL     1      25.028   5.093  49.447  1.00  0.00     0.169 HD
ENDROOT
BRANCH   4  28
HETATM   28  C3  UNL     1      20.206   6.310  49.823  1.00  0.00     0.323 C 
BRANCH  28  29
HETATM   29  N3  UNL     1      18.880   5.995  49.431  1.00  0.00    -0.176 NA
HETATM   30  N4  UNL     1      18.624   5.446  48.374  1.00  0.00    -0.194 NA
BRANCH  30  31
HETATM   31  C4  UNL     1      19.491   5.016  47.350  1.00  0.00     0.199 C 
BRANCH  31  32
HETATM   32  C5  UNL     1      19.663   3.491  47.299  1.00  0.00     0.187 C 
BRANCH  32  33
HETATM   33  O1  UNL     1      19.233   2.949  48.500  1.00  0.00    -0.399 OA
HETATM   34  H8  UNL     1      18.260   2.733  48.392  1.00  0.00     0.209 HD
ENDBRANCH  32  33
ENDBRANCH  31  32
ENDBRANCH  30  31
ENDBRANCH  28  29
ENDBRANCH   4  28
TORSDOF 5
ENDMDL
