MODEL 1
REMARK VINA RESULT:      -9.0      0.000      0.000
REMARK  3 active torsions:
REMARK  status: ('A' for Active; 'I' for Inactive)
REMARK    1  A    between atoms: C4_5  and  N1_6 
REMARK    2  A    between atoms: N1_6  and  C5_7 
REMARK    3  A    between atoms: C6_10  and  C7_11 
ROOT
HETATM    1  C5  UNL     1      23.977   3.276  51.013  1.00  0.00     0.161 A 
HETATM    2  N2  UNL     1      24.091   3.211  52.382  1.00  0.00    -0.131 NA
HETATM    3  N3  UNL     1      23.309   2.297  53.031  1.00  0.00    -0.147 NA
HETATM    4  C6  UNL     1      22.501   1.563  52.203  1.00  0.00     0.100 A 
HETATM    5  C12 UNL     1      22.319   1.582  50.843  1.00  0.00     0.009 A 
HETATM    6  C13 UNL     1      21.409   0.769  50.205  1.00  0.00     0.015 A 
HETATM    7  C14 UNL     1      21.345   0.944  48.867  1.00  0.00     0.001 A 
HETATM    8  C15 UNL     1      22.134   1.857  48.180  1.00  0.00     0.001 A 
HETATM    9  C16 UNL     1      23.046   2.665  48.856  1.00  0.00     0.016 A 
HETATM   10  C17 UNL     1      23.133   2.523  50.193  1.00  0.00     0.024 A 
ENDROOT
BRANCH   1  11
HETATM   11  N1  UNL     1      24.894   4.072  50.321  1.00  0.00    -0.339 N 
HETATM   12  H3  UNL     1      24.587   3.631  49.400  1.00  0.00     0.167 HD
BRANCH  11  13
HETATM   13  C4  UNL     1      25.798   4.861  49.670  1.00  0.00     0.033 A 
HETATM   14  C3  UNL     1      26.907   4.123  49.268  1.00  0.00     0.031 A 
HETATM   15  C2  UNL     1      27.926   4.767  48.569  1.00  0.00     0.026 A 
HETATM   16  C1  UNL     1      27.751   6.098  48.334  1.00  0.00     0.034 A 
HETATM   17 CL1  UNL     1      29.002   6.953  47.433  1.00  0.00    -0.084 Cl
HETATM   18  C19 UNL     1      26.682   6.898  48.703  1.00  0.00     0.026 A 
HETATM   19  C18 UNL     1      25.684   6.239  49.391  1.00  0.00     0.031 A 
ENDBRANCH  11  13
ENDBRANCH   1  11
BRANCH   4  20
HETATM   20  C7  UNL     1      21.953   0.477  53.019  1.00  0.00    -0.002 A 
HETATM   21  C8  UNL     1      23.173   0.026  53.650  1.00  0.00     0.033 A 
HETATM   22  C9  UNL     1      23.372  -1.002  54.565  1.00  0.00     0.117 A 
HETATM   23  N4  UNL     1      22.236  -1.666  54.884  1.00  0.00    -0.273 NA
HETATM   24  C10 UNL     1      21.083  -1.296  54.332  1.00  0.00     0.117 A 
HETATM   25  C11 UNL     1      20.908  -0.269  53.428  1.00  0.00     0.033 A 
ENDBRANCH   4  20
TORSDOF 3
ENDMDL
MODEL 2
REMARK VINA RESULT:      -8.9      4.185      5.652
REMARK  3 active torsions:
REMARK  status: ('A' for Active; 'I' for Inactive)
REMARK    1  A    between atoms: C4_5  and  N1_6 
REMARK    2  A    between atoms: N1_6  and  C5_7 
REMARK    3  A    between atoms: C6_10  and  C7_11 
ROOT
HETATM    1  C5  UNL     1      23.059  -0.016  53.534  1.00  0.00     0.161 A 
HETATM    2  N2  UNL     1      22.305  -1.138  53.791  1.00  0.00    -0.131 NA
HETATM    3  N3  UNL     1      20.979  -1.085  53.467  1.00  0.00    -0.147 NA
HETATM    4  C6  UNL     1      20.581   0.108  52.924  1.00  0.00     0.100 A 
HETATM    5  C12 UNL     1      21.264   1.269  52.657  1.00  0.00     0.009 A 
HETATM    6  C13 UNL     1      20.651   2.386  52.135  1.00  0.00     0.015 A 
HETATM    7  C14 UNL     1      21.471   3.445  51.963  1.00  0.00     0.001 A 
HETATM    8  C15 UNL     1      22.824   3.418  52.274  1.00  0.00     0.001 A 
HETATM    9  C16 UNL     1      23.414   2.270  52.801  1.00  0.00     0.016 A 
HETATM   10  C17 UNL     1      22.624   1.195  52.992  1.00  0.00     0.024 A 
ENDROOT
BRANCH   1  11
HETATM   11  N1  UNL     1      24.445  -0.115  53.689  1.00  0.00    -0.339 N 
HETATM   12  H3  UNL     1      24.387   0.444  54.595  1.00  0.00     0.167 HD
BRANCH  11  13
HETATM   13  C4  UNL     1      25.799  -0.226  53.816  1.00  0.00     0.033 A 
HETATM   14  C3  UNL     1      26.324  -1.076  52.847  1.00  0.00     0.031 A 
HETATM   15  C2  UNL     1      27.700  -1.293  52.815  1.00  0.00     0.026 A 
HETATM   16  C1  UNL     1      28.437  -0.641  53.758  1.00  0.00     0.034 A 
HETATM   17 CL1  UNL     1      30.186  -0.864  53.744  1.00  0.00    -0.084 Cl
HETATM   18  C19 UNL     1      27.989   0.215  54.752  1.00  0.00     0.026 A 
HETATM   19  C18 UNL     1      26.625   0.416  54.762  1.00  0.00     0.031 A 
ENDBRANCH  11  13
ENDBRANCH   1  11
BRANCH   4  20
HETATM   20  C7  UNL     1      19.230  -0.106  52.401  1.00  0.00    -0.002 A 
HETATM   21  C8  UNL     1      18.774  -1.102  53.344  1.00  0.00     0.033 A 
HETATM   22  C9  UNL     1      17.550  -1.756  53.423  1.00  0.00     0.117 A 
HETATM   23  N4  UNL     1      16.681  -1.389  52.452  1.00  0.00    -0.273 NA
HETATM   24  C10 UNL     1      17.046  -0.478  51.554  1.00  0.00     0.117 A 
HETATM   25  C11 UNL     1      18.268   0.161  51.497  1.00  0.00     0.033 A 
ENDBRANCH   4  20
TORSDOF 3
ENDMDL
MODEL 3
REMARK VINA RESULT:      -8.8      3.580      4.624
REMARK  3 active torsions:
REMARK  status: ('A' for Active; 'I' for Inactive)
REMARK    1  A    between atoms: C4_5  and  N1_6 
REMARK    2  A    between atoms: N1_6  and  C5_7 
REMARK    3  A    between atoms: C6_10  and  C7_11 
ROOT
HETATM    1  C5  UNL     1      25.631   2.807  51.656  1.00  0.00     0.161 A 
HETATM    2  N2  UNL     1      26.987   2.594  51.553  1.00  0.00    -0.131 NA
HETATM    3  N3  UNL     1      27.466   1.396  52.001  1.00  0.00    -0.147 NA
HETATM    4  C6  UNL     1      26.505   0.561  52.506  1.00  0.00     0.100 A 
HETATM    5  C12 UNL     1      25.149   0.708  52.659  1.00  0.00     0.009 A 
HETATM    6  C13 UNL     1      24.359  -0.260  53.238  1.00  0.00     0.015 A 
HETATM    7  C14 UNL     1      23.052   0.067  53.331  1.00  0.00     0.001 A 
HETATM    8  C15 UNL     1      22.534   1.272  52.875  1.00  0.00     0.001 A 
HETATM    9  C16 UNL     1      23.361   2.231  52.294  1.00  0.00     0.016 A 
HETATM   10  C17 UNL     1      24.673   1.941  52.190  1.00  0.00     0.024 A 
ENDROOT
BRANCH   1  11
HETATM   11  N1  UNL     1      25.102   3.945  51.039  1.00  0.00    -0.339 N 
HETATM   12  H3  UNL     1      24.327   3.354  50.607  1.00  0.00     0.167 HD
BRANCH  11  13
HETATM   13  C4  UNL     1      24.607   5.071  50.450  1.00  0.00     0.033 A 
HETATM   14  C3  UNL     1      23.885   5.836  51.360  1.00  0.00     0.031 A 
HETATM   15  C2  UNL     1      23.321   7.036  50.934  1.00  0.00     0.026 A 
HETATM   16  C1  UNL     1      23.526   7.370  49.628  1.00  0.00     0.034 A 
HETATM   17 CL1  UNL     1      22.851   8.892  49.046  1.00  0.00    -0.084 Cl
HETATM   18  C19 UNL     1      24.227   6.663  48.664  1.00  0.00     0.026 A 
HETATM   19  C18 UNL     1      24.779   5.480  49.111  1.00  0.00     0.031 A 
ENDBRANCH  11  13
ENDBRANCH   1  11
BRANCH   4  20
HETATM   20  C7  UNL     1      27.143  -0.745  52.681  1.00  0.00    -0.002 A 
HETATM   21  C8  UNL     1      28.384  -0.315  53.287  1.00  0.00     0.033 A 
HETATM   22  C9  UNL     1      29.471  -1.068  53.715  1.00  0.00     0.117 A 
HETATM   23  N4  UNL     1      29.318  -2.398  53.512  1.00  0.00    -0.273 NA
HETATM   24  C10 UNL     1      28.198  -2.852  52.956  1.00  0.00     0.117 A 
HETATM   25  C11 UNL     1      27.128  -2.085  52.541  1.00  0.00     0.033 A 
ENDBRANCH   4  20
TORSDOF 3
ENDMDL
MODEL 4
REMARK VINA RESULT:      -8.4      1.917      3.098
REMARK  3 active torsions:
REMARK  status: ('A' for Active; 'I' for Inactive)
REMARK    1  A    between atoms: C4_5  and  N1_6 
REMARK    2  A    between atoms: N1_6  and  C5_7 
REMARK    3  A    between atoms: C6_10  and  C7_11 
ROOT
HETATM    1  C5  UNL     1      24.956   2.653  50.791  1.00  0.00     0.161 A 
HETATM    2  N2  UNL     1      23.653   2.343  50.476  1.00  0.00    -0.131 NA
HETATM    3  N3  UNL     1      23.035   1.396  51.241  1.00  0.00    -0.147 NA
HETATM    4  C6  UNL     1      23.822   0.876  52.234  1.00  0.00     0.100 A 
HETATM    5  C12 UNL     1      25.124   1.118  52.596  1.00  0.00     0.009 A 
HETATM    6  C13 UNL     1      25.746   0.442  53.622  1.00  0.00     0.015 A 
HETATM    7  C14 UNL     1      27.035   0.790  53.820  1.00  0.00     0.001 A 
HETATM    8  C15 UNL     1      27.688   1.755  53.065  1.00  0.00     0.001 A 
HETATM    9  C16 UNL     1      27.029   2.422  52.033  1.00  0.00     0.016 A 
HETATM   10  C17 UNL     1      25.742   2.095  51.803  1.00  0.00     0.024 A 
ENDROOT
BRANCH   1  11
HETATM   11  N1  UNL     1      25.542   3.743  50.139  1.00  0.00    -0.339 N 
HETATM   12  H3  UNL     1      24.590   4.030  49.756  1.00  0.00     0.167 HD
BRANCH  11  13
HETATM   13  C4  UNL     1      26.140   4.798  49.514  1.00  0.00     0.033 A 
HETATM   14  C3  UNL     1      27.385   4.439  49.008  1.00  0.00     0.031 A 
HETATM   15  C2  UNL     1      28.132   5.391  48.318  1.00  0.00     0.026 A 
HETATM   16  C1  UNL     1      27.569   6.627  48.194  1.00  0.00     0.034 A 
HETATM   17 CL1  UNL     1      28.465   7.861  47.308  1.00  0.00    -0.084 Cl
HETATM   18  C19 UNL     1      26.342   7.059  48.670  1.00  0.00     0.026 A 
HETATM   19  C18 UNL     1      25.620   6.098  49.346  1.00  0.00     0.031 A 
ENDBRANCH  11  13
ENDBRANCH   1  11
BRANCH   4  20
HETATM   20  C7  UNL     1      22.933   0.099  53.101  1.00  0.00    -0.002 A 
HETATM   21  C8  UNL     1      21.762   0.946  53.046  1.00  0.00     0.033 A 
HETATM   22  C9  UNL     1      20.526   0.792  53.663  1.00  0.00     0.117 A 
HETATM   23  N4  UNL     1      20.441  -0.323  54.427  1.00  0.00    -0.273 NA
HETATM   24  C10 UNL     1      21.487  -1.140  54.516  1.00  0.00     0.117 A 
HETATM   25  C11 UNL     1      22.706  -0.967  53.892  1.00  0.00     0.033 A 
ENDBRANCH   4  20
TORSDOF 3
ENDMDL
MODEL 5
REMARK VINA RESULT:      -8.4      3.781      8.115
REMARK  3 active torsions:
REMARK  status: ('A' for Active; 'I' for Inactive)
REMARK    1  A    between atoms: C4_5  and  N1_6 
REMARK    2  A    between atoms: N1_6  and  C5_7 
REMARK    3  A    between atoms: C6_10  and  C7_11 
ROOT
HETATM    1  C5  UNL     1      23.154   1.840  52.002  1.00  0.00     0.161 A 
HETATM    2  N2  UNL     1      22.789   2.999  51.357  1.00  0.00    -0.131 NA
HETATM    3  N3  UNL     1      23.787   3.741  50.793  1.00  0.00    -0.147 NA
HETATM    4  C6  UNL     1      25.040   3.212  50.959  1.00  0.00     0.100 A 
HETATM    5  C12 UNL     1      25.483   2.082  51.599  1.00  0.00     0.009 A 
HETATM    6  C13 UNL     1      26.817   1.751  51.681  1.00  0.00     0.015 A 
HETATM    7  C14 UNL     1      27.070   0.619  52.373  1.00  0.00     0.001 A 
HETATM    8  C15 UNL     1      26.076  -0.161  52.948  1.00  0.00     0.001 A 
HETATM    9  C16 UNL     1      24.734   0.203  52.847  1.00  0.00     0.016 A 
HETATM   10  C17 UNL     1      24.444   1.331  52.169  1.00  0.00     0.024 A 
ENDROOT
BRANCH   1  11
HETATM   11  N1  UNL     1      22.135   0.981  52.425  1.00  0.00    -0.339 N 
HETATM   12  H3  UNL     1      22.849   0.382  52.941  1.00  0.00     0.167 HD
BRANCH  11  13
HETATM   13  C4  UNL     1      21.121   0.160  52.823  1.00  0.00     0.033 A 
HETATM   14  C3  UNL     1      19.955   0.423  52.111  1.00  0.00     0.031 A 
HETATM   15  C2  UNL     1      18.818  -0.338  52.374  1.00  0.00     0.026 A 
HETATM   16  C1  UNL     1      18.943  -1.299  53.334  1.00  0.00     0.034 A 
HETATM   17 CL1  UNL     1      17.539  -2.305  53.687  1.00  0.00    -0.084 Cl
HETATM   18  C19 UNL     1      20.063  -1.617  54.084  1.00  0.00     0.026 A 
HETATM   19  C18 UNL     1      21.177  -0.853  53.803  1.00  0.00     0.031 A 
ENDBRANCH  11  13
ENDBRANCH   1  11
BRANCH   4  20
HETATM   20  C7  UNL     1      25.929   3.974  50.079  1.00  0.00    -0.002 A 
HETATM   21  C8  UNL     1      25.373   5.294  50.279  1.00  0.00     0.033 A 
HETATM   22  C9  UNL     1      25.754   6.511  49.725  1.00  0.00     0.117 A 
HETATM   23  N4  UNL     1      26.799   6.409  48.869  1.00  0.00    -0.273 NA
HETATM   24  C10 UNL     1      27.350   5.219  48.645  1.00  0.00     0.117 A 
HETATM   25  C11 UNL     1      26.956   4.023  49.209  1.00  0.00     0.033 A 
ENDBRANCH   4  20
TORSDOF 3
ENDMDL
MODEL 6
REMARK VINA RESULT:      -8.4      4.620      7.035
REMARK  3 active torsions:
REMARK  status: ('A' for Active; 'I' for Inactive)
REMARK    1  A    between atoms: C4_5  and  N1_6 
REMARK    2  A    between atoms: N1_6  and  C5_7 
REMARK    3  A    between atoms: C6_10  and  C7_11 
ROOT
HETATM    1  C5  UNL     1      22.969   0.958  52.028  1.00  0.00     0.161 A 
HETATM    2  N2  UNL     1      24.029   1.520  51.353  1.00  0.00    -0.131 NA
HETATM    3  N3  UNL     1      25.282   1.255  51.828  1.00  0.00    -0.147 NA
HETATM    4  C6  UNL     1      25.303   0.451  52.936  1.00  0.00     0.100 A 
HETATM    5  C12 UNL     1      24.298  -0.128  53.671  1.00  0.00     0.009 A 
HETATM    6  C13 UNL     1      24.543  -0.883  54.796  1.00  0.00     0.015 A 
HETATM    7  C14 UNL     1      23.433  -1.351  55.407  1.00  0.00     0.001 A 
HETATM    8  C15 UNL     1      22.148  -1.106  54.944  1.00  0.00     0.001 A 
HETATM    9  C16 UNL     1      21.935  -0.337  53.801  1.00  0.00     0.016 A 
HETATM   10  C17 UNL     1      23.019   0.151  53.167  1.00  0.00     0.024 A 
ENDROOT
BRANCH   1  11
HETATM   11  N1  UNL     1      21.699   1.069  51.454  1.00  0.00    -0.339 N 
HETATM   12  H3  UNL     1      21.252   0.788  52.380  1.00  0.00     0.167 HD
BRANCH  11  13
HETATM   13  C4  UNL     1      20.473   1.185  50.868  1.00  0.00     0.033 A 
HETATM   14  C3  UNL     1      19.580   0.253  51.389  1.00  0.00     0.031 A 
HETATM   15  C2  UNL     1      18.269   0.240  50.919  1.00  0.00     0.026 A 
HETATM   16  C1  UNL     1      17.960   1.161  49.962  1.00  0.00     0.034 A 
HETATM   17 CL1  UNL     1      16.307   1.200  49.350  1.00  0.00    -0.084 Cl
HETATM   18  C19 UNL     1      18.790   2.114  49.394  1.00  0.00     0.026 A 
HETATM   19  C18 UNL     1      20.082   2.110  49.877  1.00  0.00     0.031 A 
ENDBRANCH  11  13
ENDBRANCH   1  11
BRANCH   4  20
HETATM   20  C7  UNL     1      26.700   0.060  53.136  1.00  0.00    -0.002 A 
HETATM   21  C8  UNL     1      27.258   1.356  53.452  1.00  0.00     0.033 A 
HETATM   22  C9  UNL     1      28.569   1.709  53.753  1.00  0.00     0.117 A 
HETATM   23  N4  UNL     1      29.426   0.662  53.731  1.00  0.00    -0.273 NA
HETATM   24  C10 UNL     1      28.970  -0.555  53.445  1.00  0.00     0.117 A 
HETATM   25  C11 UNL     1      27.662  -0.883  53.151  1.00  0.00     0.033 A 
ENDBRANCH   4  20
TORSDOF 3
ENDMDL
MODEL 7
REMARK VINA RESULT:      -8.2      4.147      5.870
REMARK  3 active torsions:
REMARK  status: ('A' for Active; 'I' for Inactive)
REMARK    1  A    between atoms: C4_5  and  N1_6 
REMARK    2  A    between atoms: N1_6  and  C5_7 
REMARK    3  A    between atoms: C6_10  and  C7_11 
ROOT
HETATM    1  C5  UNL     1      23.806   1.007  52.031  1.00  0.00     0.161 A 
HETATM    2  N2  UNL     1      23.631   1.869  50.973  1.00  0.00    -0.131 NA
HETATM    3  N3  UNL     1      22.362   2.313  50.733  1.00  0.00    -0.147 NA
HETATM    4  C6  UNL     1      21.423   1.821  51.601  1.00  0.00     0.100 A 
HETATM    5  C12 UNL     1      21.516   0.952  52.659  1.00  0.00     0.009 A 
HETATM    6  C13 UNL     1      20.418   0.551  53.388  1.00  0.00     0.015 A 
HETATM    7  C14 UNL     1      20.694  -0.328  54.375  1.00  0.00     0.001 A 
HETATM    8  C15 UNL     1      21.974  -0.790  54.648  1.00  0.00     0.001 A 
HETATM    9  C16 UNL     1      23.064  -0.365  53.891  1.00  0.00     0.016 A 
HETATM   10  C17 UNL     1      22.826   0.509  52.893  1.00  0.00     0.024 A 
ENDROOT
BRANCH   1  11
HETATM   11  N1  UNL     1      25.117   0.688  52.401  1.00  0.00    -0.339 N 
HETATM   12  H3  UNL     1      25.485   1.484  51.795  1.00  0.00     0.167 HD
BRANCH  11  13
HETATM   13  C4  UNL     1      26.385   0.355  52.778  1.00  0.00     0.033 A 
HETATM   14  C3  UNL     1      26.588  -1.019  52.690  1.00  0.00     0.031 A 
HETATM   15  C2  UNL     1      27.838  -1.538  53.020  1.00  0.00     0.026 A 
HETATM   16  C1  UNL     1      28.782  -0.635  53.413  1.00  0.00     0.034 A 
HETATM   17 CL1  UNL     1      30.388  -1.240  53.819  1.00  0.00    -0.084 Cl
HETATM   18  C19 UNL     1      28.656   0.740  53.528  1.00  0.00     0.026 A 
HETATM   19  C18 UNL     1      27.411   1.230  53.193  1.00  0.00     0.031 A 
ENDBRANCH  11  13
ENDBRANCH   1  11
BRANCH   4  20
HETATM   20  C7  UNL     1      20.202   2.596  51.371  1.00  0.00    -0.002 A 
HETATM   21  C8  UNL     1      19.770   1.982  50.135  1.00  0.00     0.033 A 
HETATM   22  C9  UNL     1      18.655   2.253  49.351  1.00  0.00     0.117 A 
HETATM   23  N4  UNL     1      17.882   3.251  49.841  1.00  0.00    -0.273 NA
HETATM   24  C10 UNL     1      18.231   3.855  50.975  1.00  0.00     0.117 A 
HETATM   25  C11 UNL     1      19.343   3.566  51.738  1.00  0.00     0.033 A 
ENDBRANCH   4  20
TORSDOF 3
ENDMDL
MODEL 8
REMARK VINA RESULT:      -8.2      3.372      7.958
REMARK  3 active torsions:
REMARK  status: ('A' for Active; 'I' for Inactive)
REMARK    1  A    between atoms: C4_5  and  N1_6 
REMARK    2  A    between atoms: N1_6  and  C5_7 
REMARK    3  A    between atoms: C6_10  and  C7_11 
ROOT
HETATM    1  C5  UNL     1      25.263   3.089  50.274  1.00  0.00     0.161 A 
HETATM    2  N2  UNL     1      26.636   3.023  50.228  1.00  0.00    -0.131 NA
HETATM    3  N3  UNL     1      27.288   4.026  49.569  1.00  0.00    -0.147 NA
HETATM    4  C6  UNL     1      26.458   4.975  49.032  1.00  0.00     0.100 A 
HETATM    5  C12 UNL     1      25.091   5.100  49.020  1.00  0.00     0.009 A 
HETATM    6  C13 UNL     1      24.447   6.133  48.376  1.00  0.00     0.015 A 
HETATM    7  C14 UNL     1      23.099   6.080  48.446  1.00  0.00     0.001 A 
HETATM    8  C15 UNL     1      22.410   5.078  49.116  1.00  0.00     0.001 A 
HETATM    9  C16 UNL     1      23.093   4.047  49.758  1.00  0.00     0.016 A 
HETATM   10  C17 UNL     1      24.439   4.064  49.704  1.00  0.00     0.024 A 
ENDROOT
BRANCH   1  11
HETATM   11  N1  UNL     1      24.594   2.175  51.094  1.00  0.00    -0.339 N 
HETATM   12  H3  UNL     1      23.691   2.344  50.552  1.00  0.00     0.167 HD
BRANCH  11  13
HETATM   13  C4  UNL     1      23.966   1.278  51.908  1.00  0.00     0.033 A 
HETATM   14  C3  UNL     1      22.642   1.094  51.522  1.00  0.00     0.031 A 
HETATM   15  C2  UNL     1      21.851   0.194  52.233  1.00  0.00     0.026 A 
HETATM   16  C1  UNL     1      22.454  -0.446  53.276  1.00  0.00     0.034 A 
HETATM   17 CL1  UNL     1      21.502  -1.613  54.193  1.00  0.00    -0.084 Cl
HETATM   18  C19 UNL     1      23.759  -0.314  53.721  1.00  0.00     0.026 A 
HETATM   19  C18 UNL     1      24.522   0.580  53.000  1.00  0.00     0.031 A 
ENDBRANCH  11  13
ENDBRANCH   1  11
BRANCH   4  20
HETATM   20  C7  UNL     1      27.317   6.085  48.614  1.00  0.00    -0.002 A 
HETATM   21  C8  UNL     1      28.534   5.347  48.354  1.00  0.00     0.033 A 
HETATM   22  C9  UNL     1      29.773   5.803  47.918  1.00  0.00     0.117 A 
HETATM   23  N4  UNL     1      29.816   7.143  47.725  1.00  0.00    -0.273 NA
HETATM   24  C10 UNL     1      28.727   7.874  47.950  1.00  0.00     0.117 A 
HETATM   25  C11 UNL     1      27.505   7.398  48.381  1.00  0.00     0.033 A 
ENDBRANCH   4  20
TORSDOF 3
ENDMDL
MODEL 9
REMARK VINA RESULT:      -8.1      3.898      5.578
REMARK  3 active torsions:
REMARK  status: ('A' for Active; 'I' for Inactive)
REMARK    1  A    between atoms: C4_5  and  N1_6 
REMARK    2  A    between atoms: N1_6  and  C5_7 
REMARK    3  A    between atoms: C6_10  and  C7_11 
ROOT
HETATM    1  C5  UNL     1      24.270   2.144  51.499  1.00  0.00     0.161 A 
HETATM    2  N2  UNL     1      25.574   2.352  51.116  1.00  0.00    -0.131 NA
HETATM    3  N3  UNL     1      26.522   1.531  51.657  1.00  0.00    -0.147 NA
HETATM    4  C6  UNL     1      26.025   0.599  52.529  1.00  0.00     0.100 A 
HETATM    5  C12 UNL     1      24.751   0.343  52.972  1.00  0.00     0.009 A 
HETATM    6  C13 UNL     1      24.471  -0.637  53.898  1.00  0.00     0.015 A 
HETATM    7  C14 UNL     1      23.167  -0.728  54.238  1.00  0.00     0.001 A 
HETATM    8  C15 UNL     1      22.180   0.086  53.698  1.00  0.00     0.001 A 
HETATM    9  C16 UNL     1      22.497   1.068  52.762  1.00  0.00     0.016 A 
HETATM   10  C17 UNL     1      23.791   1.193  52.403  1.00  0.00     0.024 A 
ENDROOT
BRANCH   1  11
HETATM   11  N1  UNL     1      23.271   2.851  50.822  1.00  0.00    -0.339 N 
HETATM   12  H3  UNL     1      22.747   2.995  51.739  1.00  0.00     0.167 HD
BRANCH  11  13
HETATM   13  C4  UNL     1      22.312   3.537  50.136  1.00  0.00     0.033 A 
HETATM   14  C3  UNL     1      21.469   4.222  51.006  1.00  0.00     0.031 A 
HETATM   15  C2  UNL     1      20.438   4.995  50.476  1.00  0.00     0.026 A 
HETATM   16  C1  UNL     1      20.335   5.016  49.116  1.00  0.00     0.034 A 
HETATM   17 CL1  UNL     1      19.061   5.998  48.396  1.00  0.00    -0.084 Cl
HETATM   18  C19 UNL     1      21.130   4.361  48.189  1.00  0.00     0.026 A 
HETATM   19  C18 UNL     1      22.145   3.605  48.737  1.00  0.00     0.031 A 
ENDBRANCH  11  13
ENDBRANCH   1  11
BRANCH   4  20
HETATM   20  C7  UNL     1      27.115  -0.344  52.792  1.00  0.00    -0.002 A 
HETATM   21  C8  UNL     1      28.078   0.574  53.359  1.00  0.00     0.033 A 
HETATM   22  C9  UNL     1      29.362   0.331  53.833  1.00  0.00     0.117 A 
HETATM   23  N4  UNL     1      29.740  -0.964  53.725  1.00  0.00    -0.273 NA
HETATM   24  C10 UNL     1      28.896  -1.854  53.208  1.00  0.00     0.117 A 
HETATM   25  C11 UNL     1      27.622  -1.590  52.747  1.00  0.00     0.033 A 
ENDBRANCH   4  20
TORSDOF 3
ENDMDL
