MODEL 1
REMARK VINA RESULT:      -9.2      0.000      0.000
REMARK  2 active torsions:
REMARK  status: ('A' for Active; 'I' for Inactive)
REMARK    1  A    between atoms: O1_2  and  C2_3 
REMARK    2  A    between atoms: C8_9  and  C9_10 
ROOT
HETATM    1  C2  UNL     1      23.887   6.610  50.415  1.00  0.00     0.053 C 
HETATM    2  C3  UNL     1      23.951   5.871  51.499  1.00  0.00     0.006 C 
HETATM    3  C4  UNL     1      23.610   4.446  51.426  1.00  0.00     0.032 C 
HETATM    4  C5  UNL     1      22.436   4.000  52.235  1.00  0.00     0.031 C 
HETATM    5  C6  UNL     1      22.286   2.497  51.960  1.00  0.00     0.111 C 
HETATM    6  C7  UNL     1      23.074   1.793  53.007  1.00  0.00     0.088 C 
HETATM    7  C8  UNL     1      24.357   1.507  52.366  1.00  0.00     0.067 C 
HETATM    8  N1  UNL     1      24.265   1.709  51.130  1.00  0.00    -0.180 NA
HETATM    9  N2  UNL     1      22.963   2.147  50.721  1.00  0.00    -0.289 N 
HETATM   10  C17 UNL     1      22.517   2.241  49.422  1.00  0.00     0.155 C 
HETATM   11  C18 UNL     1      21.992   1.855  48.320  1.00  0.00    -0.001 C 
HETATM   12  C19 UNL     1      21.739   2.511  47.085  1.00  0.00     0.028 C 
HETATM   13  C20 UNL     1      22.056   3.814  46.904  1.00  0.00     0.074 C 
HETATM   14  C21 UNL     1      22.630   4.855  47.652  1.00  0.00    -0.102 C 
HETATM   15  C22 UNL     1      23.083   5.715  48.260  1.00  0.00    -0.100 C 
HETATM   16  C23 UNL     1      23.614   6.782  49.001  1.00  0.00     0.158 C 
ENDROOT
BRANCH   7  17
HETATM   17  C9  UNL     1      25.630   1.027  52.943  1.00  0.00    -0.007 A 
HETATM   18  C10 UNL     1      26.433   1.931  53.603  1.00  0.00     0.016 A 
HETATM   19  C11 UNL     1      27.656   1.453  54.110  1.00  0.00     0.040 A 
HETATM   20  C12 UNL     1      27.989   0.107  53.920  1.00  0.00     0.102 A 
HETATM   21  C13 UNL     1      27.125  -0.729  53.247  1.00  0.00     0.103 A 
HETATM   22  O3  UNL     1      29.138  -0.534  54.342  1.00  0.00    -0.346 OA
HETATM   23  C14 UNL     1      25.904  -0.300  52.729  1.00  0.00     0.053 A 
HETATM   24  O2  UNL     1      27.452  -2.062  53.059  1.00  0.00    -0.346 OA
HETATM   25  C15 UNL     1      28.759  -2.580  53.109  1.00  0.00     0.202 C 
HETATM   26  C16 UNL     1      29.736  -1.480  53.450  1.00  0.00     0.202 C 
ENDBRANCH   7  17
BRANCH   1  27
HETATM   27  O1  UNL     1      24.282   7.900  50.847  1.00  0.00    -0.360 OA
HETATM   28  C1  UNL     1      25.111   8.741  50.101  1.00  0.00     0.209 C 
ENDBRANCH   1  27
TORSDOF 2
ENDMDL
MODEL 2
REMARK VINA RESULT:      -9.1      1.231      1.679
REMARK  2 active torsions:
REMARK  status: ('A' for Active; 'I' for Inactive)
REMARK    1  A    between atoms: O1_2  and  C2_3 
REMARK    2  A    between atoms: C8_9  and  C9_10 
ROOT
HETATM    1  C2  UNL     1      23.939   6.929  50.202  1.00  0.00     0.053 C 
HETATM    2  C3  UNL     1      23.774   6.167  51.258  1.00  0.00     0.006 C 
HETATM    3  C4  UNL     1      23.203   4.824  51.102  1.00  0.00     0.032 C 
HETATM    4  C5  UNL     1      21.900   4.571  51.786  1.00  0.00     0.031 C 
HETATM    5  C6  UNL     1      21.522   3.123  51.442  1.00  0.00     0.111 C 
HETATM    6  C7  UNL     1      22.077   2.271  52.528  1.00  0.00     0.088 C 
HETATM    7  C8  UNL     1      23.347   1.781  51.993  1.00  0.00     0.067 C 
HETATM    8  N1  UNL     1      23.407   2.022  50.763  1.00  0.00    -0.180 NA
HETATM    9  N2  UNL     1      22.244   2.687  50.257  1.00  0.00    -0.289 N 
HETATM   10  C17 UNL     1      21.945   2.885  48.927  1.00  0.00     0.155 C 
HETATM   11  C18 UNL     1      21.467   2.620  47.769  1.00  0.00    -0.001 C 
HETATM   12  C19 UNL     1      21.448   3.336  46.542  1.00  0.00     0.028 C 
HETATM   13  C20 UNL     1      21.997   4.568  46.439  1.00  0.00     0.074 C 
HETATM   14  C21 UNL     1      22.668   5.477  47.274  1.00  0.00    -0.102 C 
HETATM   15  C22 UNL     1      23.200   6.233  47.951  1.00  0.00    -0.100 C 
HETATM   16  C23 UNL     1      23.834   7.175  48.777  1.00  0.00     0.158 C 
ENDROOT
BRANCH   7  17
HETATM   17  C9  UNL     1      24.460   1.075  52.663  1.00  0.00    -0.007 A 
HETATM   18  C10 UNL     1      24.164  -0.010  53.459  1.00  0.00     0.016 A 
HETATM   19  C11 UNL     1      25.240  -0.639  54.113  1.00  0.00     0.040 A 
HETATM   20  C12 UNL     1      26.534  -0.138  53.925  1.00  0.00     0.102 A 
HETATM   21  C13 UNL     1      26.740   0.953  53.110  1.00  0.00     0.103 A 
HETATM   22  O3  UNL     1      27.703  -0.620  54.483  1.00  0.00    -0.346 OA
HETATM   23  C14 UNL     1      25.705   1.607  52.442  1.00  0.00     0.053 A 
HETATM   24  O2  UNL     1      28.019   1.449  52.921  1.00  0.00    -0.346 OA
HETATM   25  C15 UNL     1      29.099   1.231  53.796  1.00  0.00     0.202 C 
HETATM   26  C16 UNL     1      28.667   0.336  54.933  1.00  0.00     0.202 C 
ENDBRANCH   7  17
BRANCH   1  27
HETATM   27  O1  UNL     1      24.505   8.121  50.715  1.00  0.00    -0.360 OA
HETATM   28  C1  UNL     1      25.490   8.855  50.048  1.00  0.00     0.209 C 
ENDBRANCH   1  27
TORSDOF 2
ENDMDL
MODEL 3
REMARK VINA RESULT:      -8.6      4.206      7.422
REMARK  2 active torsions:
REMARK  status: ('A' for Active; 'I' for Inactive)
REMARK    1  A    between atoms: O1_2  and  C2_3 
REMARK    2  A    between atoms: C8_9  and  C9_10 
ROOT
HETATM    1  C2  UNL     1      21.866   3.304  47.585  1.00  0.00     0.053 C 
HETATM    2  C3  UNL     1      22.310   4.537  47.677  1.00  0.00     0.006 C 
HETATM    3  C4  UNL     1      23.036   4.958  48.880  1.00  0.00     0.032 C 
HETATM    4  C5  UNL     1      22.407   6.042  49.693  1.00  0.00     0.031 C 
HETATM    5  C6  UNL     1      23.346   6.267  50.887  1.00  0.00     0.111 C 
HETATM    6  C7  UNL     1      24.295   7.339  50.484  1.00  0.00     0.088 C 
HETATM    7  C8  UNL     1      25.485   6.619  50.031  1.00  0.00     0.067 C 
HETATM    8  N1  UNL     1      25.401   5.413  50.366  1.00  0.00    -0.180 NA
HETATM    9  N2  UNL     1      24.197   5.103  51.078  1.00  0.00    -0.289 N 
HETATM   10  C17 UNL     1      23.935   3.926  51.743  1.00  0.00     0.155 C 
HETATM   11  C18 UNL     1      23.923   3.094  52.716  1.00  0.00    -0.001 C 
HETATM   12  C19 UNL     1      23.414   1.774  52.856  1.00  0.00     0.028 C 
HETATM   13  C20 UNL     1      22.776   1.156  51.835  1.00  0.00     0.074 C 
HETATM   14  C21 UNL     1      22.414   1.448  50.509  1.00  0.00    -0.102 C 
HETATM   15  C22 UNL     1      22.099   1.683  49.433  1.00  0.00    -0.100 C 
HETATM   16  C23 UNL     1      21.689   1.968  48.121  1.00  0.00     0.158 C 
ENDROOT
BRANCH   7  17
HETATM   17  C9  UNL     1      26.681   7.104  49.310  1.00  0.00    -0.007 A 
HETATM   18  C10 UNL     1      27.290   6.260  48.407  1.00  0.00     0.016 A 
HETATM   19  C11 UNL     1      28.448   6.736  47.764  1.00  0.00     0.040 A 
HETATM   20  C12 UNL     1      28.913   8.020  48.068  1.00  0.00     0.102 A 
HETATM   21  C13 UNL     1      28.242   8.799  48.985  1.00  0.00     0.103 A 
HETATM   22  O3  UNL     1      30.026   8.649  47.542  1.00  0.00    -0.346 OA
HETATM   23  C14 UNL     1      27.091   8.370  49.645  1.00  0.00     0.053 A 
HETATM   24  O2  UNL     1      28.700  10.071  49.287  1.00  0.00    -0.346 OA
HETATM   25  C15 UNL     1      30.018  10.516  49.080  1.00  0.00     0.202 C 
HETATM   26  C16 UNL     1      30.836   9.423  48.434  1.00  0.00     0.202 C 
ENDBRANCH   7  17
BRANCH   1  27
HETATM   27  O1  UNL     1      21.235   3.252  46.318  1.00  0.00    -0.360 OA
HETATM   28  C1  UNL     1      21.686   3.965  45.204  1.00  0.00     0.209 C 
ENDBRANCH   1  27
TORSDOF 2
ENDMDL
MODEL 4
REMARK VINA RESULT:      -8.3      5.503      7.619
REMARK  2 active torsions:
REMARK  status: ('A' for Active; 'I' for Inactive)
REMARK    1  A    between atoms: O1_2  and  C2_3 
REMARK    2  A    between atoms: C8_9  and  C9_10 
ROOT
HETATM    1  C2  UNL     1      15.534  -1.168  52.363  1.00  0.00     0.053 C 
HETATM    2  C3  UNL     1      16.721  -1.371  51.839  1.00  0.00     0.006 C 
HETATM    3  C4  UNL     1      17.598  -0.227  51.566  1.00  0.00     0.032 C 
HETATM    4  C5  UNL     1      17.960   0.008  50.135  1.00  0.00     0.031 C 
HETATM    5  C6  UNL     1      18.848   1.261  50.130  1.00  0.00     0.111 C 
HETATM    6  C7  UNL     1      20.253   0.785  50.243  1.00  0.00     0.088 C 
HETATM    7  C8  UNL     1      20.564   0.901  51.667  1.00  0.00     0.067 C 
HETATM    8  N1  UNL     1      19.673   1.576  52.239  1.00  0.00    -0.180 NA
HETATM    9  N2  UNL     1      18.641   2.023  51.351  1.00  0.00    -0.289 N 
HETATM   10  C17 UNL     1      17.663   2.945  51.653  1.00  0.00     0.155 C 
HETATM   11  C18 UNL     1      17.122   4.098  51.777  1.00  0.00    -0.001 C 
HETATM   12  C19 UNL     1      15.840   4.524  52.219  1.00  0.00     0.028 C 
HETATM   13  C20 UNL     1      14.897   3.631  52.602  1.00  0.00     0.074 C 
HETATM   14  C21 UNL     1      14.774   2.237  52.715  1.00  0.00    -0.102 C 
HETATM   15  C22 UNL     1      14.658   1.099  52.794  1.00  0.00    -0.100 C 
HETATM   16  C23 UNL     1      14.497  -0.293  52.874  1.00  0.00     0.158 C 
ENDROOT
BRANCH   7  17
HETATM   17  C9  UNL     1      21.712   0.387  52.442  1.00  0.00    -0.007 A 
HETATM   18  C10 UNL     1      21.461  -0.423  53.528  1.00  0.00     0.016 A 
HETATM   19  C11 UNL     1      22.573  -0.867  54.268  1.00  0.00     0.040 A 
HETATM   20  C12 UNL     1      23.855  -0.471  53.870  1.00  0.00     0.102 A 
HETATM   21  C13 UNL     1      24.015   0.341  52.769  1.00  0.00     0.103 A 
HETATM   22  O3  UNL     1      25.053  -0.804  54.471  1.00  0.00    -0.346 OA
HETATM   23  C14 UNL     1      22.945   0.804  52.006  1.00  0.00     0.053 A 
HETATM   24  O2  UNL     1      25.284   0.733  52.373  1.00  0.00    -0.346 OA
HETATM   25  C15 UNL     1      26.415   0.744  53.208  1.00  0.00     0.202 C 
HETATM   26  C16 UNL     1      26.051   0.217  54.575  1.00  0.00     0.202 C 
ENDBRANCH   7  17
BRANCH   1  27
HETATM   27  O1  UNL     1      14.982  -2.466  52.492  1.00  0.00    -0.360 OA
HETATM   28  C1  UNL     1      15.748  -3.608  52.734  1.00  0.00     0.209 C 
ENDBRANCH   1  27
TORSDOF 2
ENDMDL
MODEL 5
REMARK VINA RESULT:      -8.2      2.962      8.479
REMARK  2 active torsions:
REMARK  status: ('A' for Active; 'I' for Inactive)
REMARK    1  A    between atoms: O1_2  and  C2_3 
REMARK    2  A    between atoms: C8_9  and  C9_10 
ROOT
HETATM    1  C2  UNL     1      21.533   0.470  53.328  1.00  0.00     0.053 C 
HETATM    2  C3  UNL     1      21.365   1.647  52.770  1.00  0.00     0.006 C 
HETATM    3  C4  UNL     1      22.498   2.304  52.109  1.00  0.00     0.032 C 
HETATM    4  C5  UNL     1      22.945   3.605  52.690  1.00  0.00     0.031 C 
HETATM    5  C6  UNL     1      24.141   4.054  51.838  1.00  0.00     0.111 C 
HETATM    6  C7  UNL     1      23.591   4.910  50.753  1.00  0.00     0.088 C 
HETATM    7  C8  UNL     1      23.460   4.008  49.609  1.00  0.00     0.067 C 
HETATM    8  N1  UNL     1      24.072   2.938  49.844  1.00  0.00    -0.180 NA
HETATM    9  N2  UNL     1      24.704   2.915  51.130  1.00  0.00    -0.289 N 
HETATM   10  C17 UNL     1      25.607   1.971  51.566  1.00  0.00     0.155 C 
HETATM   11  C18 UNL     1      26.748   1.419  51.747  1.00  0.00    -0.001 C 
HETATM   12  C19 UNL     1      27.153   0.223  52.398  1.00  0.00     0.028 C 
HETATM   13  C20 UNL     1      26.254  -0.584  53.008  1.00  0.00     0.074 C 
HETATM   14  C21 UNL     1      24.866  -0.613  53.224  1.00  0.00    -0.102 C 
HETATM   15  C22 UNL     1      23.737  -0.637  53.421  1.00  0.00    -0.100 C 
HETATM   16  C23 UNL     1      22.360  -0.666  53.686  1.00  0.00     0.158 C 
ENDROOT
BRANCH   7  17
HETATM   17  C9  UNL     1      22.776   4.198  48.313  1.00  0.00    -0.007 A 
HETATM   18  C10 UNL     1      22.413   3.081  47.593  1.00  0.00     0.016 A 
HETATM   19  C11 UNL     1      21.795   3.293  46.346  1.00  0.00     0.040 A 
HETATM   20  C12 UNL     1      21.585   4.606  45.908  1.00  0.00     0.102 A 
HETATM   21  C13 UNL     1      21.980   5.667  46.694  1.00  0.00     0.103 A 
HETATM   22  O3  UNL     1      21.002   5.005  44.721  1.00  0.00    -0.346 OA
HETATM   23  C14 UNL     1      22.594   5.504  47.935  1.00  0.00     0.053 A 
HETATM   24  O2  UNL     1      21.772   6.967  46.262  1.00  0.00    -0.346 OA
HETATM   25  C15 UNL     1      21.581   7.344  44.921  1.00  0.00     0.202 C 
HETATM   26  C16 UNL     1      21.582   6.120  44.037  1.00  0.00     0.202 C 
ENDBRANCH   7  17
BRANCH   1  27
HETATM   27  O1  UNL     1      20.258   0.146  53.852  1.00  0.00    -0.360 OA
HETATM   28  C1  UNL     1      19.252  -0.471  53.103  1.00  0.00     0.209 C 
ENDBRANCH   1  27
TORSDOF 2
ENDMDL
MODEL 6
REMARK VINA RESULT:      -8.1      4.186      7.454
REMARK  2 active torsions:
REMARK  status: ('A' for Active; 'I' for Inactive)
REMARK    1  A    between atoms: O1_2  and  C2_3 
REMARK    2  A    between atoms: C8_9  and  C9_10 
ROOT
HETATM    1  C2  UNL     1      25.668   1.034  52.441  1.00  0.00     0.053 C 
HETATM    2  C3  UNL     1      24.436   1.195  52.866  1.00  0.00     0.006 C 
HETATM    3  C4  UNL     1      23.582   2.213  52.244  1.00  0.00     0.032 C 
HETATM    4  C5  UNL     1      23.114   3.322  53.130  1.00  0.00     0.031 C 
HETATM    5  C6  UNL     1      22.275   4.245  52.235  1.00  0.00     0.111 C 
HETATM    6  C7  UNL     1      20.867   3.776  52.345  1.00  0.00     0.088 C 
HETATM    7  C8  UNL     1      20.677   2.919  51.175  1.00  0.00     0.067 C 
HETATM    8  N1  UNL     1      21.635   3.073  50.379  1.00  0.00    -0.180 NA
HETATM    9  N2  UNL     1      22.607   4.021  50.837  1.00  0.00    -0.289 N 
HETATM   10  C17 UNL     1      23.639   4.541  50.088  1.00  0.00     0.155 C 
HETATM   11  C18 UNL     1      24.231   5.341  49.283  1.00  0.00    -0.001 C 
HETATM   12  C19 UNL     1      25.559   5.405  48.781  1.00  0.00     0.028 C 
HETATM   13  C20 UNL     1      26.497   4.506  49.160  1.00  0.00     0.074 C 
HETATM   14  C21 UNL     1      26.577   3.385  50.003  1.00  0.00    -0.102 C 
HETATM   15  C22 UNL     1      26.658   2.480  50.702  1.00  0.00    -0.100 C 
HETATM   16  C23 UNL     1      26.774   1.384  51.571  1.00  0.00     0.158 C 
ENDROOT
BRANCH   7  17
HETATM   17  C9  UNL     1      19.577   1.992  50.836  1.00  0.00    -0.007 A 
HETATM   18  C10 UNL     1      18.854   2.224  49.686  1.00  0.00     0.016 A 
HETATM   19  C11 UNL     1      17.790   1.346  49.409  1.00  0.00     0.040 A 
HETATM   20  C12 UNL     1      17.524   0.300  50.299  1.00  0.00     0.102 A 
HETATM   21  C13 UNL     1      18.299   0.140  51.427  1.00  0.00     0.103 A 
HETATM   22  O3  UNL     1      16.527  -0.651  50.194  1.00  0.00    -0.346 OA
HETATM   23  C14 UNL     1      19.363   0.984  51.742  1.00  0.00     0.053 A 
HETATM   24  O2  UNL     1      18.038  -0.896  52.310  1.00  0.00    -0.346 OA
HETATM   25  C15 UNL     1      16.806  -1.566  52.415  1.00  0.00     0.202 C 
HETATM   26  C16 UNL     1      15.837  -1.026  51.390  1.00  0.00     0.202 C 
ENDBRANCH   7  17
BRANCH   1  27
HETATM   27  O1  UNL     1      26.182  -0.013  53.245  1.00  0.00    -0.360 OA
HETATM   28  C1  UNL     1      25.528  -0.506  54.377  1.00  0.00     0.209 C 
ENDBRANCH   1  27
TORSDOF 2
ENDMDL
MODEL 7
REMARK VINA RESULT:      -8.0      8.753     10.635
REMARK  2 active torsions:
REMARK  status: ('A' for Active; 'I' for Inactive)
REMARK    1  A    between atoms: O1_2  and  C2_3 
REMARK    2  A    between atoms: C8_9  and  C9_10 
ROOT
HETATM    1  C2  UNL     1      30.060  10.243  48.643  1.00  0.00     0.053 C 
HETATM    2  C3  UNL     1      31.201   9.601  48.540  1.00  0.00     0.006 C 
HETATM    3  C4  UNL     1      31.201   8.140  48.395  1.00  0.00     0.032 C 
HETATM    4  C5  UNL     1      31.853   7.362  49.491  1.00  0.00     0.031 C 
HETATM    5  C6  UNL     1      31.690   5.884  49.107  1.00  0.00     0.111 C 
HETATM    6  C7  UNL     1      32.905   5.511  48.334  1.00  0.00     0.088 C 
HETATM    7  C8  UNL     1      32.500   5.639  46.935  1.00  0.00     0.067 C 
HETATM    8  N1  UNL     1      31.253   5.759  46.866  1.00  0.00    -0.180 NA
HETATM    9  N2  UNL     1      30.608   5.735  48.146  1.00  0.00    -0.289 N 
HETATM   10  C17 UNL     1      29.252   5.636  48.362  1.00  0.00     0.155 C 
HETATM   11  C18 UNL     1      28.120   5.064  48.535  1.00  0.00    -0.001 C 
HETATM   12  C19 UNL     1      26.807   5.561  48.760  1.00  0.00     0.028 C 
HETATM   13  C20 UNL     1      26.565   6.890  48.846  1.00  0.00     0.074 C 
HETATM   14  C21 UNL     1      27.299   8.085  48.771  1.00  0.00    -0.102 C 
HETATM   15  C22 UNL     1      27.893   9.065  48.729  1.00  0.00    -0.100 C 
HETATM   16  C23 UNL     1      28.612  10.270  48.701  1.00  0.00     0.158 C 
ENDROOT
BRANCH   7  17
HETATM   17  C9  UNL     1      33.309   5.620  45.698  1.00  0.00    -0.007 A 
HETATM   18  C10 UNL     1      34.072   4.504  45.430  1.00  0.00     0.016 A 
HETATM   19  C11 UNL     1      34.860   4.530  44.264  1.00  0.00     0.040 A 
HETATM   20  C12 UNL     1      34.829   5.669  43.450  1.00  0.00     0.102 A 
HETATM   21  C13 UNL     1      34.036   6.741  43.794  1.00  0.00     0.103 A 
HETATM   22  O3  UNL     1      35.533   5.874  42.279  1.00  0.00    -0.346 OA
HETATM   23  C14 UNL     1      33.239   6.760  44.937  1.00  0.00     0.053 A 
HETATM   24  O2  UNL     1      34.004   7.869  42.989  1.00  0.00    -0.346 OA
HETATM   25  C15 UNL     1      35.008   8.226  42.071  1.00  0.00     0.202 C 
HETATM   26  C16 UNL     1      36.091   7.173  42.057  1.00  0.00     0.202 C 
ENDBRANCH   7  17
BRANCH   1  27
HETATM   27  O1  UNL     1      30.434  11.604  48.759  1.00  0.00    -0.360 OA
HETATM   28  C1  UNL     1      29.514  12.643  48.919  1.00  0.00     0.209 C 
ENDBRANCH   1  27
TORSDOF 2
ENDMDL
MODEL 8
REMARK VINA RESULT:      -7.9      3.610      8.862
REMARK  2 active torsions:
REMARK  status: ('A' for Active; 'I' for Inactive)
REMARK    1  A    between atoms: O1_2  and  C2_3 
REMARK    2  A    between atoms: C8_9  and  C9_10 
ROOT
HETATM    1  C2  UNL     1      23.219   0.360  53.074  1.00  0.00     0.053 C 
HETATM    2  C3  UNL     1      23.261   1.137  52.017  1.00  0.00     0.006 C 
HETATM    3  C4  UNL     1      22.022   1.441  51.291  1.00  0.00     0.032 C 
HETATM    4  C5  UNL     1      21.948   0.972  49.874  1.00  0.00     0.031 C 
HETATM    5  C6  UNL     1      20.560   1.391  49.368  1.00  0.00     0.111 C 
HETATM    6  C7  UNL     1      20.722   2.734  48.749  1.00  0.00     0.088 C 
HETATM    7  C8  UNL     1      20.323   3.670  49.800  1.00  0.00     0.067 C 
HETATM    8  N1  UNL     1      19.758   3.044  50.730  1.00  0.00    -0.180 NA
HETATM    9  N2  UNL     1      19.671   1.633  50.494  1.00  0.00    -0.289 N 
HETATM   10  C17 UNL     1      18.928   0.738  51.231  1.00  0.00     0.155 C 
HETATM   11  C18 UNL     1      17.901   0.059  51.582  1.00  0.00    -0.001 C 
HETATM   12  C19 UNL     1      17.676  -0.894  52.612  1.00  0.00     0.028 C 
HETATM   13  C20 UNL     1      18.667  -1.262  53.458  1.00  0.00     0.074 C 
HETATM   14  C21 UNL     1      20.022  -0.956  53.662  1.00  0.00    -0.102 C 
HETATM   15  C22 UNL     1      21.133  -0.726  53.826  1.00  0.00    -0.100 C 
HETATM   16  C23 UNL     1      22.499  -0.469  54.022  1.00  0.00     0.158 C 
ENDROOT
BRANCH   7  17
HETATM   17  C9  UNL     1      20.469   5.138  49.880  1.00  0.00    -0.007 A 
HETATM   18  C10 UNL     1      21.402   5.658  50.750  1.00  0.00     0.016 A 
HETATM   19  C11 UNL     1      21.493   7.060  50.833  1.00  0.00     0.040 A 
HETATM   20  C12 UNL     1      20.645   7.842  50.040  1.00  0.00     0.102 A 
HETATM   21  C13 UNL     1      19.740   7.239  49.195  1.00  0.00     0.103 A 
HETATM   22  O3  UNL     1      20.590   9.222  49.990  1.00  0.00    -0.346 OA
HETATM   23  C14 UNL     1      19.615   5.855  49.080  1.00  0.00     0.053 A 
HETATM   24  O2  UNL     1      18.900   8.011  48.409  1.00  0.00    -0.346 OA
HETATM   25  C15 UNL     1      18.566   9.351  48.672  1.00  0.00     0.202 C 
HETATM   26  C16 UNL     1      19.298   9.832  49.902  1.00  0.00     0.202 C 
ENDBRANCH   7  17
BRANCH   1  27
HETATM   27  O1  UNL     1      24.564   0.292  53.512  1.00  0.00    -0.360 OA
HETATM   28  C1  UNL     1      25.596  -0.258  52.747  1.00  0.00     0.209 C 
ENDBRANCH   1  27
TORSDOF 2
ENDMDL
MODEL 9
REMARK VINA RESULT:      -7.8      7.224     10.206
REMARK  2 active torsions:
REMARK  status: ('A' for Active; 'I' for Inactive)
REMARK    1  A    between atoms: O1_2  and  C2_3 
REMARK    2  A    between atoms: C8_9  and  C9_10 
ROOT
HETATM    1  C2  UNL     1      33.141   4.406  46.255  1.00  0.00     0.053 C 
HETATM    2  C3  UNL     1      32.534   4.865  47.325  1.00  0.00     0.006 C 
HETATM    3  C4  UNL     1      31.730   6.089  47.234  1.00  0.00     0.032 C 
HETATM    4  C5  UNL     1      32.188   7.250  48.053  1.00  0.00     0.031 C 
HETATM    5  C6  UNL     1      31.201   8.387  47.755  1.00  0.00     0.111 C 
HETATM    6  C7  UNL     1      30.125   8.294  48.778  1.00  0.00     0.088 C 
HETATM    7  C8  UNL     1      29.054   7.553  48.113  1.00  0.00     0.067 C 
HETATM    8  N1  UNL     1      29.291   7.482  46.883  1.00  0.00    -0.180 NA
HETATM    9  N2  UNL     1      30.510   8.132  46.501  1.00  0.00    -0.289 N 
HETATM   10  C17 UNL     1      30.912   8.392  45.209  1.00  0.00     0.155 C 
HETATM   11  C18 UNL     1      31.014   9.039  44.110  1.00  0.00    -0.001 C 
HETATM   12  C19 UNL     1      31.693   8.774  42.889  1.00  0.00     0.028 C 
HETATM   13  C20 UNL     1      32.431   7.652  42.726  1.00  0.00     0.074 C 
HETATM   14  C21 UNL     1      32.781   6.522  43.482  1.00  0.00    -0.102 C 
HETATM   15  C22 UNL     1      33.086   5.604  44.097  1.00  0.00    -0.100 C 
HETATM   16  C23 UNL     1      33.484   4.487  44.848  1.00  0.00     0.158 C 
ENDROOT
BRANCH   7  17
HETATM   17  C9  UNL     1      27.820   6.952  48.663  1.00  0.00    -0.007 A 
HETATM   18  C10 UNL     1      27.613   5.602  48.486  1.00  0.00     0.016 A 
HETATM   19  C11 UNL     1      26.413   5.065  48.989  1.00  0.00     0.040 A 
HETATM   20  C12 UNL     1      25.506   5.916  49.631  1.00  0.00     0.102 A 
HETATM   21  C13 UNL     1      25.794   7.257  49.766  1.00  0.00     0.103 A 
HETATM   22  O3  UNL     1      24.286   5.571  50.181  1.00  0.00    -0.346 OA
HETATM   23  C14 UNL     1      26.970   7.831  49.285  1.00  0.00     0.053 A 
HETATM   24  O2  UNL     1      24.899   8.100  50.402  1.00  0.00    -0.346 OA
HETATM   25  C15 UNL     1      23.527   7.835  50.566  1.00  0.00     0.202 C 
HETATM   26  C16 UNL     1      23.194   6.477  49.995  1.00  0.00     0.202 C 
ENDBRANCH   7  17
BRANCH   1  27
HETATM   27  O1  UNL     1      33.803   3.236  46.702  1.00  0.00    -0.360 OA
HETATM   28  C1  UNL     1      34.719   3.226  47.757  1.00  0.00     0.209 C 
ENDBRANCH   1  27
TORSDOF 2
ENDMDL
