MODEL 1
REMARK VINA RESULT:     -10.1      0.000      0.000
REMARK  2 active torsions:
REMARK  status: ('A' for Active; 'I' for Inactive)
REMARK    1  A    between atoms: C15_19  and  O3_20 
REMARK    2  A    between atoms: O3_20  and  C16_21 
ROOT
HETATM    1  C1  UNL     1      29.332   0.779  53.885  1.00  0.00    -0.102 C 
HETATM    2  C2  UNL     1      29.250  -0.157  53.673  1.00  0.00    -0.102 C 
HETATM    3  C3  UNL     1      29.105  -1.473  53.365  1.00  0.00     0.124 C 
HETATM    4  C4  UNL     1      27.460  -1.293  53.083  1.00  0.00     0.024 C 
HETATM    5  C5  UNL     1      26.699  -0.139  52.979  1.00  0.00     0.092 C 
HETATM    6  O1  UNL     1      25.389  -0.529  52.745  1.00  0.00    -0.347 OA
HETATM    7  C6  UNL     1      24.524  -1.163  53.613  1.00  0.00     0.202 C 
HETATM    8  C7  UNL     1      23.261  -0.509  54.015  1.00  0.00     0.202 C 
HETATM    9  O2  UNL     1      22.317  -0.173  53.049  1.00  0.00    -0.346 OA
HETATM   10  C8  UNL     1      22.482   0.670  51.999  1.00  0.00     0.103 A 
HETATM   11  C9  UNL     1      23.635   1.410  52.023  1.00  0.00     0.057 A 
HETATM   12  C10 UNL     1      24.169   2.329  51.185  1.00  0.00     0.042 A 
HETATM   13  C11 UNL     1      25.396   2.896  51.455  1.00  0.00     0.142 A 
HETATM   14  N1  UNL     1      25.819   3.774  50.531  1.00  0.00    -0.224 NA
HETATM   15  C12 UNL     1      25.039   4.034  49.429  1.00  0.00     0.236 A 
HETATM   16  N2  UNL     1      23.824   3.451  49.180  1.00  0.00    -0.241 NA
HETATM   17  C13 UNL     1      23.370   2.568  50.082  1.00  0.00     0.075 A 
HETATM   18  C14 UNL     1      22.160   1.875  49.946  1.00  0.00     0.072 A 
HETATM   19  C15 UNL     1      21.729   0.939  50.896  1.00  0.00     0.104 A 
HETATM   20  N3  UNL     1      26.063   2.425  52.602  1.00  0.00    -0.338 N 
HETATM   21  C21 UNL     1      26.916   1.366  53.055  1.00  0.00     0.064 C 
HETATM   22  C22 UNL     1      27.879   2.300  53.477  1.00  0.00     0.018 C 
HETATM   23  C23 UNL     1      29.419   2.107  54.174  1.00  0.00     0.123 C 
HETATM   24  H20 UNL     1      25.793   3.168  53.266  1.00  0.00     0.167 HD
ENDROOT
BRANCH  19  25
HETATM   25  O3  UNL     1      20.561   0.233  50.812  1.00  0.00    -0.343 OA
BRANCH  25  26
HETATM   26  C16 UNL     1      19.303   0.604  51.294  1.00  0.00     0.133 C 
HETATM   27  C17 UNL     1      18.803  -0.518  52.175  1.00  0.00     0.058 C 
HETATM   28  C18 UNL     1      17.349  -0.390  52.513  1.00  0.00     0.170 C 
HETATM   29  O4  UNL     1      16.551  -0.168  51.397  1.00  0.00    -0.391 OA
HETATM   30  C19 UNL     1      16.979   0.908  50.640  1.00  0.00     0.170 C 
HETATM   31  C20 UNL     1      18.363   0.638  50.083  1.00  0.00     0.058 C 
ENDBRANCH  25  26
ENDBRANCH  19  25
TORSDOF 2
ENDMDL
MODEL 2
REMARK VINA RESULT:      -9.4      2.680      4.186
REMARK  2 active torsions:
REMARK  status: ('A' for Active; 'I' for Inactive)
REMARK    1  A    between atoms: C15_19  and  O3_20 
REMARK    2  A    between atoms: O3_20  and  C16_21 
ROOT
HETATM    1  C1  UNL     1      29.075  -0.169  53.675  1.00  0.00    -0.102 C 
HETATM    2  C2  UNL     1      29.230   0.770  53.823  1.00  0.00    -0.102 C 
HETATM    3  C3  UNL     1      29.421   2.101  54.020  1.00  0.00     0.124 C 
HETATM    4  C4  UNL     1      27.936   2.482  53.335  1.00  0.00     0.024 C 
HETATM    5  C5  UNL     1      26.886   1.652  52.977  1.00  0.00     0.092 C 
HETATM    6  O1  UNL     1      25.887   2.456  52.449  1.00  0.00    -0.347 OA
HETATM    7  C6  UNL     1      25.899   3.152  51.258  1.00  0.00     0.202 C 
HETATM    8  C7  UNL     1      24.903   2.849  50.209  1.00  0.00     0.202 C 
HETATM    9  O2  UNL     1      23.546   2.997  50.479  1.00  0.00    -0.346 OA
HETATM   10  C8  UNL     1      22.823   2.351  51.427  1.00  0.00     0.103 A 
HETATM   11  C9  UNL     1      23.466   1.305  52.037  1.00  0.00     0.057 A 
HETATM   12  C10 UNL     1      23.113   0.437  53.014  1.00  0.00     0.042 A 
HETATM   13  C11 UNL     1      24.004  -0.514  53.463  1.00  0.00     0.142 A 
HETATM   14  N1  UNL     1      23.535  -1.294  54.450  1.00  0.00    -0.224 NA
HETATM   15  C12 UNL     1      22.259  -1.100  54.926  1.00  0.00     0.236 A 
HETATM   16  N2  UNL     1      21.395  -0.141  54.467  1.00  0.00    -0.241 NA
HETATM   17  C13 UNL     1      21.830   0.658  53.480  1.00  0.00     0.075 A 
HETATM   18  C14 UNL     1      21.067   1.696  52.932  1.00  0.00     0.072 A 
HETATM   19  C15 UNL     1      21.565   2.528  51.919  1.00  0.00     0.104 A 
HETATM   20  N3  UNL     1      25.290  -0.485  52.890  1.00  0.00    -0.338 N 
HETATM   21  C21 UNL     1      26.562   0.165  53.008  1.00  0.00     0.064 C 
HETATM   22  C22 UNL     1      27.199  -1.077  53.178  1.00  0.00     0.018 C 
HETATM   23  C23 UNL     1      28.825  -1.491  53.459  1.00  0.00     0.123 C 
HETATM   24  H20 UNL     1      25.168  -1.220  52.176  1.00  0.00     0.167 HD
ENDROOT
BRANCH  19  25
HETATM   25  O3  UNL     1      20.867   3.558  51.351  1.00  0.00    -0.343 OA
BRANCH  25  26
HETATM   26  C16 UNL     1      19.839   3.474  50.408  1.00  0.00     0.133 C 
HETATM   27  C17 UNL     1      20.134   4.482  49.321  1.00  0.00     0.058 C 
HETATM   28  C18 UNL     1      18.970   4.712  48.407  1.00  0.00     0.170 C 
HETATM   29  O4  UNL     1      17.787   4.969  49.090  1.00  0.00    -0.391 OA
HETATM   30  C19 UNL     1      17.493   3.999  50.031  1.00  0.00     0.170 C 
HETATM   31  C20 UNL     1      18.564   3.967  51.104  1.00  0.00     0.058 C 
ENDBRANCH  25  26
ENDBRANCH  19  25
TORSDOF 2
ENDMDL
MODEL 3
REMARK VINA RESULT:      -9.4      2.415      5.227
REMARK  2 active torsions:
REMARK  status: ('A' for Active; 'I' for Inactive)
REMARK    1  A    between atoms: C15_19  and  O3_20 
REMARK    2  A    between atoms: O3_20  and  C16_21 
ROOT
HETATM    1  C1  UNL     1      27.554   6.797  48.589  1.00  0.00    -0.102 C 
HETATM    2  C2  UNL     1      26.935   7.448  48.934  1.00  0.00    -0.102 C 
HETATM    3  C3  UNL     1      26.041   8.343  49.431  1.00  0.00     0.124 C 
HETATM    4  C4  UNL     1      24.963   7.129  49.858  1.00  0.00     0.024 C 
HETATM    5  C5  UNL     1      25.139   5.755  49.883  1.00  0.00     0.092 C 
HETATM    6  O1  UNL     1      23.944   5.193  50.305  1.00  0.00    -0.347 OA
HETATM    7  C6  UNL     1      22.743   5.145  49.628  1.00  0.00     0.202 C 
HETATM    8  C7  UNL     1      22.139   3.843  49.276  1.00  0.00     0.202 C 
HETATM    9  O2  UNL     1      21.804   2.941  50.281  1.00  0.00    -0.346 OA
HETATM   10  C8  UNL     1      22.640   2.370  51.184  1.00  0.00     0.103 A 
HETATM   11  C9  UNL     1      23.976   2.556  50.938  1.00  0.00     0.057 A 
HETATM   12  C10 UNL     1      25.103   2.174  51.583  1.00  0.00     0.042 A 
HETATM   13  C11 UNL     1      26.343   2.548  51.111  1.00  0.00     0.142 A 
HETATM   14  N1  UNL     1      27.374   2.123  51.857  1.00  0.00    -0.224 NA
HETATM   15  C12 UNL     1      27.137   1.380  52.990  1.00  0.00     0.236 A 
HETATM   16  N2  UNL     1      25.893   1.027  53.442  1.00  0.00    -0.241 NA
HETATM   17  C13 UNL     1      24.838   1.435  52.721  1.00  0.00     0.075 A 
HETATM   18  C14 UNL     1      23.509   1.172  53.077  1.00  0.00     0.072 A 
HETATM   19  C15 UNL     1      22.430   1.638  52.313  1.00  0.00     0.104 A 
HETATM   20  N3  UNL     1      26.353   3.380  49.974  1.00  0.00    -0.338 N 
HETATM   21  C21 UNL     1      26.246   4.754  49.582  1.00  0.00     0.064 C 
HETATM   22  C22 UNL     1      27.495   4.684  48.938  1.00  0.00     0.018 C 
HETATM   23  C23 UNL     1      28.415   5.854  48.114  1.00  0.00     0.123 C 
HETATM   24  H20 UNL     1      26.510   2.663  49.248  1.00  0.00     0.167 HD
ENDROOT
BRANCH  19  25
HETATM   25  O3  UNL     1      21.114   1.414  52.615  1.00  0.00    -0.343 OA
BRANCH  25  26
HETATM   26  C16 UNL     1      20.356   0.276  52.331  1.00  0.00     0.133 C 
HETATM   27  C17 UNL     1      19.090   0.732  51.642  1.00  0.00     0.058 C 
HETATM   28  C18 UNL     1      18.053  -0.346  51.552  1.00  0.00     0.170 C 
HETATM   29  O4  UNL     1      17.821  -0.977  52.768  1.00  0.00    -0.391 OA
HETATM   30  C19 UNL     1      18.981  -1.454  53.351  1.00  0.00     0.170 C 
HETATM   31  C20 UNL     1      19.914  -0.304  53.680  1.00  0.00     0.058 C 
ENDBRANCH  25  26
ENDBRANCH  19  25
TORSDOF 2
ENDMDL
MODEL 4
REMARK VINA RESULT:      -9.1      2.564      5.093
REMARK  2 active torsions:
REMARK  status: ('A' for Active; 'I' for Inactive)
REMARK    1  A    between atoms: C15_19  and  O3_20 
REMARK    2  A    between atoms: O3_20  and  C16_21 
ROOT
HETATM    1  C1  UNL     1      25.464   5.689  49.963  1.00  0.00    -0.102 C 
HETATM    2  C2  UNL     1      24.836   6.276  50.397  1.00  0.00    -0.102 C 
HETATM    3  C3  UNL     1      23.933   7.079  51.019  1.00  0.00     0.124 C 
HETATM    4  C4  UNL     1      22.895   5.793  51.315  1.00  0.00     0.024 C 
HETATM    5  C5  UNL     1      23.106   4.431  51.168  1.00  0.00     0.092 C 
HETATM    6  O1  UNL     1      21.935   3.790  51.541  1.00  0.00    -0.347 OA
HETATM    7  C6  UNL     1      20.720   3.793  50.887  1.00  0.00     0.202 C 
HETATM    8  C7  UNL     1      20.140   2.527  50.390  1.00  0.00     0.202 C 
HETATM    9  O2  UNL     1      19.850   1.500  51.284  1.00  0.00    -0.346 OA
HETATM   10  C8  UNL     1      20.721   0.846  52.092  1.00  0.00     0.103 A 
HETATM   11  C9  UNL     1      22.046   1.097  51.844  1.00  0.00     0.057 A 
HETATM   12  C10 UNL     1      23.197   0.670  52.415  1.00  0.00     0.042 A 
HETATM   13  C11 UNL     1      24.415   1.133  51.968  1.00  0.00     0.142 A 
HETATM   14  N1  UNL     1      25.474   0.647  52.635  1.00  0.00    -0.224 NA
HETATM   15  C12 UNL     1      25.282  -0.235  53.672  1.00  0.00     0.236 A 
HETATM   16  N2  UNL     1      24.057  -0.675  54.103  1.00  0.00    -0.241 NA
HETATM   17  C13 UNL     1      22.976  -0.210  53.459  1.00  0.00     0.075 A 
HETATM   18  C14 UNL     1      21.662  -0.550  53.807  1.00  0.00     0.072 A 
HETATM   19  C15 UNL     1      20.555  -0.024  53.127  1.00  0.00     0.104 A 
HETATM   20  N3  UNL     1      24.379   2.097  50.941  1.00  0.00    -0.338 N 
HETATM   21  C21 UNL     1      24.229   3.505  50.723  1.00  0.00     0.064 C 
HETATM   22  C22 UNL     1      25.464   3.549  50.051  1.00  0.00     0.018 C 
HETATM   23  C23 UNL     1      26.337   4.835  49.359  1.00  0.00     0.123 C 
HETATM   24  H20 UNL     1      24.536   1.479  50.130  1.00  0.00     0.167 HD
ENDROOT
BRANCH  19  25
HETATM   25  O3  UNL     1      19.253  -0.319  53.426  1.00  0.00    -0.343 OA
BRANCH  25  26
HETATM   26  C16 UNL     1      18.415  -1.232  52.780  1.00  0.00     0.133 C 
HETATM   27  C17 UNL     1      17.109  -0.528  52.493  1.00  0.00     0.058 C 
HETATM   28  C18 UNL     1      16.018  -1.468  52.079  1.00  0.00     0.170 C 
HETATM   29  O4  UNL     1      15.883  -2.553  52.938  1.00  0.00    -0.391 OA
HETATM   30  C19 UNL     1      17.072  -3.231  53.133  1.00  0.00     0.170 C 
HETATM   31  C20 UNL     1      18.087  -2.326  53.804  1.00  0.00     0.058 C 
ENDBRANCH  25  26
ENDBRANCH  19  25
TORSDOF 2
ENDMDL
MODEL 5
REMARK VINA RESULT:      -8.8      2.874      8.422
REMARK  2 active torsions:
REMARK  status: ('A' for Active; 'I' for Inactive)
REMARK    1  A    between atoms: C15_19  and  O3_20 
REMARK    2  A    between atoms: O3_20  and  C16_21 
ROOT
HETATM    1  C1  UNL     1      18.073   3.778  48.609  1.00  0.00    -0.102 C 
HETATM    2  C2  UNL     1      18.611   3.556  47.842  1.00  0.00    -0.102 C 
HETATM    3  C3  UNL     1      19.394   3.235  46.779  1.00  0.00     0.124 C 
HETATM    4  C4  UNL     1      20.718   2.924  47.764  1.00  0.00     0.024 C 
HETATM    5  C5  UNL     1      20.790   2.817  49.144  1.00  0.00     0.092 C 
HETATM    6  O1  UNL     1      22.112   2.556  49.468  1.00  0.00    -0.347 OA
HETATM    7  C6  UNL     1      23.196   3.402  49.358  1.00  0.00     0.202 C 
HETATM    8  C7  UNL     1      23.964   3.788  50.561  1.00  0.00     0.202 C 
HETATM    9  O2  UNL     1      24.591   2.808  51.326  1.00  0.00    -0.346 OA
HETATM   10  C8  UNL     1      24.002   1.768  51.968  1.00  0.00     0.103 A 
HETATM   11  C9  UNL     1      22.633   1.820  52.026  1.00  0.00     0.057 A 
HETATM   12  C10 UNL     1      21.692   0.999  52.548  1.00  0.00     0.042 A 
HETATM   13  C11 UNL     1      20.353   1.296  52.419  1.00  0.00     0.142 A 
HETATM   14  N1  UNL     1      19.527   0.388  52.962  1.00  0.00    -0.224 NA
HETATM   15  C12 UNL     1      20.046  -0.727  53.578  1.00  0.00     0.236 A 
HETATM   16  N2  UNL     1      21.384  -1.002  53.687  1.00  0.00    -0.241 NA
HETATM   17  C13 UNL     1      22.240  -0.116  53.156  1.00  0.00     0.075 A 
HETATM   18  C14 UNL     1      23.631  -0.280  53.168  1.00  0.00     0.072 A 
HETATM   19  C15 UNL     1      24.494   0.654  52.579  1.00  0.00     0.104 A 
HETATM   20  N3  UNL     1      20.037   2.451  51.677  1.00  0.00    -0.338 N 
HETATM   21  C21 UNL     1      19.845   2.910  50.333  1.00  0.00     0.064 C 
HETATM   22  C22 UNL     1      18.550   3.357  50.654  1.00  0.00     0.018 C 
HETATM   23  C23 UNL     1      17.333   4.081  49.712  1.00  0.00     0.123 C 
HETATM   24  H20 UNL     1      19.909   3.116  52.456  1.00  0.00     0.167 HD
ENDROOT
BRANCH  19  25
HETATM   25  O3  UNL     1      25.857   0.543  52.558  1.00  0.00    -0.343 OA
BRANCH  25  26
HETATM   26  C16 UNL     1      26.761   0.948  53.544  1.00  0.00     0.133 C 
HETATM   27  C17 UNL     1      27.639   2.022  52.944  1.00  0.00     0.058 C 
HETATM   28  C18 UNL     1      28.840   2.331  53.784  1.00  0.00     0.170 C 
HETATM   29  O4  UNL     1      29.543   1.193  54.165  1.00  0.00    -0.391 OA
HETATM   30  C19 UNL     1      28.738   0.250  54.779  1.00  0.00     0.170 C 
HETATM   31  C20 UNL     1      27.683  -0.248  53.811  1.00  0.00     0.058 C 
ENDBRANCH  25  26
ENDBRANCH  19  25
TORSDOF 2
ENDMDL
MODEL 6
REMARK VINA RESULT:      -8.5      3.404      5.435
REMARK  2 active torsions:
REMARK  status: ('A' for Active; 'I' for Inactive)
REMARK    1  A    between atoms: C15_19  and  O3_20 
REMARK    2  A    between atoms: O3_20  and  C16_21 
ROOT
HETATM    1  C1  UNL     1      27.244   7.474  47.995  1.00  0.00    -0.102 C 
HETATM    2  C2  UNL     1      27.862   6.741  48.087  1.00  0.00    -0.102 C 
HETATM    3  C3  UNL     1      28.711   5.689  48.227  1.00  0.00     0.124 C 
HETATM    4  C4  UNL     1      27.506   4.720  48.882  1.00  0.00     0.024 C 
HETATM    5  C5  UNL     1      26.139   4.935  48.960  1.00  0.00     0.092 C 
HETATM    6  O1  UNL     1      25.584   3.836  49.596  1.00  0.00    -0.347 OA
HETATM    7  C6  UNL     1      25.720   3.462  50.917  1.00  0.00     0.202 C 
HETATM    8  C7  UNL     1      24.532   3.382  51.793  1.00  0.00     0.202 C 
HETATM    9  O2  UNL     1      23.495   2.510  51.476  1.00  0.00    -0.346 OA
HETATM   10  C8  UNL     1      22.733   2.516  50.353  1.00  0.00     0.103 A 
HETATM   11  C9  UNL     1      22.881   3.621  49.556  1.00  0.00     0.057 A 
HETATM   12  C10 UNL     1      22.332   3.999  48.378  1.00  0.00     0.042 A 
HETATM   13  C11 UNL     1      22.708   5.180  47.775  1.00  0.00     0.142 A 
HETATM   14  N1  UNL     1      22.105   5.423  46.601  1.00  0.00    -0.224 NA
HETATM   15  C12 UNL     1      21.197   4.519  46.100  1.00  0.00     0.236 A 
HETATM   16  N2  UNL     1      20.844   3.348  46.716  1.00  0.00    -0.241 NA
HETATM   17  C13 UNL     1      21.429   3.072  47.893  1.00  0.00     0.075 A 
HETATM   18  C14 UNL     1      21.186   1.900  48.621  1.00  0.00     0.072 A 
HETATM   19  C15 UNL     1      21.835   1.633  49.835  1.00  0.00     0.104 A 
HETATM   20  N3  UNL     1      23.717   5.919  48.424  1.00  0.00    -0.338 N 
HETATM   21  C21 UNL     1      25.142   6.010  48.551  1.00  0.00     0.064 C 
HETATM   22  C22 UNL     1      25.109   7.352  48.132  1.00  0.00     0.018 C 
HETATM   23  C23 UNL     1      26.346   8.491  47.870  1.00  0.00     0.123 C 
HETATM   24  H20 UNL     1      23.125   6.594  48.931  1.00  0.00     0.167 HD
ENDROOT
BRANCH  19  25
HETATM   25  O3  UNL     1      21.640   0.506  50.585  1.00  0.00    -0.343 OA
BRANCH  25  26
HETATM   26  C16 UNL     1      21.214   0.429  51.914  1.00  0.00     0.133 C 
HETATM   27  C17 UNL     1      22.118  -0.551  52.626  1.00  0.00     0.058 C 
HETATM   28  C18 UNL     1      21.595  -0.958  53.969  1.00  0.00     0.170 C 
HETATM   29  O4  UNL     1      20.265  -1.361  53.933  1.00  0.00    -0.391 OA
HETATM   30  C19 UNL     1      19.439  -0.421  53.344  1.00  0.00     0.170 C 
HETATM   31  C20 UNL     1      19.825  -0.221  51.892  1.00  0.00     0.058 C 
ENDBRANCH  25  26
ENDBRANCH  19  25
TORSDOF 2
ENDMDL
MODEL 7
REMARK VINA RESULT:      -8.5      3.359      8.322
REMARK  2 active torsions:
REMARK  status: ('A' for Active; 'I' for Inactive)
REMARK    1  A    between atoms: C15_19  and  O3_20 
REMARK    2  A    between atoms: O3_20  and  C16_21 
ROOT
HETATM    1  C1  UNL     1      20.102   6.734  48.020  1.00  0.00    -0.102 C 
HETATM    2  C2  UNL     1      20.557   6.341  47.269  1.00  0.00    -0.102 C 
HETATM    3  C3  UNL     1      21.218   5.770  46.228  1.00  0.00     0.124 C 
HETATM    4  C4  UNL     1      22.312   5.013  47.252  1.00  0.00     0.024 C 
HETATM    5  C5  UNL     1      22.291   4.882  48.632  1.00  0.00     0.092 C 
HETATM    6  O1  UNL     1      23.425   4.174  48.997  1.00  0.00    -0.347 OA
HETATM    7  C6  UNL     1      24.740   4.588  48.937  1.00  0.00     0.202 C 
HETATM    8  C7  UNL     1      25.548   4.677  50.172  1.00  0.00     0.202 C 
HETATM    9  O2  UNL     1      25.763   3.537  50.942  1.00  0.00    -0.346 OA
HETATM   10  C8  UNL     1      24.825   2.767  51.547  1.00  0.00     0.103 A 
HETATM   11  C9  UNL     1      23.559   3.293  51.558  1.00  0.00     0.057 A 
HETATM   12  C10 UNL     1      22.372   2.851  52.034  1.00  0.00     0.042 A 
HETATM   13  C11 UNL     1      21.226   3.598  51.865  1.00  0.00     0.142 A 
HETATM   14  N1  UNL     1      20.115   3.034  52.364  1.00  0.00    -0.224 NA
HETATM   15  C12 UNL     1      20.190   1.806  52.979  1.00  0.00     0.236 A 
HETATM   16  N2  UNL     1      21.342   1.080  53.130  1.00  0.00    -0.241 NA
HETATM   17  C13 UNL     1      22.473   1.613  52.642  1.00  0.00     0.075 A 
HETATM   18  C14 UNL     1      23.717   0.973  52.699  1.00  0.00     0.072 A 
HETATM   19  C15 UNL     1      24.873   1.549  52.155  1.00  0.00     0.104 A 
HETATM   20  N3  UNL     1      21.362   4.793  51.132  1.00  0.00    -0.338 N 
HETATM   21  C21 UNL     1      21.393   5.295  49.790  1.00  0.00     0.064 C 
HETATM   22  C22 UNL     1      20.325   6.165  50.074  1.00  0.00     0.018 C 
HETATM   23  C23 UNL     1      19.473   7.272  49.103  1.00  0.00     0.123 C 
HETATM   24  H20 UNL     1      21.445   5.458  51.917  1.00  0.00     0.167 HD
ENDROOT
BRANCH  19  25
HETATM   25  O3  UNL     1      26.112   0.968  52.179  1.00  0.00    -0.343 OA
BRANCH  25  26
HETATM   26  C16 UNL     1      26.984   0.863  53.266  1.00  0.00     0.133 C 
HETATM   27  C17 UNL     1      27.968   2.006  53.173  1.00  0.00     0.058 C 
HETATM   28  C18 UNL     1      29.138   1.846  54.096  1.00  0.00     0.170 C 
HETATM   29  O4  UNL     1      29.735   0.594  54.001  1.00  0.00    -0.391 OA
HETATM   30  C19 UNL     1      28.832  -0.442  54.162  1.00  0.00     0.170 C 
HETATM   31  C20 UNL     1      27.802  -0.416  53.049  1.00  0.00     0.058 C 
ENDBRANCH  25  26
ENDBRANCH  19  25
TORSDOF 2
ENDMDL
MODEL 8
REMARK VINA RESULT:      -8.5      3.205      5.702
REMARK  2 active torsions:
REMARK  status: ('A' for Active; 'I' for Inactive)
REMARK    1  A    between atoms: C15_19  and  O3_20 
REMARK    2  A    between atoms: O3_20  and  C16_21 
ROOT
HETATM    1  C1  UNL     1      28.347   7.489  48.486  1.00  0.00    -0.102 C 
HETATM    2  C2  UNL     1      27.953   8.221  48.971  1.00  0.00    -0.102 C 
HETATM    3  C3  UNL     1      27.372   9.236  49.665  1.00  0.00     0.124 C 
HETATM    4  C4  UNL     1      26.039   8.293  50.056  1.00  0.00     0.024 C 
HETATM    5  C5  UNL     1      25.839   6.930  49.897  1.00  0.00     0.092 C 
HETATM    6  O1  UNL     1      24.570   6.642  50.374  1.00  0.00    -0.347 OA
HETATM    7  C6  UNL     1      23.356   7.004  49.828  1.00  0.00     0.202 C 
HETATM    8  C7  UNL     1      22.398   5.967  49.389  1.00  0.00     0.202 C 
HETATM    9  O2  UNL     1      21.904   5.047  50.308  1.00  0.00    -0.346 OA
HETATM   10  C8  UNL     1      22.616   4.155  51.041  1.00  0.00     0.103 A 
HETATM   11  C9  UNL     1      23.932   4.023  50.678  1.00  0.00     0.057 A 
HETATM   12  C10 UNL     1      24.957   3.275  51.147  1.00  0.00     0.042 A 
HETATM   13  C11 UNL     1      26.214   3.380  50.594  1.00  0.00     0.142 A 
HETATM   14  N1  UNL     1      27.142   2.599  51.168  1.00  0.00    -0.224 NA
HETATM   15  C12 UNL     1      26.795   1.787  52.222  1.00  0.00     0.236 A 
HETATM   16  N2  UNL     1      25.537   1.705  52.760  1.00  0.00    -0.241 NA
HETATM   17  C13 UNL     1      24.583   2.473  52.210  1.00  0.00     0.075 A 
HETATM   18  C14 UNL     1      23.261   2.513  52.673  1.00  0.00     0.072 A 
HETATM   19  C15 UNL     1      22.297   3.347  52.090  1.00  0.00     0.104 A 
HETATM   20  N3  UNL     1      26.368   4.336  49.570  1.00  0.00    -0.338 N 
HETATM   21  C21 UNL     1      26.609   5.732  49.360  1.00  0.00     0.064 C 
HETATM   22  C22 UNL     1      27.744   5.436  48.583  1.00  0.00     0.018 C 
HETATM   23  C23 UNL     1      28.885   6.434  47.812  1.00  0.00     0.123 C 
HETATM   24  H20 UNL     1      26.273   3.716  48.751  1.00  0.00     0.167 HD
ENDROOT
BRANCH  19  25
HETATM   25  O3  UNL     1      20.995   3.430  52.502  1.00  0.00    -0.343 OA
BRANCH  25  26
HETATM   26  C16 UNL     1      19.985   2.479  52.334  1.00  0.00     0.133 C 
HETATM   27  C17 UNL     1      20.420   1.221  53.051  1.00  0.00     0.058 C 
HETATM   28  C18 UNL     1      19.579   0.031  52.702  1.00  0.00     0.170 C 
HETATM   29  O4  UNL     1      19.426  -0.141  51.332  1.00  0.00    -0.391 OA
HETATM   30  C19 UNL     1      18.957   0.997  50.700  1.00  0.00     0.170 C 
HETATM   31  C20 UNL     1      19.961   2.125  50.842  1.00  0.00     0.058 C 
ENDBRANCH  25  26
ENDBRANCH  19  25
TORSDOF 2
ENDMDL
MODEL 9
REMARK VINA RESULT:      -8.3      3.365      5.710
REMARK  2 active torsions:
REMARK  status: ('A' for Active; 'I' for Inactive)
REMARK    1  A    between atoms: C15_19  and  O3_20 
REMARK    2  A    between atoms: O3_20  and  C16_21 
ROOT
HETATM    1  C1  UNL     1      24.538   4.348  50.959  1.00  0.00    -0.102 C 
HETATM    2  C2  UNL     1      23.862   5.027  51.057  1.00  0.00    -0.102 C 
HETATM    3  C3  UNL     1      22.886   5.962  51.196  1.00  0.00     0.124 C 
HETATM    4  C4  UNL     1      21.674   4.802  51.136  1.00  0.00     0.024 C 
HETATM    5  C5  UNL     1      21.767   3.420  51.187  1.00  0.00     0.092 C 
HETATM    6  O1  UNL     1      20.478   2.917  51.096  1.00  0.00    -0.347 OA
HETATM    7  C6  UNL     1      19.633   2.939  50.006  1.00  0.00     0.202 C 
HETATM    8  C7  UNL     1      19.156   1.673  49.409  1.00  0.00     0.202 C 
HETATM    9  O2  UNL     1      18.417   0.780  50.179  1.00  0.00    -0.346 OA
HETATM   10  C8  UNL     1      18.812   0.156  51.317  1.00  0.00     0.103 A 
HETATM   11  C9  UNL     1      20.145   0.275  51.613  1.00  0.00     0.057 A 
HETATM   12  C10 UNL     1      20.916  -0.171  52.632  1.00  0.00     0.042 A 
HETATM   13  C11 UNL     1      22.257   0.142  52.688  1.00  0.00     0.142 A 
HETATM   14  N1  UNL     1      22.898  -0.344  53.761  1.00  0.00    -0.224 NA
HETATM   15  C12 UNL     1      22.208  -1.085  54.692  1.00  0.00     0.236 A 
HETATM   16  N2  UNL     1      20.872  -1.378  54.617  1.00  0.00    -0.241 NA
HETATM   17  C13 UNL     1      20.198  -0.908  53.556  1.00  0.00     0.075 A 
HETATM   18  C14 UNL     1      18.824  -1.105  53.362  1.00  0.00     0.072 A 
HETATM   19  C15 UNL     1      18.148  -0.575  52.255  1.00  0.00     0.104 A 
HETATM   20  N3  UNL     1      22.744   0.984  51.668  1.00  0.00    -0.338 N 
HETATM   21  C21 UNL     1      22.858   2.366  51.307  1.00  0.00     0.064 C 
HETATM   22  C22 UNL     1      24.255   2.238  51.194  1.00  0.00     0.018 C 
HETATM   23  C23 UNL     1      25.473   3.366  50.826  1.00  0.00     0.123 C 
HETATM   24  H20 UNL     1      23.138   0.268  51.039  1.00  0.00     0.167 HD
ENDROOT
BRANCH  19  25
HETATM   25  O3  UNL     1      16.810  -0.733  52.017  1.00  0.00    -0.343 OA
BRANCH  25  26
HETATM   26  C16 UNL     1      15.745  -0.234  52.772  1.00  0.00     0.133 C 
HETATM   27  C17 UNL     1      14.527  -1.070  52.450  1.00  0.00     0.058 C 
HETATM   28  C18 UNL     1      13.253  -0.463  52.952  1.00  0.00     0.170 C 
HETATM   29  O4  UNL     1      13.113   0.874  52.598  1.00  0.00    -0.391 OA
HETATM   30  C19 UNL     1      14.205   1.640  52.965  1.00  0.00     0.170 C 
HETATM   31  C20 UNL     1      15.446   1.170  52.231  1.00  0.00     0.058 C 
ENDBRANCH  25  26
ENDBRANCH  19  25
TORSDOF 2
ENDMDL
