MODEL 1
REMARK VINA RESULT:      -7.7      0.000      0.000
REMARK  6 active torsions:
REMARK  status: ('A' for Active; 'I' for Inactive)
REMARK    1  A    between atoms: C2_2  and  C3_3 
REMARK    2  A    between atoms: C13_16  and  O2_17 
REMARK    3  A    between atoms: C15_19  and  C16_20 
REMARK    4  A    between atoms: C16_20  and  C17_21 
REMARK    5  A    between atoms: C17_21  and  C18_22 
REMARK    6  A    between atoms: C18_22  and  O4_24 
ROOT
HETATM    1  C3  UNL     1      27.357   1.876  52.591  1.00  0.00     0.015 C 
HETATM    2  N1  UNL     1      27.026   0.689  53.039  1.00  0.00    -0.293 NA
HETATM    3  C4  UNL     1      26.048   0.151  52.112  1.00  0.00     0.184 C 
HETATM    4  C5  UNL     1      25.242   1.348  51.797  1.00  0.00    -0.035 C 
HETATM    5  C6  UNL     1      23.943   1.657  51.947  1.00  0.00     0.057 C 
HETATM    6  C7  UNL     1      23.269   0.496  52.571  1.00  0.00     0.255 C 
HETATM    7  O1  UNL     1      23.911  -0.132  53.497  1.00  0.00    -0.268 OA
HETATM    8  N2  UNL     1      21.989  -0.157  52.394  1.00  0.00    -0.333 N 
HETATM    9  C8  UNL     1      20.731   0.404  51.943  1.00  0.00     0.087 C 
HETATM   10  C9  UNL     1      20.229   1.654  52.015  1.00  0.00    -0.005 C 
HETATM   11  C10 UNL     1      20.665   2.940  52.537  1.00  0.00     0.066 C 
HETATM   12  C11 UNL     1      22.081   3.250  52.306  1.00  0.00    -0.034 A 
HETATM   13  C12 UNL     1      23.162   3.935  52.555  1.00  0.00     0.027 A 
HETATM   14  C13 UNL     1      23.269   2.906  51.539  1.00  0.00     0.135 A 
HETATM   15  C15 UNL     1      26.557   1.959  51.342  1.00  0.00     0.065 C 
HETATM   16  H8  UNL     1      21.933  -1.168  52.615  1.00  0.00     0.168 HD
ENDROOT
BRANCH  15  17
HETATM   17  C16 UNL     1      26.348   3.318  50.782  1.00  0.00     0.025 C 
BRANCH  17  18
HETATM   18  C17 UNL     1      26.772   3.398  49.309  1.00  0.00     0.111 C 
BRANCH  18  19
HETATM   19  C18 UNL     1      27.184   4.766  48.917  1.00  0.00     0.139 C 
HETATM   20  O3  UNL     1      26.637   5.797  48.426  1.00  0.00    -0.650 OA
BRANCH  19  21
HETATM   21  O4  UNL     1      28.529   5.036  49.128  1.00  0.00    -0.776 OA
HETATM   22  H22 UNL     1      29.298   4.606  48.668  1.00  0.00     0.167 HD
ENDBRANCH  19  21
ENDBRANCH  18  19
ENDBRANCH  17  18
ENDBRANCH  15  17
BRANCH  14  23
HETATM   23  O2  UNL     1      23.324   3.228  50.183  1.00  0.00    -0.371 OA
HETATM   24  C14 UNL     1      22.767   2.279  49.349  1.00  0.00     0.204 C 
ENDBRANCH  14  23
BRANCH   1  25
HETATM   25  C2  UNL     1      28.363   2.470  53.517  1.00  0.00     0.050 C 
HETATM   26  C1  UNL     1      29.191   1.447  54.253  1.00  0.00     0.011 C 
ENDBRANCH   1  25
TORSDOF 6
ENDMDL
MODEL 2
REMARK VINA RESULT:      -7.5      2.207      5.387
REMARK  6 active torsions:
REMARK  status: ('A' for Active; 'I' for Inactive)
REMARK    1  A    between atoms: C2_2  and  C3_3 
REMARK    2  A    between atoms: C13_16  and  O2_17 
REMARK    3  A    between atoms: C15_19  and  C16_20 
REMARK    4  A    between atoms: C16_20  and  C17_21 
REMARK    5  A    between atoms: C17_21  and  C18_22 
REMARK    6  A    between atoms: C18_22  and  O4_24 
ROOT
HETATM    1  C3  UNL     1      26.038  -0.013  52.627  1.00  0.00     0.015 C 
HETATM    2  N1  UNL     1      27.124   0.676  52.372  1.00  0.00    -0.293 NA
HETATM    3  C4  UNL     1      26.811   2.066  52.646  1.00  0.00     0.184 C 
HETATM    4  C5  UNL     1      25.430   2.171  52.131  1.00  0.00    -0.035 C 
HETATM    5  C6  UNL     1      24.850   2.922  51.180  1.00  0.00     0.057 C 
HETATM    6  C7  UNL     1      25.894   3.784  50.582  1.00  0.00     0.255 C 
HETATM    7  O1  UNL     1      27.056   3.257  50.391  1.00  0.00    -0.268 OA
HETATM    8  N2  UNL     1      25.946   5.157  50.126  1.00  0.00    -0.333 N 
HETATM    9  C8  UNL     1      24.880   5.988  49.606  1.00  0.00     0.087 C 
HETATM   10  C9  UNL     1      23.738   5.681  48.955  1.00  0.00    -0.005 C 
HETATM   11  C10 UNL     1      23.076   4.469  48.497  1.00  0.00     0.066 C 
HETATM   12  C11 UNL     1      23.148   3.339  49.431  1.00  0.00    -0.034 A 
HETATM   13  C12 UNL     1      23.043   2.068  49.705  1.00  0.00     0.027 A 
HETATM   14  C13 UNL     1      23.422   2.938  50.802  1.00  0.00     0.135 A 
HETATM   15  C15 UNL     1      25.116   1.048  53.106  1.00  0.00     0.065 C 
HETATM   16  H8  UNL     1      26.862   5.639  50.165  1.00  0.00     0.168 HD
ENDROOT
BRANCH  15  17
HETATM   17  C16 UNL     1      23.668   0.719  53.091  1.00  0.00     0.025 C 
BRANCH  17  18
HETATM   18  C17 UNL     1      23.384  -0.630  53.765  1.00  0.00     0.111 C 
BRANCH  18  19
HETATM   19  C18 UNL     1      22.119  -0.618  54.536  1.00  0.00     0.139 C 
HETATM   20  O3  UNL     1      21.174   0.195  54.759  1.00  0.00    -0.650 OA
BRANCH  19  21
HETATM   21  O4  UNL     1      21.858  -1.799  55.217  1.00  0.00    -0.776 OA
HETATM   22  H22 UNL     1      21.700  -2.692  54.811  1.00  0.00     0.167 HD
ENDBRANCH  19  21
ENDBRANCH  18  19
ENDBRANCH  17  18
ENDBRANCH  15  17
BRANCH  14  23
HETATM   23  O2  UNL     1      22.516   3.276  51.807  1.00  0.00    -0.371 OA
HETATM   24  C14 UNL     1      22.759   4.496  52.406  1.00  0.00     0.204 C 
ENDBRANCH  14  23
BRANCH   1  25
HETATM   25  C2  UNL     1      26.314  -1.452  52.355  1.00  0.00     0.050 C 
HETATM   26  C1  UNL     1      27.657  -1.920  52.859  1.00  0.00     0.011 C 
ENDBRANCH   1  25
TORSDOF 6
ENDMDL
MODEL 3
REMARK VINA RESULT:      -7.2      2.504      5.660
REMARK  6 active torsions:
REMARK  status: ('A' for Active; 'I' for Inactive)
REMARK    1  A    between atoms: C2_2  and  C3_3 
REMARK    2  A    between atoms: C13_16  and  O2_17 
REMARK    3  A    between atoms: C15_19  and  C16_20 
REMARK    4  A    between atoms: C16_20  and  C17_21 
REMARK    5  A    between atoms: C17_21  and  C18_22 
REMARK    6  A    between atoms: C18_22  and  O4_24 
ROOT
HETATM    1  C3  UNL     1      24.482   0.556  52.977  1.00  0.00     0.015 C 
HETATM    2  N1  UNL     1      25.395   1.453  52.691  1.00  0.00    -0.293 NA
HETATM    3  C4  UNL     1      24.699   2.713  52.511  1.00  0.00     0.184 C 
HETATM    4  C5  UNL     1      23.478   2.283  51.798  1.00  0.00    -0.035 C 
HETATM    5  C6  UNL     1      22.949   2.585  50.600  1.00  0.00     0.057 C 
HETATM    6  C7  UNL     1      23.853   3.549  49.935  1.00  0.00     0.255 C 
HETATM    7  O1  UNL     1      25.122   3.357  50.067  1.00  0.00    -0.268 OA
HETATM    8  N2  UNL     1      23.662   4.730  49.117  1.00  0.00    -0.333 N 
HETATM    9  C8  UNL     1      22.562   5.064  48.236  1.00  0.00     0.087 C 
HETATM   10  C9  UNL     1      21.698   4.290  47.547  1.00  0.00    -0.005 C 
HETATM   11  C10 UNL     1      21.468   2.866  47.365  1.00  0.00     0.066 C 
HETATM   12  C11 UNL     1      21.612   2.059  48.583  1.00  0.00    -0.034 A 
HETATM   13  C12 UNL     1      21.766   0.916  49.192  1.00  0.00     0.027 A 
HETATM   14  C13 UNL     1      21.676   2.091  50.036  1.00  0.00     0.135 A 
HETATM   15  C15 UNL     1      23.247   1.380  52.998  1.00  0.00     0.065 C 
HETATM   16  H8  UNL     1      24.402   5.455  49.146  1.00  0.00     0.168 HD
ENDROOT
BRANCH  15  17
HETATM   17  C16 UNL     1      21.962   0.646  52.875  1.00  0.00     0.025 C 
BRANCH  17  18
HETATM   18  C17 UNL     1      21.282   0.455  54.237  1.00  0.00     0.111 C 
BRANCH  18  19
HETATM   19  C18 UNL     1      21.588  -0.865  54.836  1.00  0.00     0.139 C 
HETATM   20  O3  UNL     1      22.547  -1.402  55.464  1.00  0.00    -0.650 OA
BRANCH  19  21
HETATM   21  O4  UNL     1      20.572  -1.801  54.694  1.00  0.00    -0.776 OA
HETATM   22  H22 UNL     1      20.604  -2.630  54.148  1.00  0.00     0.167 HD
ENDBRANCH  19  21
ENDBRANCH  18  19
ENDBRANCH  17  18
ENDBRANCH  15  17
BRANCH  14  23
HETATM   23  O2  UNL     1      20.521   2.374  50.765  1.00  0.00    -0.371 OA
HETATM   24  C14 UNL     1      20.374   3.705  51.104  1.00  0.00     0.204 C 
ENDBRANCH  14  23
BRANCH   1  25
HETATM   25  C2  UNL     1      25.155  -0.761  53.169  1.00  0.00     0.050 C 
HETATM   26  C1  UNL     1      26.516  -0.848  52.527  1.00  0.00     0.011 C 
ENDBRANCH   1  25
TORSDOF 6
ENDMDL
MODEL 4
REMARK VINA RESULT:      -7.1      2.562      5.284
REMARK  6 active torsions:
REMARK  status: ('A' for Active; 'I' for Inactive)
REMARK    1  A    between atoms: C2_2  and  C3_3 
REMARK    2  A    between atoms: C13_16  and  O2_17 
REMARK    3  A    between atoms: C15_19  and  C16_20 
REMARK    4  A    between atoms: C16_20  and  C17_21 
REMARK    5  A    between atoms: C17_21  and  C18_22 
REMARK    6  A    between atoms: C18_22  and  O4_24 
ROOT
HETATM    1  C3  UNL     1      22.049   0.269  53.077  1.00  0.00     0.015 C 
HETATM    2  N1  UNL     1      21.065   0.277  52.210  1.00  0.00    -0.293 NA
HETATM    3  C4  UNL     1      21.633   0.680  50.938  1.00  0.00     0.184 C 
HETATM    4  C5  UNL     1      22.592   1.724  51.354  1.00  0.00    -0.035 C 
HETATM    5  C6  UNL     1      22.722   3.030  51.067  1.00  0.00     0.057 C 
HETATM    6  C7  UNL     1      21.629   3.403  50.142  1.00  0.00     0.255 C 
HETATM    7  O1  UNL     1      20.467   2.887  50.363  1.00  0.00    -0.268 OA
HETATM    8  N2  UNL     1      21.524   4.257  48.977  1.00  0.00    -0.333 N 
HETATM    9  C8  UNL     1      22.293   5.437  48.637  1.00  0.00     0.087 C 
HETATM   10  C9  UNL     1      22.931   6.346  49.404  1.00  0.00    -0.005 C 
HETATM   11  C10 UNL     1      23.139   6.567  50.826  1.00  0.00     0.066 C 
HETATM   12  C11 UNL     1      23.397   5.351  51.607  1.00  0.00    -0.034 A 
HETATM   13  C12 UNL     1      23.472   4.707  52.739  1.00  0.00     0.027 A 
HETATM   14  C13 UNL     1      23.778   3.948  51.542  1.00  0.00     0.135 A 
HETATM   15  C15 UNL     1      23.206   0.638  52.221  1.00  0.00     0.065 C 
HETATM   16  H8  UNL     1      20.806   4.016  48.271  1.00  0.00     0.168 HD
ENDROOT
BRANCH  15  17
HETATM   17  C16 UNL     1      24.414   1.136  52.925  1.00  0.00     0.025 C 
BRANCH  17  18
HETATM   18  C17 UNL     1      25.448   0.023  53.139  1.00  0.00     0.111 C 
BRANCH  18  19
HETATM   19  C18 UNL     1      25.883  -0.075  54.553  1.00  0.00     0.139 C 
HETATM   20  O3  UNL     1      25.702  -0.861  55.529  1.00  0.00    -0.650 OA
BRANCH  19  21
HETATM   21  O4  UNL     1      26.719   0.955  54.961  1.00  0.00    -0.776 OA
HETATM   22  H22 UNL     1      26.452   1.894  55.150  1.00  0.00     0.167 HD
ENDBRANCH  19  21
ENDBRANCH  18  19
ENDBRANCH  17  18
ENDBRANCH  15  17
BRANCH  14  23
HETATM   23  O2  UNL     1      25.091   3.610  51.212  1.00  0.00    -0.371 OA
HETATM   24  C14 UNL     1      25.315   3.454  49.859  1.00  0.00     0.204 C 
ENDBRANCH  14  23
BRANCH   1  25
HETATM   25  C2  UNL     1      21.509  -0.139  54.405  1.00  0.00     0.050 C 
HETATM   26  C1  UNL     1      22.217  -1.324  55.012  1.00  0.00     0.011 C 
ENDBRANCH   1  25
TORSDOF 6
ENDMDL
MODEL 5
REMARK VINA RESULT:      -7.1      2.790      4.800
REMARK  6 active torsions:
REMARK  status: ('A' for Active; 'I' for Inactive)
REMARK    1  A    between atoms: C2_2  and  C3_3 
REMARK    2  A    between atoms: C13_16  and  O2_17 
REMARK    3  A    between atoms: C15_19  and  C16_20 
REMARK    4  A    between atoms: C16_20  and  C17_21 
REMARK    5  A    between atoms: C17_21  and  C18_22 
REMARK    6  A    between atoms: C18_22  and  O4_24 
ROOT
HETATM    1  C3  UNL     1      25.236   2.629  51.752  1.00  0.00     0.015 C 
HETATM    2  N1  UNL     1      24.775   3.855  51.689  1.00  0.00    -0.293 NA
HETATM    3  C4  UNL     1      23.613   3.909  52.557  1.00  0.00     0.184 C 
HETATM    4  C5  UNL     1      22.980   2.600  52.293  1.00  0.00    -0.035 C 
HETATM    5  C6  UNL     1      21.778   2.231  51.820  1.00  0.00     0.057 C 
HETATM    6  C7  UNL     1      21.008   3.460  51.526  1.00  0.00     0.255 C 
HETATM    7  O1  UNL     1      21.650   4.448  51.001  1.00  0.00    -0.268 OA
HETATM    8  N2  UNL     1      19.626   3.862  51.689  1.00  0.00    -0.333 N 
HETATM    9  C8  UNL     1      18.430   3.044  51.690  1.00  0.00     0.087 C 
HETATM   10  C9  UNL     1      18.151   1.861  51.104  1.00  0.00    -0.005 C 
HETATM   11  C10 UNL     1      18.854   0.910  50.256  1.00  0.00     0.066 C 
HETATM   12  C11 UNL     1      20.261   0.691  50.612  1.00  0.00    -0.034 A 
HETATM   13  C12 UNL     1      21.462   0.263  50.336  1.00  0.00     0.027 A 
HETATM   14  C13 UNL     1      21.270   0.855  51.647  1.00  0.00     0.135 A 
HETATM   15  C15 UNL     1      24.309   2.010  52.733  1.00  0.00     0.065 C 
HETATM   16  H8  UNL     1      19.434   4.871  51.823  1.00  0.00     0.168 HD
ENDROOT
BRANCH  15  17
HETATM   17  C16 UNL     1      24.256   0.526  52.745  1.00  0.00     0.025 C 
BRANCH  17  18
HETATM   18  C17 UNL     1      25.616  -0.090  53.097  1.00  0.00     0.111 C 
BRANCH  18  19
HETATM   19  C18 UNL     1      25.824  -0.190  54.561  1.00  0.00     0.139 C 
HETATM   20  O3  UNL     1      25.443  -0.943  55.505  1.00  0.00    -0.650 OA
BRANCH  19  21
HETATM   21  O4  UNL     1      26.659   0.787  55.084  1.00  0.00    -0.776 OA
HETATM   22  H22 UNL     1      27.424   1.221  54.621  1.00  0.00     0.167 HD
ENDBRANCH  19  21
ENDBRANCH  18  19
ENDBRANCH  17  18
ENDBRANCH  15  17
BRANCH  14  23
HETATM   23  O2  UNL     1      21.206   0.066  52.796  1.00  0.00    -0.371 OA
HETATM   24  C14 UNL     1      20.518   0.644  53.844  1.00  0.00     0.204 C 
ENDBRANCH  14  23
BRANCH   1  25
HETATM   25  C2  UNL     1      26.433   2.526  50.870  1.00  0.00     0.050 C 
HETATM   26  C1  UNL     1      26.355   3.388  49.635  1.00  0.00     0.011 C 
ENDBRANCH   1  25
TORSDOF 6
ENDMDL
MODEL 6
REMARK VINA RESULT:      -6.9      3.005      6.645
REMARK  6 active torsions:
REMARK  status: ('A' for Active; 'I' for Inactive)
REMARK    1  A    between atoms: C2_2  and  C3_3 
REMARK    2  A    between atoms: C13_16  and  O2_17 
REMARK    3  A    between atoms: C15_19  and  C16_20 
REMARK    4  A    between atoms: C16_20  and  C17_21 
REMARK    5  A    between atoms: C17_21  and  C18_22 
REMARK    6  A    between atoms: C18_22  and  O4_24 
ROOT
HETATM    1  C3  UNL     1      20.207   0.778  51.284  1.00  0.00     0.015 C 
HETATM    2  N1  UNL     1      20.167   0.975  49.988  1.00  0.00    -0.293 NA
HETATM    3  C4  UNL     1      21.542   1.101  49.543  1.00  0.00     0.184 C 
HETATM    4  C5  UNL     1      22.145   1.882  50.643  1.00  0.00    -0.035 C 
HETATM    5  C6  UNL     1      22.757   3.076  50.705  1.00  0.00     0.057 C 
HETATM    6  C7  UNL     1      22.776   3.648  49.340  1.00  0.00     0.255 C 
HETATM    7  O1  UNL     1      21.721   3.483  48.616  1.00  0.00    -0.268 OA
HETATM    8  N2  UNL     1      23.740   4.396  48.560  1.00  0.00    -0.333 N 
HETATM    9  C8  UNL     1      24.783   5.293  49.014  1.00  0.00     0.087 C 
HETATM   10  C9  UNL     1      24.891   6.060  50.119  1.00  0.00    -0.005 C 
HETATM   11  C10 UNL     1      24.081   6.338  51.295  1.00  0.00     0.066 C 
HETATM   12  C11 UNL     1      23.400   5.168  51.863  1.00  0.00    -0.034 A 
HETATM   13  C12 UNL     1      22.492   4.627  52.627  1.00  0.00     0.027 A 
HETATM   14  C13 UNL     1      23.351   3.715  51.897  1.00  0.00     0.135 A 
HETATM   15  C15 UNL     1      21.670   0.749  51.538  1.00  0.00     0.065 C 
HETATM   16  H8  UNL     1      23.701   4.297  47.530  1.00  0.00     0.168 HD
ENDROOT
BRANCH  15  17
HETATM   17  C16 UNL     1      22.100   0.964  52.943  1.00  0.00     0.025 C 
BRANCH  17  18
HETATM   18  C17 UNL     1      22.778  -0.283  53.528  1.00  0.00     0.111 C 
BRANCH  18  19
HETATM   19  C18 UNL     1      21.992  -0.882  54.633  1.00  0.00     0.139 C 
HETATM   20  O3  UNL     1      22.037  -1.928  55.345  1.00  0.00    -0.650 OA
BRANCH  19  21
HETATM   21  O4  UNL     1      20.901  -0.122  55.030  1.00  0.00    -0.776 OA
HETATM   22  H22 UNL     1      19.979  -0.174  54.661  1.00  0.00     0.167 HD
ENDBRANCH  19  21
ENDBRANCH  18  19
ENDBRANCH  17  18
ENDBRANCH  15  17
BRANCH  14  23
HETATM   23  O2  UNL     1      24.371   3.011  52.537  1.00  0.00    -0.371 OA
HETATM   24  C14 UNL     1      25.382   2.586  51.698  1.00  0.00     0.204 C 
ENDBRANCH  14  23
BRANCH   1  25
HETATM   25  C2  UNL     1      18.810   0.644  51.788  1.00  0.00     0.050 C 
HETATM   26  C1  UNL     1      18.533  -0.672  52.469  1.00  0.00     0.011 C 
ENDBRANCH   1  25
TORSDOF 6
ENDMDL
MODEL 7
REMARK VINA RESULT:      -6.5      7.950     10.782
REMARK  6 active torsions:
REMARK  status: ('A' for Active; 'I' for Inactive)
REMARK    1  A    between atoms: C2_2  and  C3_3 
REMARK    2  A    between atoms: C13_16  and  O2_17 
REMARK    3  A    between atoms: C15_19  and  C16_20 
REMARK    4  A    between atoms: C16_20  and  C17_21 
REMARK    5  A    between atoms: C17_21  and  C18_22 
REMARK    6  A    between atoms: C18_22  and  O4_24 
ROOT
HETATM    1  C3  UNL     1      29.226   7.561  47.210  1.00  0.00     0.015 C 
HETATM    2  N1  UNL     1      28.886   6.402  47.720  1.00  0.00    -0.293 NA
HETATM    3  C4  UNL     1      29.995   5.970  48.550  1.00  0.00     0.184 C 
HETATM    4  C5  UNL     1      31.158   6.391  47.741  1.00  0.00    -0.035 C 
HETATM    5  C6  UNL     1      32.188   5.732  47.185  1.00  0.00     0.057 C 
HETATM    6  C7  UNL     1      32.030   4.295  47.499  1.00  0.00     0.255 C 
HETATM    7  O1  UNL     1      30.835   3.809  47.458  1.00  0.00    -0.268 OA
HETATM    8  N2  UNL     1      32.935   3.224  47.862  1.00  0.00    -0.333 N 
HETATM    9  C8  UNL     1      34.334   3.056  47.527  1.00  0.00     0.087 C 
HETATM   10  C9  UNL     1      35.064   3.490  46.478  1.00  0.00    -0.005 C 
HETATM   11  C10 UNL     1      34.824   4.270  45.275  1.00  0.00     0.066 C 
HETATM   12  C11 UNL     1      33.932   5.422  45.455  1.00  0.00    -0.034 A 
HETATM   13  C12 UNL     1      33.154   6.357  44.984  1.00  0.00     0.027 A 
HETATM   14  C13 UNL     1      33.313   6.312  46.424  1.00  0.00     0.135 A 
HETATM   15  C15 UNL     1      30.556   7.784  47.832  1.00  0.00     0.065 C 
HETATM   16  H8  UNL     1      32.555   2.454  48.442  1.00  0.00     0.168 HD
ENDROOT
BRANCH  15  17
HETATM   17  C16 UNL     1      31.432   8.787  47.175  1.00  0.00     0.025 C 
BRANCH  17  18
HETATM   18  C17 UNL     1      31.758   9.958  48.111  1.00  0.00     0.111 C 
BRANCH  18  19
HETATM   19  C18 UNL     1      30.578  10.397  48.893  1.00  0.00     0.139 C 
HETATM   20  O3  UNL     1      29.479  10.984  48.667  1.00  0.00    -0.650 OA
BRANCH  19  21
HETATM   21  O4  UNL     1      30.655  10.108  50.248  1.00  0.00    -0.776 OA
HETATM   22  H22 UNL     1      30.431   9.242  50.682  1.00  0.00     0.167 HD
ENDBRANCH  19  21
ENDBRANCH  18  19
ENDBRANCH  17  18
ENDBRANCH  15  17
BRANCH  14  23
HETATM   23  O2  UNL     1      34.103   7.246  47.096  1.00  0.00    -0.371 OA
HETATM   24  C14 UNL     1      34.602   6.804  48.305  1.00  0.00     0.204 C 
ENDBRANCH  14  23
BRANCH   1  25
HETATM   25  C2  UNL     1      28.112   8.044  46.345  1.00  0.00     0.050 C 
HETATM   26  C1  UNL     1      28.544   8.414  44.948  1.00  0.00     0.011 C 
ENDBRANCH   1  25
TORSDOF 6
ENDMDL
MODEL 8
REMARK VINA RESULT:      -6.4      2.425      4.907
REMARK  6 active torsions:
REMARK  status: ('A' for Active; 'I' for Inactive)
REMARK    1  A    between atoms: C2_2  and  C3_3 
REMARK    2  A    between atoms: C13_16  and  O2_17 
REMARK    3  A    between atoms: C15_19  and  C16_20 
REMARK    4  A    between atoms: C16_20  and  C17_21 
REMARK    5  A    between atoms: C17_21  and  C18_22 
REMARK    6  A    between atoms: C18_22  and  O4_24 
ROOT
HETATM    1  C3  UNL     1      24.945   5.575  49.642  1.00  0.00     0.015 C 
HETATM    2  N1  UNL     1      26.224   5.288  49.674  1.00  0.00    -0.293 NA
HETATM    3  C4  UNL     1      26.344   3.881  49.345  1.00  0.00     0.184 C 
HETATM    4  C5  UNL     1      25.185   3.305  50.058  1.00  0.00    -0.035 C 
HETATM    5  C6  UNL     1      25.056   2.383  51.026  1.00  0.00     0.057 C 
HETATM    6  C7  UNL     1      26.412   1.913  51.388  1.00  0.00     0.255 C 
HETATM    7  O1  UNL     1      27.350   2.797  51.438  1.00  0.00    -0.268 OA
HETATM    8  N2  UNL     1      26.991   0.628  51.724  1.00  0.00    -0.333 N 
HETATM    9  C8  UNL     1      26.364  -0.525  52.338  1.00  0.00     0.087 C 
HETATM   10  C9  UNL     1      25.314  -0.634  53.178  1.00  0.00    -0.005 C 
HETATM   11  C10 UNL     1      24.378   0.274  53.824  1.00  0.00     0.066 C 
HETATM   12  C11 UNL     1      23.912   1.381  52.980  1.00  0.00    -0.034 A 
HETATM   13  C12 UNL     1      23.349   2.546  52.823  1.00  0.00     0.027 A 
HETATM   14  C13 UNL     1      23.801   1.878  51.617  1.00  0.00     0.135 A 
HETATM   15  C15 UNL     1      24.356   4.275  49.231  1.00  0.00     0.065 C 
HETATM   16  H8  UNL     1      27.994   0.485  51.507  1.00  0.00     0.168 HD
ENDROOT
BRANCH  15  17
HETATM   17  C16 UNL     1      22.906   4.096  49.494  1.00  0.00     0.025 C 
BRANCH  17  18
HETATM   18  C17 UNL     1      22.099   4.005  48.193  1.00  0.00     0.111 C 
BRANCH  18  19
HETATM   19  C18 UNL     1      21.896   2.603  47.755  1.00  0.00     0.139 C 
HETATM   20  O3  UNL     1      22.614   1.641  47.353  1.00  0.00    -0.650 OA
BRANCH  19  21
HETATM   21  O4  UNL     1      20.572   2.189  47.777  1.00  0.00    -0.776 OA
HETATM   22  H22 UNL     1      20.209   1.347  47.391  1.00  0.00     0.167 HD
ENDBRANCH  19  21
ENDBRANCH  18  19
ENDBRANCH  17  18
ENDBRANCH  15  17
BRANCH  14  23
HETATM   23  O2  UNL     1      22.898   1.275  50.741  1.00  0.00    -0.371 OA
HETATM   24  C14 UNL     1      21.592   1.262  51.190  1.00  0.00     0.204 C 
ENDBRANCH  14  23
BRANCH   1  25
HETATM   25  C2  UNL     1      24.774   7.018  49.977  1.00  0.00     0.050 C 
HETATM   26  C1  UNL     1      23.812   7.268  51.112  1.00  0.00     0.011 C 
ENDBRANCH   1  25
TORSDOF 6
ENDMDL
MODEL 9
REMARK VINA RESULT:      -6.3      7.473     10.033
REMARK  6 active torsions:
REMARK  status: ('A' for Active; 'I' for Inactive)
REMARK    1  A    between atoms: C2_2  and  C3_3 
REMARK    2  A    between atoms: C13_16  and  O2_17 
REMARK    3  A    between atoms: C15_19  and  C16_20 
REMARK    4  A    between atoms: C16_20  and  C17_21 
REMARK    5  A    between atoms: C17_21  and  C18_22 
REMARK    6  A    between atoms: C18_22  and  O4_24 
ROOT
HETATM    1  C3  UNL     1      32.859   6.010  44.998  1.00  0.00     0.015 C 
HETATM    2  N1  UNL     1      32.287   6.841  44.160  1.00  0.00    -0.293 NA
HETATM    3  C4  UNL     1      31.891   8.004  44.932  1.00  0.00     0.184 C 
HETATM    4  C5  UNL     1      31.419   7.386  46.188  1.00  0.00    -0.035 C 
HETATM    5  C6  UNL     1      30.242   7.386  46.836  1.00  0.00     0.057 C 
HETATM    6  C7  UNL     1      29.287   8.192  46.044  1.00  0.00     0.255 C 
HETATM    7  O1  UNL     1      29.335   8.072  44.760  1.00  0.00    -0.268 OA
HETATM    8  N2  UNL     1      28.243   9.144  46.364  1.00  0.00    -0.333 N 
HETATM    9  C8  UNL     1      27.421   9.233  47.554  1.00  0.00     0.087 C 
HETATM   10  C9  UNL     1      27.015   8.296  48.436  1.00  0.00    -0.005 C 
HETATM   11  C10 UNL     1      27.190   6.863  48.610  1.00  0.00     0.066 C 
HETATM   12  C11 UNL     1      28.540   6.366  48.318  1.00  0.00    -0.034 A 
HETATM   13  C12 UNL     1      29.377   5.402  48.055  1.00  0.00     0.027 A 
HETATM   14  C13 UNL     1      29.933   6.739  48.127  1.00  0.00     0.135 A 
HETATM   15  C15 UNL     1      32.811   6.782  46.266  1.00  0.00     0.065 C 
HETATM   16  H8  UNL     1      28.032   9.876  45.662  1.00  0.00     0.168 HD
ENDROOT
BRANCH  15  17
HETATM   17  C16 UNL     1      32.986   6.004  47.519  1.00  0.00     0.025 C 
BRANCH  17  18
HETATM   18  C17 UNL     1      34.405   6.148  48.085  1.00  0.00     0.111 C 
BRANCH  18  19
HETATM   19  C18 UNL     1      34.951   4.856  48.563  1.00  0.00     0.139 C 
HETATM   20  O3  UNL     1      35.006   3.660  48.151  1.00  0.00    -0.650 OA
BRANCH  19  21
HETATM   21  O4  UNL     1      35.586   4.930  49.794  1.00  0.00    -0.776 OA
HETATM   22  H22 UNL     1      35.805   4.168  50.395  1.00  0.00     0.167 HD
ENDBRANCH  19  21
ENDBRANCH  18  19
ENDBRANCH  17  18
ENDBRANCH  15  17
BRANCH  14  23
HETATM   23  O2  UNL     1      30.687   7.151  49.226  1.00  0.00    -0.371 OA
HETATM   24  C14 UNL     1      30.854   8.519  49.319  1.00  0.00     0.204 C 
ENDBRANCH  14  23
BRANCH   1  25
HETATM   25  C2  UNL     1      33.282   4.794  44.246  1.00  0.00     0.050 C 
HETATM   26  C1  UNL     1      34.656   4.297  44.617  1.00  0.00     0.011 C 
ENDBRANCH   1  25
TORSDOF 6
ENDMDL
