MODEL 1
REMARK VINA RESULT:      -7.1      0.000      0.000
REMARK  4 active torsions:
REMARK  status: ('A' for Active; 'I' for Inactive)
REMARK    1  A    between atoms: C3_3  and  C4_5 
REMARK    2  A    between atoms: C5_7  and  C6_8 
REMARK    3  A    between atoms: C6_8  and  N1_9 
REMARK    4  A    between atoms: N1_9  and  C7_10 
ROOT
HETATM    1  C1  UNL     1      26.915   8.717  50.241  1.00  0.00     0.100 C 
HETATM    2  C2  UNL     1      26.685   7.906  49.230  1.00  0.00    -0.112 C 
HETATM    3  C3  UNL     1      26.431   6.967  48.334  1.00  0.00     0.179 C 
HETATM    4  F1  UNL     1      26.513   7.488  47.094  1.00  0.00    -0.195 F 
ENDROOT
BRANCH   3   5
HETATM    5  C4  UNL     1      26.129   5.636  48.821  1.00  0.00     0.078 C 
HETATM    6 CL1  UNL     1      24.429   5.303  48.999  1.00  0.00    -0.081 Cl
HETATM    7  C5  UNL     1      27.012   4.699  49.125  1.00  0.00     0.020 C 
BRANCH   7   8
HETATM    8  C6  UNL     1      26.587   3.386  49.609  1.00  0.00     0.150 C 
BRANCH   8   9
HETATM    9  N1  UNL     1      26.692   3.213  51.047  1.00  0.00    -0.370 N 
HETATM   10  H6  UNL     1      27.534   3.662  51.453  1.00  0.00     0.161 HD
BRANCH   9  11
HETATM   11  C7  UNL     1      25.692   2.492  51.714  1.00  0.00     0.137 A 
HETATM   12  N2  UNL     1      24.418   2.859  51.672  1.00  0.00    -0.224 NA
HETATM   13  C8  UNL     1      23.429   2.199  52.294  1.00  0.00     0.236 A 
HETATM   14  N3  UNL     1      23.665   1.096  53.019  1.00  0.00    -0.240 NA
HETATM   15  C9  UNL     1      24.946   0.638  53.122  1.00  0.00     0.089 A 
HETATM   16  C10 UNL     1      25.252  -0.500  53.860  1.00  0.00     0.150 A 
HETATM   17  C13 UNL     1      25.915   1.362  52.459  1.00  0.00     0.043 A 
HETATM   18  N4  UNL     1      26.528  -0.919  53.938  1.00  0.00    -0.251 NA
HETATM   19  C11 UNL     1      27.515  -0.257  53.314  1.00  0.00     0.103 A 
HETATM   20 BR1  UNL     1      29.309  -0.913  53.469  1.00  0.00    -0.029 Br
HETATM   21  C12 UNL     1      27.195   0.865  52.590  1.00  0.00     0.057 A 
ENDBRANCH   9  11
ENDBRANCH   8   9
ENDBRANCH   7   8
ENDBRANCH   3   5
TORSDOF 4
ENDMDL
MODEL 2
REMARK VINA RESULT:      -7.0      4.454      6.279
REMARK  4 active torsions:
REMARK  status: ('A' for Active; 'I' for Inactive)
REMARK    1  A    between atoms: C3_3  and  C4_5 
REMARK    2  A    between atoms: C5_7  and  C6_8 
REMARK    3  A    between atoms: C6_8  and  N1_9 
REMARK    4  A    between atoms: N1_9  and  C7_10 
ROOT
HETATM    1  C1  UNL     1      27.218  -2.326  52.597  1.00  0.00     0.100 C 
HETATM    2  C2  UNL     1      27.905  -1.285  53.021  1.00  0.00    -0.112 C 
HETATM    3  C3  UNL     1      28.473  -0.142  53.367  1.00  0.00     0.179 C 
HETATM    4  F1  UNL     1      29.596  -0.387  54.069  1.00  0.00    -0.195 F 
ENDROOT
BRANCH   3   5
HETATM    5  C4  UNL     1      27.822   1.086  52.955  1.00  0.00     0.078 C 
HETATM    6 CL1  UNL     1      28.551   2.534  53.589  1.00  0.00    -0.081 Cl
HETATM    7  C5  UNL     1      26.763   1.179  52.167  1.00  0.00     0.020 C 
BRANCH   7   8
HETATM    8  C6  UNL     1      26.191   2.479  51.818  1.00  0.00     0.150 C 
BRANCH   8   9
HETATM    9  N1  UNL     1      25.264   3.011  52.800  1.00  0.00    -0.370 N 
HETATM   10  H6  UNL     1      25.658   3.044  53.759  1.00  0.00     0.161 HD
BRANCH   9  11
HETATM   11  C7  UNL     1      23.988   3.409  52.377  1.00  0.00     0.137 A 
HETATM   12  N2  UNL     1      23.781   4.579  51.785  1.00  0.00    -0.224 NA
HETATM   13  C8  UNL     1      22.578   4.999  51.364  1.00  0.00     0.236 A 
HETATM   14  N3  UNL     1      21.476   4.250  51.516  1.00  0.00    -0.240 NA
HETATM   15  C9  UNL     1      21.588   3.029  52.113  1.00  0.00     0.089 A 
HETATM   16  C10 UNL     1      20.481   2.208  52.297  1.00  0.00     0.150 A 
HETATM   17  C13 UNL     1      22.851   2.656  52.522  1.00  0.00     0.043 A 
HETATM   18  N4  UNL     1      20.633   1.010  52.891  1.00  0.00    -0.251 NA
HETATM   19  C11 UNL     1      21.837   0.592  53.311  1.00  0.00     0.103 A 
HETATM   20 BR1  UNL     1      21.977  -1.126  54.149  1.00  0.00    -0.029 Br
HETATM   21  C12 UNL     1      22.919   1.415  53.121  1.00  0.00     0.057 A 
ENDBRANCH   9  11
ENDBRANCH   8   9
ENDBRANCH   7   8
ENDBRANCH   3   5
TORSDOF 4
ENDMDL
MODEL 3
REMARK VINA RESULT:      -6.6      2.343      3.125
REMARK  4 active torsions:
REMARK  status: ('A' for Active; 'I' for Inactive)
REMARK    1  A    between atoms: C3_3  and  C4_5 
REMARK    2  A    between atoms: C5_7  and  C6_8 
REMARK    3  A    between atoms: C6_8  and  N1_9 
REMARK    4  A    between atoms: N1_9  and  C7_10 
ROOT
HETATM    1  C1  UNL     1      26.979   8.769  49.418  1.00  0.00     0.100 C 
HETATM    2  C2  UNL     1      27.280   7.617  48.855  1.00  0.00    -0.112 C 
HETATM    3  C3  UNL     1      27.454   6.392  48.387  1.00  0.00     0.179 C 
HETATM    4  F1  UNL     1      28.465   6.386  47.497  1.00  0.00    -0.195 F 
ENDROOT
BRANCH   3   5
HETATM    5  C4  UNL     1      26.580   5.350  48.886  1.00  0.00     0.078 C 
HETATM    6 CL1  UNL     1      24.890   5.769  48.889  1.00  0.00    -0.081 Cl
HETATM    7  C5  UNL     1      26.957   4.158  49.318  1.00  0.00     0.020 C 
BRANCH   7   8
HETATM    8  C6  UNL     1      25.979   3.183  49.801  1.00  0.00     0.150 C 
BRANCH   8   9
HETATM    9  N1  UNL     1      25.809   3.165  51.242  1.00  0.00    -0.370 N 
HETATM   10  H6  UNL     1      25.646   4.107  51.647  1.00  0.00     0.161 HD
BRANCH   9  11
HETATM   11  C7  UNL     1      25.878   1.937  51.915  1.00  0.00     0.137 A 
HETATM   12  N2  UNL     1      27.031   1.307  52.104  1.00  0.00    -0.224 NA
HETATM   13  C8  UNL     1      27.143   0.132  52.742  1.00  0.00     0.236 A 
HETATM   14  N3  UNL     1      26.073  -0.503  53.244  1.00  0.00    -0.240 NA
HETATM   15  C9  UNL     1      24.842   0.068  53.101  1.00  0.00     0.089 A 
HETATM   16  C10 UNL     1      23.698  -0.544  53.601  1.00  0.00     0.150 A 
HETATM   17  C13 UNL     1      24.796   1.274  52.436  1.00  0.00     0.043 A 
HETATM   18  N4  UNL     1      22.502   0.051  53.438  1.00  0.00    -0.251 NA
HETATM   19  C11 UNL     1      22.393   1.227  52.800  1.00  0.00     0.103 A 
HETATM   20 BR1  UNL     1      20.657   2.014  52.606  1.00  0.00    -0.029 Br
HETATM   21  C12 UNL     1      23.533   1.816  52.312  1.00  0.00     0.057 A 
ENDBRANCH   9  11
ENDBRANCH   8   9
ENDBRANCH   7   8
ENDBRANCH   3   5
TORSDOF 4
ENDMDL
MODEL 4
REMARK VINA RESULT:      -6.6      1.720      2.169
REMARK  4 active torsions:
REMARK  status: ('A' for Active; 'I' for Inactive)
REMARK    1  A    between atoms: C3_3  and  C4_5 
REMARK    2  A    between atoms: C5_7  and  C6_8 
REMARK    3  A    between atoms: C6_8  and  N1_9 
REMARK    4  A    between atoms: N1_9  and  C7_10 
ROOT
HETATM    1  C1  UNL     1      22.066   5.762  46.618  1.00  0.00     0.100 C 
HETATM    2  C2  UNL     1      22.949   5.999  47.566  1.00  0.00    -0.112 C 
HETATM    3  C3  UNL     1      23.864   6.065  48.519  1.00  0.00     0.179 C 
HETATM    4  F1  UNL     1      24.024   7.345  48.907  1.00  0.00    -0.195 F 
ENDROOT
BRANCH   3   5
HETATM    5  C4  UNL     1      24.487   4.827  48.941  1.00  0.00     0.078 C 
HETATM    6 CL1  UNL     1      23.460   3.426  48.820  1.00  0.00    -0.081 Cl
HETATM    7  C5  UNL     1      25.725   4.691  49.389  1.00  0.00     0.020 C 
BRANCH   7   8
HETATM    8  C6  UNL     1      26.247   3.384  49.787  1.00  0.00     0.150 C 
BRANCH   8   9
HETATM    9  N1  UNL     1      26.454   3.229  51.215  1.00  0.00    -0.370 N 
HETATM   10  H6  UNL     1      27.265   3.771  51.573  1.00  0.00     0.161 HD
BRANCH   9  11
HETATM   11  C7  UNL     1      25.581   2.405  51.938  1.00  0.00     0.137 A 
HETATM   12  N2  UNL     1      24.274   2.631  51.974  1.00  0.00    -0.224 NA
HETATM   13  C8  UNL     1      23.403   1.868  52.651  1.00  0.00     0.236 A 
HETATM   14  N3  UNL     1      23.801   0.800  53.357  1.00  0.00    -0.240 NA
HETATM   15  C9  UNL     1      25.129   0.484  53.381  1.00  0.00     0.089 A 
HETATM   16  C10 UNL     1      25.600  -0.611  54.095  1.00  0.00     0.150 A 
HETATM   17  C13 UNL     1      25.970   1.308  52.664  1.00  0.00     0.043 A 
HETATM   18  N4  UNL     1      26.917  -0.889  54.094  1.00  0.00    -0.251 NA
HETATM   19  C11 UNL     1      27.786  -0.124  53.415  1.00  0.00     0.103 A 
HETATM   20 BR1  UNL     1      29.647  -0.580  53.459  1.00  0.00    -0.029 Br
HETATM   21  C12 UNL     1      27.303   0.954  52.716  1.00  0.00     0.057 A 
ENDBRANCH   9  11
ENDBRANCH   8   9
ENDBRANCH   7   8
ENDBRANCH   3   5
TORSDOF 4
ENDMDL
MODEL 5
REMARK VINA RESULT:      -6.6      4.076      6.862
REMARK  4 active torsions:
REMARK  status: ('A' for Active; 'I' for Inactive)
REMARK    1  A    between atoms: C3_3  and  C4_5 
REMARK    2  A    between atoms: C5_7  and  C6_8 
REMARK    3  A    between atoms: C6_8  and  N1_9 
REMARK    4  A    between atoms: N1_9  and  C7_10 
ROOT
HETATM    1  C1  UNL     1      22.219  -0.351  52.996  1.00  0.00     0.100 C 
HETATM    2  C2  UNL     1      23.503  -0.221  53.254  1.00  0.00    -0.112 C 
HETATM    3  C3  UNL     1      24.787   0.055  53.415  1.00  0.00     0.179 C 
HETATM    4  F1  UNL     1      25.362  -0.894  54.180  1.00  0.00    -0.195 F 
ENDROOT
BRANCH   3   5
HETATM    5  C4  UNL     1      25.304   1.251  52.781  1.00  0.00     0.078 C 
HETATM    6 CL1  UNL     1      24.434   2.707  53.175  1.00  0.00    -0.081 Cl
HETATM    7  C5  UNL     1      26.342   1.312  51.964  1.00  0.00     0.020 C 
BRANCH   7   8
HETATM    8  C6  UNL     1      26.774   2.583  51.382  1.00  0.00     0.150 C 
BRANCH   8   9
HETATM    9  N1  UNL     1      26.496   2.720  49.964  1.00  0.00    -0.370 N 
HETATM   10  H6  UNL     1      26.856   1.928  49.397  1.00  0.00     0.161 HD
BRANCH   9  11
HETATM   11  C7  UNL     1      25.801   3.853  49.519  1.00  0.00     0.137 A 
HETATM   12  N2  UNL     1      26.418   5.004  49.283  1.00  0.00    -0.224 NA
HETATM   13  C8  UNL     1      25.793   6.111  48.856  1.00  0.00     0.236 A 
HETATM   14  N3  UNL     1      24.470   6.134  48.633  1.00  0.00    -0.240 NA
HETATM   15  C9  UNL     1      23.748   4.996  48.847  1.00  0.00     0.089 A 
HETATM   16  C10 UNL     1      22.375   4.960  48.633  1.00  0.00     0.150 A 
HETATM   17  C13 UNL     1      24.450   3.894  49.285  1.00  0.00     0.043 A 
HETATM   18  N4  UNL     1      21.697   3.818  48.856  1.00  0.00    -0.251 NA
HETATM   19  C11 UNL     1      22.326   2.711  49.282  1.00  0.00     0.103 A 
HETATM   20 BR1  UNL     1      21.297   1.122  49.579  1.00  0.00    -0.029 Br
HETATM   21  C12 UNL     1      23.682   2.766  49.489  1.00  0.00     0.057 A 
ENDBRANCH   9  11
ENDBRANCH   8   9
ENDBRANCH   7   8
ENDBRANCH   3   5
TORSDOF 4
ENDMDL
MODEL 6
REMARK VINA RESULT:      -6.5      3.737      4.632
REMARK  4 active torsions:
REMARK  status: ('A' for Active; 'I' for Inactive)
REMARK    1  A    between atoms: C3_3  and  C4_5 
REMARK    2  A    between atoms: C5_7  and  C6_8 
REMARK    3  A    between atoms: C6_8  and  N1_9 
REMARK    4  A    between atoms: N1_9  and  C7_10 
ROOT
HETATM    1  C1  UNL     1      20.862   3.729  51.958  1.00  0.00     0.100 C 
HETATM    2  C2  UNL     1      22.110   3.999  52.279  1.00  0.00    -0.112 C 
HETATM    3  C3  UNL     1      23.408   4.152  52.480  1.00  0.00     0.179 C 
HETATM    4  F1  UNL     1      23.613   5.063  53.452  1.00  0.00    -0.195 F 
ENDROOT
BRANCH   3   5
HETATM    5  C4  UNL     1      24.313   3.364  51.668  1.00  0.00     0.078 C 
HETATM    6 CL1  UNL     1      23.579   2.649  50.260  1.00  0.00    -0.081 Cl
HETATM    7  C5  UNL     1      25.598   3.159  51.909  1.00  0.00     0.020 C 
BRANCH   7   8
HETATM    8  C6  UNL     1      26.415   2.341  51.013  1.00  0.00     0.150 C 
BRANCH   8   9
HETATM    9  N1  UNL     1      26.363   0.916  51.286  1.00  0.00    -0.370 N 
HETATM   10  H6  UNL     1      26.130   0.348  50.449  1.00  0.00     0.161 HD
BRANCH   9  11
HETATM   11  C7  UNL     1      26.620   0.468  52.589  1.00  0.00     0.137 A 
HETATM   12  N2  UNL     1      27.840   0.493  53.109  1.00  0.00    -0.224 NA
HETATM   13  C8  UNL     1      28.131   0.075  54.351  1.00  0.00     0.236 A 
HETATM   14  N3  UNL     1      27.187  -0.408  55.171  1.00  0.00    -0.240 NA
HETATM   15  C9  UNL     1      25.898  -0.472  54.727  1.00  0.00     0.089 A 
HETATM   16  C10 UNL     1      24.878  -0.963  55.533  1.00  0.00     0.150 A 
HETATM   17  C13 UNL     1      25.667  -0.027  53.443  1.00  0.00     0.043 A 
HETATM   18  N4  UNL     1      23.619  -1.010  55.057  1.00  0.00    -0.251 NA
HETATM   19  C11 UNL     1      23.332  -0.591  53.815  1.00  0.00     0.103 A 
HETATM   20 BR1  UNL     1      21.518  -0.689  53.205  1.00  0.00    -0.029 Br
HETATM   21  C12 UNL     1      24.352  -0.110  53.033  1.00  0.00     0.057 A 
ENDBRANCH   9  11
ENDBRANCH   8   9
ENDBRANCH   7   8
ENDBRANCH   3   5
TORSDOF 4
ENDMDL
MODEL 7
REMARK VINA RESULT:      -6.3      3.618      4.409
REMARK  4 active torsions:
REMARK  status: ('A' for Active; 'I' for Inactive)
REMARK    1  A    between atoms: C3_3  and  C4_5 
REMARK    2  A    between atoms: C5_7  and  C6_8 
REMARK    3  A    between atoms: C6_8  and  N1_9 
REMARK    4  A    between atoms: N1_9  and  C7_10 
ROOT
HETATM    1  C1  UNL     1      22.776   5.864  47.772  1.00  0.00     0.100 C 
HETATM    2  C2  UNL     1      22.458   4.634  47.428  1.00  0.00    -0.112 C 
HETATM    3  C3  UNL     1      22.101   3.372  47.252  1.00  0.00     0.179 C 
HETATM    4  F1  UNL     1      22.243   3.038  45.954  1.00  0.00    -0.195 F 
ENDROOT
BRANCH   3   5
HETATM    5  C4  UNL     1      21.651   2.631  48.413  1.00  0.00     0.078 C 
HETATM    6 CL1  UNL     1      19.921   2.537  48.580  1.00  0.00    -0.081 Cl
HETATM    7  C5  UNL     1      22.426   2.046  49.311  1.00  0.00     0.020 C 
BRANCH   7   8
HETATM    8  C6  UNL     1      21.855   1.321  50.446  1.00  0.00     0.150 C 
BRANCH   8   9
HETATM    9  N1  UNL     1      22.788   1.071  51.530  1.00  0.00    -0.370 N 
HETATM   10  H6  UNL     1      23.715   1.514  51.383  1.00  0.00     0.161 HD
BRANCH   9  11
HETATM   11  C7  UNL     1      22.366   0.293  52.617  1.00  0.00     0.137 A 
HETATM   12  N2  UNL     1      21.091  -0.025  52.797  1.00  0.00    -0.224 NA
HETATM   13  C8  UNL     1      20.643  -0.767  53.822  1.00  0.00     0.236 A 
HETATM   14  N3  UNL     1      21.473  -1.250  54.758  1.00  0.00    -0.240 NA
HETATM   15  C9  UNL     1      22.807  -0.977  54.659  1.00  0.00     0.089 A 
HETATM   16  C10 UNL     1      23.715  -1.451  55.599  1.00  0.00     0.150 A 
HETATM   17  C13 UNL     1      23.201  -0.210  53.583  1.00  0.00     0.043 A 
HETATM   18  N4  UNL     1      25.022  -1.160  55.466  1.00  0.00    -0.251 NA
HETATM   19  C11 UNL     1      25.466  -0.418  54.440  1.00  0.00     0.103 A 
HETATM   20 BR1  UNL     1      27.341  -0.043  54.316  1.00  0.00    -0.029 Br
HETATM   21  C12 UNL     1      24.555   0.042  53.521  1.00  0.00     0.057 A 
ENDBRANCH   9  11
ENDBRANCH   8   9
ENDBRANCH   7   8
ENDBRANCH   3   5
TORSDOF 4
ENDMDL
MODEL 8
REMARK VINA RESULT:      -6.0      3.752      4.751
REMARK  4 active torsions:
REMARK  status: ('A' for Active; 'I' for Inactive)
REMARK    1  A    between atoms: C3_3  and  C4_5 
REMARK    2  A    between atoms: C5_7  and  C6_8 
REMARK    3  A    between atoms: C6_8  and  N1_9 
REMARK    4  A    between atoms: N1_9  and  C7_10 
ROOT
HETATM    1  C1  UNL     1      21.962   4.586  47.354  1.00  0.00     0.100 C 
HETATM    2  C2  UNL     1      22.119   5.107  48.552  1.00  0.00    -0.112 C 
HETATM    3  C3  UNL     1      22.387   5.499  49.787  1.00  0.00     0.179 C 
HETATM    4  F1  UNL     1      21.686   6.614  50.071  1.00  0.00    -0.195 F 
ENDROOT
BRANCH   3   5
HETATM    5  C4  UNL     1      23.325   4.707  50.556  1.00  0.00     0.078 C 
HETATM    6 CL1  UNL     1      24.988   4.897  50.078  1.00  0.00    -0.081 Cl
HETATM    7  C5  UNL     1      23.022   3.890  51.552  1.00  0.00     0.020 C 
BRANCH   7   8
HETATM    8  C6  UNL     1      24.060   3.140  52.259  1.00  0.00     0.150 C 
BRANCH   8   9
HETATM    9  N1  UNL     1      24.083   1.719  51.960  1.00  0.00    -0.370 N 
HETATM   10  H6  UNL     1      23.854   1.504  50.971  1.00  0.00     0.161 HD
BRANCH   9  11
HETATM   11  C7  UNL     1      24.397   0.819  52.988  1.00  0.00     0.137 A 
HETATM   12  N2  UNL     1      25.638   0.675  53.435  1.00  0.00    -0.224 NA
HETATM   13  C8  UNL     1      25.984  -0.173  54.416  1.00  0.00     0.236 A 
HETATM   14  N3  UNL     1      25.079  -0.953  55.026  1.00  0.00    -0.240 NA
HETATM   15  C9  UNL     1      23.774  -0.875  54.636  1.00  0.00     0.089 A 
HETATM   16  C10 UNL     1      22.792  -1.658  55.232  1.00  0.00     0.150 A 
HETATM   17  C13 UNL     1      23.486   0.015  53.624  1.00  0.00     0.043 A 
HETATM   18  N4  UNL     1      21.516  -1.553  54.818  1.00  0.00    -0.251 NA
HETATM   19  C11 UNL     1      21.173  -0.703  53.838  1.00  0.00     0.103 A 
HETATM   20 BR1  UNL     1      19.336  -0.607  53.300  1.00  0.00    -0.029 Br
HETATM   21  C12 UNL     1      22.156   0.062  53.260  1.00  0.00     0.057 A 
ENDBRANCH   9  11
ENDBRANCH   8   9
ENDBRANCH   7   8
ENDBRANCH   3   5
TORSDOF 4
ENDMDL
MODEL 9
REMARK VINA RESULT:      -6.0      2.139      2.691
REMARK  4 active torsions:
REMARK  status: ('A' for Active; 'I' for Inactive)
REMARK    1  A    between atoms: C3_3  and  C4_5 
REMARK    2  A    between atoms: C5_7  and  C6_8 
REMARK    3  A    between atoms: C6_8  and  N1_9 
REMARK    4  A    between atoms: N1_9  and  C7_10 
ROOT
HETATM    1  C1  UNL     1      27.211   7.896  47.219  1.00  0.00     0.100 C 
HETATM    2  C2  UNL     1      26.907   7.899  48.499  1.00  0.00    -0.112 C 
HETATM    3  C3  UNL     1      26.485   7.777  49.747  1.00  0.00     0.179 C 
HETATM    4  F1  UNL     1      27.152   8.640  50.538  1.00  0.00    -0.195 F 
ENDROOT
BRANCH   3   5
HETATM    5  C4  UNL     1      25.449   6.800  50.016  1.00  0.00     0.078 C 
HETATM    6 CL1  UNL     1      25.375   5.496  48.865  1.00  0.00    -0.081 Cl
HETATM    7  C5  UNL     1      24.598   6.826  51.028  1.00  0.00     0.020 C 
BRANCH   7   8
HETATM    8  C6  UNL     1      23.591   5.779  51.198  1.00  0.00     0.150 C 
BRANCH   8   9
HETATM    9  N1  UNL     1      23.805   4.920  52.349  1.00  0.00    -0.370 N 
HETATM   10  H6  UNL     1      24.522   5.285  53.004  1.00  0.00     0.161 HD
BRANCH   9  11
HETATM   11  C7  UNL     1      23.058   3.739  52.458  1.00  0.00     0.137 A 
HETATM   12  N2  UNL     1      21.752   3.714  52.225  1.00  0.00    -0.224 NA
HETATM   13  C8  UNL     1      20.998   2.608  52.317  1.00  0.00     0.236 A 
HETATM   14  N3  UNL     1      21.525   1.423  52.660  1.00  0.00    -0.240 NA
HETATM   15  C9  UNL     1      22.862   1.347  52.918  1.00  0.00     0.089 A 
HETATM   16  C10 UNL     1      23.463   0.146  53.278  1.00  0.00     0.150 A 
HETATM   17  C13 UNL     1      23.579   2.519  52.806  1.00  0.00     0.043 A 
HETATM   18  N4  UNL     1      24.786   0.113  53.525  1.00  0.00    -0.251 NA
HETATM   19  C11 UNL     1      25.537   1.221  53.432  1.00  0.00     0.103 A 
HETATM   20 BR1  UNL     1      27.413   1.098  53.799  1.00  0.00    -0.029 Br
HETATM   21  C12 UNL     1      24.926   2.398  53.076  1.00  0.00     0.057 A 
ENDBRANCH   9  11
ENDBRANCH   8   9
ENDBRANCH   7   8
ENDBRANCH   3   5
TORSDOF 4
ENDMDL
