MODEL 1
REMARK VINA RESULT:      -8.9      0.000      0.000
REMARK  4 active torsions:
REMARK  status: ('A' for Active; 'I' for Inactive)
REMARK    1  A    between atoms: C3_5  and  C4_6 
REMARK    2  A    between atoms: C4_6  and  O2_7 
REMARK    3  A    between atoms: O2_7  and  C5_8 
REMARK    4  A    between atoms: C5_8  and  C6_9 
ROOT
HETATM    1  O1  UNL     1      24.633   6.949  50.366  1.00  0.00    -0.114 OA
HETATM    2  C1  UNL     1      24.735   8.131  50.745  1.00  0.00     0.493 A 
HETATM    3  N1  UNL     1      24.017   7.159  51.488  1.00  0.00     0.139 N 
HETATM    4  C2  UNL     1      23.696   5.751  51.377  1.00  0.00     0.247 C 
HETATM    5  C3  UNL     1      23.751   4.582  50.757  1.00  0.00    -0.027 C 
HETATM    6  C12 UNL     1      24.401   4.115  49.525  1.00  0.00     0.065 C 
HETATM    7  C13 UNL     1      25.358   2.972  49.755  1.00  0.00    -0.014 C 
HETATM    8  C14 UNL     1      26.652   3.244  49.483  1.00  0.00     0.060 C 
HETATM    9  C15 UNL     1      26.872   4.560  49.038  1.00  0.00    -0.077 C 
HETATM   10  C16 UNL     1      27.051   5.645  48.692  1.00  0.00    -0.066 C 
HETATM   11  C17 UNL     1      27.263   6.990  48.289  1.00  0.00     0.301 C 
HETATM   12  C18 UNL     1      26.010   7.754  48.030  1.00  0.00     0.082 C 
HETATM   13  C19 UNL     1      26.096   8.988  48.859  1.00  0.00     0.158 C 
HETATM   14  C20 UNL     1      27.588   9.074  49.202  1.00  0.00     0.303 C 
HETATM   15  N2  UNL     1      27.967   7.695  49.354  1.00  0.00     0.102 N 
HETATM   16  O3  UNL     1      25.410   9.047  50.045  1.00  0.00    -0.316 OA
HETATM   17  H1  UNL     1      23.688   7.770  52.308  1.00  0.00     0.331 HD
HETATM   18  H21 UNL     1      29.002   7.582  49.299  1.00  0.00     0.317 HD
ENDROOT
BRANCH   5  19
HETATM   19  C4  UNL     1      23.059   3.381  51.346  1.00  0.00     0.204 C 
BRANCH  19  20
HETATM   20  O2  UNL     1      23.387   3.319  52.699  1.00  0.00    -0.382 OA
BRANCH  20  21
HETATM   21  C5  UNL     1      23.571   1.991  53.072  1.00  0.00     0.206 C 
BRANCH  21  22
HETATM   22  C6  UNL     1      24.983   1.561  52.947  1.00  0.00    -0.032 A 
HETATM   23  C7  UNL     1      25.351   0.382  52.317  1.00  0.00     0.009 A 
HETATM   24  C8  UNL     1      26.681   0.036  52.229  1.00  0.00     0.004 A 
HETATM   25  C9  UNL     1      27.702   0.785  52.728  1.00  0.00     0.042 A 
HETATM   26  C10 UNL     1      27.326   1.959  53.353  1.00  0.00     0.117 A 
HETATM   27  F1  UNL     1      28.205   2.832  53.911  1.00  0.00    -0.206 F 
HETATM   28  C11 UNL     1      26.010   2.353  53.471  1.00  0.00     0.051 A 
ENDBRANCH  21  22
ENDBRANCH  20  21
ENDBRANCH  19  20
ENDBRANCH   5  19
TORSDOF 4
ENDMDL
MODEL 2
REMARK VINA RESULT:      -8.9      1.714      2.426
REMARK  4 active torsions:
REMARK  status: ('A' for Active; 'I' for Inactive)
REMARK    1  A    between atoms: C3_5  and  C4_6 
REMARK    2  A    between atoms: C4_6  and  O2_7 
REMARK    3  A    between atoms: O2_7  and  C5_8 
REMARK    4  A    between atoms: C5_8  and  C6_9 
ROOT
HETATM    1  O1  UNL     1      26.682   7.771  49.572  1.00  0.00    -0.114 OA
HETATM    2  C1  UNL     1      27.374   8.772  49.842  1.00  0.00     0.493 A 
HETATM    3  N1  UNL     1      26.176   8.471  50.541  1.00  0.00     0.139 N 
HETATM    4  C2  UNL     1      25.153   7.445  50.517  1.00  0.00     0.247 C 
HETATM    5  C3  UNL     1      24.624   6.330  50.037  1.00  0.00    -0.027 C 
HETATM    6  C12 UNL     1      25.030   5.379  48.994  1.00  0.00     0.065 C 
HETATM    7  C13 UNL     1      25.185   3.967  49.505  1.00  0.00    -0.014 C 
HETATM    8  C14 UNL     1      26.439   3.470  49.441  1.00  0.00     0.060 C 
HETATM    9  C15 UNL     1      27.379   4.371  48.912  1.00  0.00    -0.077 C 
HETATM   10  C16 UNL     1      28.151   5.120  48.496  1.00  0.00    -0.066 C 
HETATM   11  C17 UNL     1      29.097   6.057  48.003  1.00  0.00     0.301 C 
HETATM   12  C18 UNL     1      28.492   7.301  47.450  1.00  0.00     0.082 C 
HETATM   13  C19 UNL     1      29.155   8.434  48.152  1.00  0.00     0.158 C 
HETATM   14  C20 UNL     1      30.413   7.789  48.745  1.00  0.00     0.303 C 
HETATM   15  N2  UNL     1      29.965   6.469  49.100  1.00  0.00     0.102 N 
HETATM   16  O3  UNL     1      28.502   9.056  49.186  1.00  0.00    -0.316 OA
HETATM   17  H1  UNL     1      26.155   9.300  51.223  1.00  0.00     0.331 HD
HETATM   18  H21 UNL     1      30.772   5.825  49.241  1.00  0.00     0.317 HD
ENDROOT
BRANCH   5  19
HETATM   19  C4  UNL     1      23.338   5.797  50.612  1.00  0.00     0.204 C 
BRANCH  19  20
HETATM   20  O2  UNL     1      23.488   5.716  51.995  1.00  0.00    -0.382 OA
BRANCH  20  21
HETATM   21  C5  UNL     1      22.664   4.711  52.494  1.00  0.00     0.206 C 
BRANCH  21  22
HETATM   22  C6  UNL     1      23.341   3.394  52.531  1.00  0.00    -0.032 A 
HETATM   23  C7  UNL     1      22.845   2.281  51.872  1.00  0.00     0.009 A 
HETATM   24  C8  UNL     1      23.521   1.083  51.941  1.00  0.00     0.004 A 
HETATM   25  C9  UNL     1      24.680   0.895  52.629  1.00  0.00     0.042 A 
HETATM   26  C10 UNL     1      25.168   2.011  53.284  1.00  0.00     0.117 A 
HETATM   27  F1  UNL     1      26.310   2.015  54.020  1.00  0.00    -0.206 F 
HETATM   28  C11 UNL     1      24.532   3.234  53.248  1.00  0.00     0.051 A 
ENDBRANCH  21  22
ENDBRANCH  20  21
ENDBRANCH  19  20
ENDBRANCH   5  19
TORSDOF 4
ENDMDL
MODEL 3
REMARK VINA RESULT:      -8.1      3.020      4.061
REMARK  4 active torsions:
REMARK  status: ('A' for Active; 'I' for Inactive)
REMARK    1  A    between atoms: C3_5  and  C4_6 
REMARK    2  A    between atoms: C4_6  and  O2_7 
REMARK    3  A    between atoms: O2_7  and  C5_8 
REMARK    4  A    between atoms: C5_8  and  C6_9 
ROOT
HETATM    1  O1  UNL     1      26.497   7.683  49.724  1.00  0.00    -0.114 OA
HETATM    2  C1  UNL     1      27.144   8.716  49.980  1.00  0.00     0.493 A 
HETATM    3  N1  UNL     1      26.006   8.331  50.735  1.00  0.00     0.139 N 
HETATM    4  C2  UNL     1      25.044   7.247  50.741  1.00  0.00     0.247 C 
HETATM    5  C3  UNL     1      24.554   6.114  50.265  1.00  0.00    -0.027 C 
HETATM    6  C12 UNL     1      24.955   5.210  49.178  1.00  0.00     0.065 C 
HETATM    7  C13 UNL     1      25.219   3.800  49.646  1.00  0.00    -0.014 C 
HETATM    8  C14 UNL     1      26.493   3.377  49.502  1.00  0.00     0.060 C 
HETATM    9  C15 UNL     1      27.350   4.344  48.944  1.00  0.00    -0.077 C 
HETATM   10  C16 UNL     1      28.053   5.144  48.506  1.00  0.00    -0.066 C 
HETATM   11  C17 UNL     1      28.916   6.145  47.985  1.00  0.00     0.301 C 
HETATM   12  C18 UNL     1      28.210   7.363  47.496  1.00  0.00     0.082 C 
HETATM   13  C19 UNL     1      28.845   8.519  48.188  1.00  0.00     0.158 C 
HETATM   14  C20 UNL     1      30.169   7.936  48.696  1.00  0.00     0.303 C 
HETATM   15  N2  UNL     1      29.818   6.585  49.043  1.00  0.00     0.102 N 
HETATM   16  O3  UNL     1      28.216   9.079  49.270  1.00  0.00    -0.316 OA
HETATM   17  H1  UNL     1      25.975   9.143  51.437  1.00  0.00     0.331 HD
HETATM   18  H21 UNL     1      30.667   5.986  49.124  1.00  0.00     0.317 HD
ENDROOT
BRANCH   5  19
HETATM   19  C4  UNL     1      23.334   5.494  50.895  1.00  0.00     0.204 C 
BRANCH  19  20
HETATM   20  O2  UNL     1      22.214   5.958  50.207  1.00  0.00    -0.382 OA
BRANCH  20  21
HETATM   21  C5  UNL     1      21.185   5.029  50.317  1.00  0.00     0.206 C 
BRANCH  21  22
HETATM   22  C6  UNL     1      21.456   3.794  49.544  1.00  0.00    -0.032 A 
HETATM   23  C7  UNL     1      21.772   3.811  48.195  1.00  0.00     0.009 A 
HETATM   24  C8  UNL     1      22.017   2.629  47.531  1.00  0.00     0.004 A 
HETATM   25  C9  UNL     1      21.972   1.400  48.113  1.00  0.00     0.042 A 
HETATM   26  C10 UNL     1      21.657   1.392  49.459  1.00  0.00     0.117 A 
HETATM   27  F1  UNL     1      21.566   0.261  50.206  1.00  0.00    -0.206 F 
HETATM   28  C11 UNL     1      21.402   2.544  50.172  1.00  0.00     0.051 A 
ENDBRANCH  21  22
ENDBRANCH  20  21
ENDBRANCH  19  20
ENDBRANCH   5  19
TORSDOF 4
ENDMDL
MODEL 4
REMARK VINA RESULT:      -8.0      4.628      7.169
REMARK  4 active torsions:
REMARK  status: ('A' for Active; 'I' for Inactive)
REMARK    1  A    between atoms: C3_5  and  C4_6 
REMARK    2  A    between atoms: C4_6  and  O2_7 
REMARK    3  A    between atoms: O2_7  and  C5_8 
REMARK    4  A    between atoms: C5_8  and  C6_9 
ROOT
HETATM    1  O1  UNL     1      24.163   1.619  52.541  1.00  0.00    -0.114 OA
HETATM    2  C1  UNL     1      24.819   2.629  52.222  1.00  0.00     0.493 A 
HETATM    3  N1  UNL     1      23.410   2.663  52.383  1.00  0.00     0.139 N 
HETATM    4  C2  UNL     1      22.351   1.738  52.735  1.00  0.00     0.247 C 
HETATM    5  C3  UNL     1      21.911   0.539  53.081  1.00  0.00    -0.027 C 
HETATM    6  C12 UNL     1      22.568  -0.748  53.345  1.00  0.00     0.065 C 
HETATM    7  C13 UNL     1      22.290  -1.285  54.726  1.00  0.00    -0.014 C 
HETATM    8  C14 UNL     1      23.371  -1.384  55.531  1.00  0.00     0.060 C 
HETATM    9  C15 UNL     1      24.567  -0.956  54.927  1.00  0.00    -0.077 C 
HETATM   10  C16 UNL     1      25.542  -0.586  54.436  1.00  0.00    -0.066 C 
HETATM   11  C17 UNL     1      26.733  -0.107  53.829  1.00  0.00     0.301 C 
HETATM   12  C18 UNL     1      26.599   0.190  52.374  1.00  0.00     0.082 C 
HETATM   13  C19 UNL     1      27.070   1.590  52.190  1.00  0.00     0.158 C 
HETATM   14  C20 UNL     1      27.861   1.864  53.475  1.00  0.00     0.303 C 
HETATM   15  N2  UNL     1      27.119   1.143  54.474  1.00  0.00     0.102 N 
HETATM   16  O3  UNL     1      26.146   2.597  52.070  1.00  0.00    -0.316 OA
HETATM   17  H1  UNL     1      23.230   3.696  52.152  1.00  0.00     0.331 HD
HETATM   18  H21 UNL     1      27.692   0.994  55.331  1.00  0.00     0.317 HD
ENDROOT
BRANCH   5  19
HETATM   19  C4  UNL     1      20.440   0.312  53.310  1.00  0.00     0.204 C 
BRANCH  19  20
HETATM   20  O2  UNL     1      19.738   1.118  52.416  1.00  0.00    -0.382 OA
BRANCH  20  21
HETATM   21  C5  UNL     1      19.494   0.409  51.244  1.00  0.00     0.206 C 
BRANCH  21  22
HETATM   22  C6  UNL     1      19.801   1.201  50.031  1.00  0.00    -0.032 A 
HETATM   23  C7  UNL     1      18.920   2.133  49.504  1.00  0.00     0.009 A 
HETATM   24  C8  UNL     1      19.264   2.842  48.374  1.00  0.00     0.004 A 
HETATM   25  C9  UNL     1      20.441   2.698  47.708  1.00  0.00     0.042 A 
HETATM   26  C10 UNL     1      21.314   1.767  48.239  1.00  0.00     0.117 A 
HETATM   27  F1  UNL     1      22.534   1.487  47.711  1.00  0.00    -0.206 F 
HETATM   28  C11 UNL     1      21.021   1.029  49.367  1.00  0.00     0.051 A 
ENDBRANCH  21  22
ENDBRANCH  20  21
ENDBRANCH  19  20
ENDBRANCH   5  19
TORSDOF 4
ENDMDL
MODEL 5
REMARK VINA RESULT:      -7.9      5.461      8.161
REMARK  4 active torsions:
REMARK  status: ('A' for Active; 'I' for Inactive)
REMARK    1  A    between atoms: C3_5  and  C4_6 
REMARK    2  A    between atoms: C4_6  and  O2_7 
REMARK    3  A    between atoms: O2_7  and  C5_8 
REMARK    4  A    between atoms: C5_8  and  C6_9 
ROOT
HETATM    1  O1  UNL     1      24.191   1.618  52.522  1.00  0.00    -0.114 OA
HETATM    2  C1  UNL     1      24.862   2.609  52.176  1.00  0.00     0.493 A 
HETATM    3  N1  UNL     1      23.458   2.678  52.370  1.00  0.00     0.139 N 
HETATM    4  C2  UNL     1      22.387   1.781  52.756  1.00  0.00     0.247 C 
HETATM    5  C3  UNL     1      21.928   0.596  53.125  1.00  0.00    -0.027 C 
HETATM    6  C12 UNL     1      22.562  -0.703  53.387  1.00  0.00     0.065 C 
HETATM    7  C13 UNL     1      22.305  -1.220  54.781  1.00  0.00    -0.014 C 
HETATM    8  C14 UNL     1      23.401  -1.335  55.561  1.00  0.00     0.060 C 
HETATM    9  C15 UNL     1      24.592  -0.941  54.925  1.00  0.00    -0.077 C 
HETATM   10  C16 UNL     1      25.563  -0.598  54.408  1.00  0.00    -0.066 C 
HETATM   11  C17 UNL     1      26.750  -0.152  53.769  1.00  0.00     0.301 C 
HETATM   12  C18 UNL     1      26.589   0.133  52.315  1.00  0.00     0.082 C 
HETATM   13  C19 UNL     1      27.087   1.520  52.104  1.00  0.00     0.158 C 
HETATM   14  C20 UNL     1      27.914   1.789  53.367  1.00  0.00     0.303 C 
HETATM   15  N2  UNL     1      27.180   1.095  54.391  1.00  0.00     0.102 N 
HETATM   16  O3  UNL     1      26.184   2.547  51.995  1.00  0.00    -0.316 OA
HETATM   17  H1  UNL     1      23.296   3.712  52.131  1.00  0.00     0.331 HD
HETATM   18  H21 UNL     1      27.769   0.943  55.237  1.00  0.00     0.317 HD
ENDROOT
BRANCH   5  19
HETATM   19  C4  UNL     1      20.458   0.404  53.390  1.00  0.00     0.204 C 
BRANCH  19  20
HETATM   20  O2  UNL     1      19.896  -0.196  52.265  1.00  0.00    -0.382 OA
BRANCH  20  21
HETATM   21  C5  UNL     1      18.588   0.252  52.105  1.00  0.00     0.206 C 
BRANCH  21  22
HETATM   22  C6  UNL     1      17.596  -0.837  52.265  1.00  0.00    -0.032 A 
HETATM   23  C7  UNL     1      16.402  -0.868  51.563  1.00  0.00     0.009 A 
HETATM   24  C8  UNL     1      15.519  -1.909  51.753  1.00  0.00     0.004 A 
HETATM   25  C9  UNL     1      15.732  -2.948  52.606  1.00  0.00     0.042 A 
HETATM   26  C10 UNL     1      16.925  -2.909  53.302  1.00  0.00     0.117 A 
HETATM   27  F1  UNL     1      17.310  -3.857  54.195  1.00  0.00    -0.206 F 
HETATM   28  C11 UNL     1      17.845  -1.891  53.151  1.00  0.00     0.051 A 
ENDBRANCH  21  22
ENDBRANCH  20  21
ENDBRANCH  19  20
ENDBRANCH   5  19
TORSDOF 4
ENDMDL
MODEL 6
REMARK VINA RESULT:      -7.8      2.040      2.795
REMARK  4 active torsions:
REMARK  status: ('A' for Active; 'I' for Inactive)
REMARK    1  A    between atoms: C3_5  and  C4_6 
REMARK    2  A    between atoms: C4_6  and  O2_7 
REMARK    3  A    between atoms: O2_7  and  C5_8 
REMARK    4  A    between atoms: C5_8  and  C6_9 
ROOT
HETATM    1  O1  UNL     1      24.727   6.975  50.349  1.00  0.00    -0.114 OA
HETATM    2  C1  UNL     1      24.905   8.195  50.534  1.00  0.00     0.493 A 
HETATM    3  N1  UNL     1      24.175   7.391  51.447  1.00  0.00     0.139 N 
HETATM    4  C2  UNL     1      23.780   6.002  51.570  1.00  0.00     0.247 C 
HETATM    5  C3  UNL     1      23.749   4.751  51.140  1.00  0.00    -0.027 C 
HETATM    6  C12 UNL     1      24.318   4.063  49.973  1.00  0.00     0.065 C 
HETATM    7  C13 UNL     1      25.227   2.917  50.344  1.00  0.00    -0.014 C 
HETATM    8  C14 UNL     1      26.520   3.072  49.984  1.00  0.00     0.060 C 
HETATM    9  C15 UNL     1      26.783   4.289  49.330  1.00  0.00    -0.077 C 
HETATM   10  C16 UNL     1      27.000   5.296  48.812  1.00  0.00    -0.066 C 
HETATM   11  C17 UNL     1      27.259   6.548  48.195  1.00  0.00     0.301 C 
HETATM   12  C18 UNL     1      26.035   7.332  47.867  1.00  0.00     0.082 C 
HETATM   13  C19 UNL     1      26.219   8.672  48.488  1.00  0.00     0.158 C 
HETATM   14  C20 UNL     1      27.728   8.727  48.758  1.00  0.00     0.303 C 
HETATM   15  N2  UNL     1      28.045   7.369  49.110  1.00  0.00     0.102 N 
HETATM   16  O3  UNL     1      25.592   8.952  49.675  1.00  0.00    -0.316 OA
HETATM   17  H1  UNL     1      23.914   8.139  52.173  1.00  0.00     0.331 HD
HETATM   18  H21 UNL     1      29.069   7.192  49.034  1.00  0.00     0.317 HD
ENDROOT
BRANCH   5  19
HETATM   19  C4  UNL     1      23.026   3.696  51.935  1.00  0.00     0.204 C 
BRANCH  19  20
HETATM   20  O2  UNL     1      21.778   3.498  51.349  1.00  0.00    -0.382 OA
BRANCH  20  21
HETATM   21  C5  UNL     1      21.620   2.151  51.036  1.00  0.00     0.206 C 
BRANCH  21  22
HETATM   22  C6  UNL     1      21.662   1.285  52.237  1.00  0.00    -0.032 A 
HETATM   23  C7  UNL     1      20.611   1.202  53.135  1.00  0.00     0.009 A 
HETATM   24  C8  UNL     1      20.707   0.376  54.233  1.00  0.00     0.004 A 
HETATM   25  C9  UNL     1      21.792  -0.395  54.518  1.00  0.00     0.042 A 
HETATM   26  C10 UNL     1      22.836  -0.306  53.617  1.00  0.00     0.117 A 
HETATM   27  F1  UNL     1      23.998  -1.001  53.737  1.00  0.00    -0.206 F 
HETATM   28  C11 UNL     1      22.793   0.504  52.502  1.00  0.00     0.051 A 
ENDBRANCH  21  22
ENDBRANCH  20  21
ENDBRANCH  19  20
ENDBRANCH   5  19
TORSDOF 4
ENDMDL
MODEL 7
REMARK VINA RESULT:      -7.8      3.021      6.923
REMARK  4 active torsions:
REMARK  status: ('A' for Active; 'I' for Inactive)
REMARK    1  A    between atoms: C3_5  and  C4_6 
REMARK    2  A    between atoms: C4_6  and  O2_7 
REMARK    3  A    between atoms: O2_7  and  C5_8 
REMARK    4  A    between atoms: C5_8  and  C6_9 
ROOT
HETATM    1  O1  UNL     1      25.923   1.861  52.055  1.00  0.00    -0.114 OA
HETATM    2  C1  UNL     1      27.097   2.181  52.321  1.00  0.00     0.493 A 
HETATM    3  N1  UNL     1      26.156   3.116  51.820  1.00  0.00     0.139 N 
HETATM    4  C2  UNL     1      24.764   3.120  51.416  1.00  0.00     0.247 C 
HETATM    5  C3  UNL     1      23.597   2.523  51.227  1.00  0.00    -0.027 C 
HETATM    6  C12 UNL     1      23.107   1.156  51.450  1.00  0.00     0.065 C 
HETATM    7  C13 UNL     1      21.920   1.095  52.379  1.00  0.00    -0.014 C 
HETATM    8  C14 UNL     1      22.134   0.440  53.540  1.00  0.00     0.060 C 
HETATM    9  C15 UNL     1      23.441  -0.063  53.674  1.00  0.00    -0.077 C 
HETATM   10  C16 UNL     1      24.518  -0.456  53.788  1.00  0.00    -0.066 C 
HETATM   11  C17 UNL     1      25.854  -0.917  53.929  1.00  0.00     0.301 C 
HETATM   12  C18 UNL     1      26.676  -0.789  52.692  1.00  0.00     0.082 C 
HETATM   13  C19 UNL     1      27.901  -0.037  53.082  1.00  0.00     0.158 C 
HETATM   14  C20 UNL     1      27.916  -0.164  54.610  1.00  0.00     0.303 C 
HETATM   15  N2  UNL     1      26.520  -0.122  54.954  1.00  0.00     0.102 N 
HETATM   16  O3  UNL     1      27.985   1.301  52.793  1.00  0.00    -0.316 OA
HETATM   17  H1  UNL     1      26.776   3.992  51.784  1.00  0.00     0.331 HD
HETATM   18  H21 UNL     1      26.361  -0.488  55.917  1.00  0.00     0.317 HD
ENDROOT
BRANCH   5  19
HETATM   19  C4  UNL     1      22.426   3.305  50.693  1.00  0.00     0.204 C 
BRANCH  19  20
HETATM   20  O2  UNL     1      22.700   3.634  49.367  1.00  0.00    -0.382 OA
BRANCH  20  21
HETATM   21  C5  UNL     1      22.453   4.988  49.164  1.00  0.00     0.206 C 
BRANCH  21  22
HETATM   22  C6  UNL     1      23.644   5.826  49.437  1.00  0.00    -0.032 A 
HETATM   23  C7  UNL     1      23.644   6.836  50.385  1.00  0.00     0.009 A 
HETATM   24  C8  UNL     1      24.783   7.580  50.597  1.00  0.00     0.004 A 
HETATM   25  C9  UNL     1      25.954   7.397  49.927  1.00  0.00     0.042 A 
HETATM   26  C10 UNL     1      25.945   6.387  48.984  1.00  0.00     0.117 A 
HETATM   27  F1  UNL     1      27.019   6.059  48.219  1.00  0.00    -0.206 F 
HETATM   28  C11 UNL     1      24.832   5.612  48.731  1.00  0.00     0.051 A 
ENDBRANCH  21  22
ENDBRANCH  20  21
ENDBRANCH  19  20
ENDBRANCH   5  19
TORSDOF 4
ENDMDL
MODEL 8
REMARK VINA RESULT:      -7.5      2.306      3.211
REMARK  4 active torsions:
REMARK  status: ('A' for Active; 'I' for Inactive)
REMARK    1  A    between atoms: C3_5  and  C4_6 
REMARK    2  A    between atoms: C4_6  and  O2_7 
REMARK    3  A    between atoms: O2_7  and  C5_8 
REMARK    4  A    between atoms: C5_8  and  C6_9 
ROOT
HETATM    1  O1  UNL     1      27.571   6.725  48.744  1.00  0.00    -0.114 OA
HETATM    2  C1  UNL     1      28.629   7.258  48.361  1.00  0.00     0.493 A 
HETATM    3  N1  UNL     1      28.515   5.857  48.553  1.00  0.00     0.139 N 
HETATM    4  C2  UNL     1      27.496   4.914  48.966  1.00  0.00     0.247 C 
HETATM    5  C3  UNL     1      26.270   4.616  49.366  1.00  0.00    -0.027 C 
HETATM    6  C12 UNL     1      25.059   5.410  49.611  1.00  0.00     0.065 C 
HETATM    7  C13 UNL     1      23.879   4.968  48.782  1.00  0.00    -0.014 C 
HETATM    8  C14 UNL     1      23.431   5.879  47.891  1.00  0.00     0.060 C 
HETATM    9  C15 UNL     1      24.159   7.082  47.897  1.00  0.00    -0.077 C 
HETATM   10  C16 UNL     1      24.770   8.059  47.891  1.00  0.00    -0.066 C 
HETATM   11  C17 UNL     1      25.543   9.250  47.877  1.00  0.00     0.301 C 
HETATM   12  C18 UNL     1      26.535   9.347  48.985  1.00  0.00     0.082 C 
HETATM   13  C19 UNL     1      27.852   9.612  48.343  1.00  0.00     0.158 C 
HETATM   14  C20 UNL     1      27.466  10.092  46.939  1.00  0.00     0.303 C 
HETATM   15  N2  UNL     1      26.304   9.301  46.633  1.00  0.00     0.102 N 
HETATM   16  O3  UNL     1      28.738   8.577  48.180  1.00  0.00    -0.316 OA
HETATM   17  H1  UNL     1      29.513   5.559  48.288  1.00  0.00     0.331 HD
HETATM   18  H21 UNL     1      25.764   9.719  45.846  1.00  0.00     0.317 HD
ENDROOT
BRANCH   5  19
HETATM   19  C4  UNL     1      25.893   3.184  49.645  1.00  0.00     0.204 C 
BRANCH  19  20
HETATM   20  O2  UNL     1      26.889   2.628  50.446  1.00  0.00    -0.382 OA
BRANCH  20  21
HETATM   21  C5  UNL     1      26.398   2.442  51.735  1.00  0.00     0.206 C 
BRANCH  21  22
HETATM   22  C6  UNL     1      27.322   1.651  52.580  1.00  0.00    -0.032 A 
HETATM   23  C7  UNL     1      27.329   0.265  52.584  1.00  0.00     0.009 A 
HETATM   24  C8  UNL     1      28.214  -0.416  53.390  1.00  0.00     0.004 A 
HETATM   25  C9  UNL     1      29.115   0.182  54.215  1.00  0.00     0.042 A 
HETATM   26  C10 UNL     1      29.101   1.564  54.206  1.00  0.00     0.117 A 
HETATM   27  F1  UNL     1      29.928   2.333  54.963  1.00  0.00    -0.206 F 
HETATM   28  C11 UNL     1      28.237   2.297  53.419  1.00  0.00     0.051 A 
ENDBRANCH  21  22
ENDBRANCH  20  21
ENDBRANCH  19  20
ENDBRANCH   5  19
TORSDOF 4
ENDMDL
MODEL 9
REMARK VINA RESULT:      -7.5      3.375      7.029
REMARK  4 active torsions:
REMARK  status: ('A' for Active; 'I' for Inactive)
REMARK    1  A    between atoms: C3_5  and  C4_6 
REMARK    2  A    between atoms: C4_6  and  O2_7 
REMARK    3  A    between atoms: O2_7  and  C5_8 
REMARK    4  A    between atoms: C5_8  and  C6_9 
ROOT
HETATM    1  O1  UNL     1      25.021   1.930  52.604  1.00  0.00    -0.114 OA
HETATM    2  C1  UNL     1      26.146   2.454  52.711  1.00  0.00     0.493 A 
HETATM    3  N1  UNL     1      24.965   3.225  52.565  1.00  0.00     0.139 N 
HETATM    4  C2  UNL     1      23.542   2.986  52.423  1.00  0.00     0.247 C 
HETATM    5  C3  UNL     1      22.492   2.185  52.339  1.00  0.00    -0.027 C 
HETATM    6  C12 UNL     1      22.319   0.727  52.393  1.00  0.00     0.065 C 
HETATM    7  C13 UNL     1      21.387   0.279  53.491  1.00  0.00    -0.014 C 
HETATM    8  C14 UNL     1      21.958  -0.473  54.456  1.00  0.00     0.060 C 
HETATM    9  C15 UNL     1      23.333  -0.696  54.261  1.00  0.00    -0.077 C 
HETATM   10  C16 UNL     1      24.464  -0.859  54.108  1.00  0.00    -0.066 C 
HETATM   11  C17 UNL     1      25.861  -1.036  53.922  1.00  0.00     0.301 C 
HETATM   12  C18 UNL     1      26.365  -0.559  52.603  1.00  0.00     0.082 C 
HETATM   13  C19 UNL     1      27.485   0.376  52.899  1.00  0.00     0.158 C 
HETATM   14  C20 UNL     1      27.846   0.040  54.351  1.00  0.00     0.303 C 
HETATM   15  N2  UNL     1      26.571  -0.270  54.940  1.00  0.00     0.102 N 
HETATM   16  O3  UNL     1      27.259   1.729  52.849  1.00  0.00    -0.316 OA
HETATM   17  H1  UNL     1      25.392   4.211  52.579  1.00  0.00     0.331 HD
HETATM   18  H21 UNL     1      26.689  -0.796  55.832  1.00  0.00     0.317 HD
ENDROOT
BRANCH   5  19
HETATM   19  C4  UNL     1      21.112   2.764  52.175  1.00  0.00     0.204 C 
BRANCH  19  20
HETATM   20  O2  UNL     1      21.227   4.153  52.178  1.00  0.00    -0.382 OA
BRANCH  20  21
HETATM   21  C5  UNL     1      20.851   4.653  50.935  1.00  0.00     0.206 C 
BRANCH  21  22
HETATM   22  C6  UNL     1      21.957   5.373  50.261  1.00  0.00    -0.032 A 
HETATM   23  C7  UNL     1      22.448   4.995  49.022  1.00  0.00     0.009 A 
HETATM   24  C8  UNL     1      23.477   5.707  48.444  1.00  0.00     0.004 A 
HETATM   25  C9  UNL     1      24.072   6.791  49.011  1.00  0.00     0.042 A 
HETATM   26  C10 UNL     1      23.575   7.161  50.246  1.00  0.00     0.117 A 
HETATM   27  F1  UNL     1      24.043   8.217  50.963  1.00  0.00    -0.206 F 
HETATM   28  C11 UNL     1      22.548   6.486  50.871  1.00  0.00     0.051 A 
ENDBRANCH  21  22
ENDBRANCH  20  21
ENDBRANCH  19  20
ENDBRANCH   5  19
TORSDOF 4
ENDMDL
