MODEL 1
REMARK VINA RESULT:      -9.3      0.000      0.000
REMARK  5 active torsions:
REMARK  status: ('A' for Active; 'I' for Inactive)
REMARK    1  A    between atoms: C6_7  and  C7_8 
REMARK    2  A    between atoms: C8_9  and  C9_10 
REMARK       I    between atoms: C9_10  and  N2_12 
REMARK    3  A    between atoms: N2_12  and  C10_13 
REMARK    4  A    between atoms: C13_16  and  N3_17 
REMARK    5  A    between atoms: N3_17  and  C14_18 
ROOT
HETATM    1  C10 UNL     1      24.943   4.145  49.908  1.00  0.00     0.131 A 
HETATM    2  C11 UNL     1      25.096   3.442  51.077  1.00  0.00     0.068 A 
HETATM    3  C12 UNL     1      24.212   2.452  51.492  1.00  0.00     0.044 A 
HETATM    4  C13 UNL     1      24.362   1.725  52.684  1.00  0.00     0.142 A 
HETATM    5  N4  UNL     1      23.426   0.786  52.967  1.00  0.00    -0.224 NA
HETATM    6  C20 UNL     1      22.412   0.595  52.106  1.00  0.00     0.236 A 
HETATM    7  N5  UNL     1      22.224   1.267  50.943  1.00  0.00    -0.240 NA
HETATM    8  C21 UNL     1      23.138   2.215  50.624  1.00  0.00     0.089 A 
HETATM    9  C22 UNL     1      22.977   2.914  49.447  1.00  0.00     0.151 A 
HETATM   10  N6  UNL     1      23.879   3.884  49.084  1.00  0.00    -0.241 NA
ENDROOT
BRANCH   1  11
HETATM   11  N2  UNL     1      25.855   5.172  49.523  1.00  0.00    -0.301 N 
HETATM   12  C9  UNL     1      27.036   4.548  49.022  1.00  0.00     0.302 C 
HETATM   13  O1  UNL     1      27.240   3.285  48.937  1.00  0.00    -0.258 OA
HETATM   14  H13 UNL     1      25.830   6.224  49.538  1.00  0.00     0.171 HD
BRANCH  12  15
HETATM   15  C8  UNL     1      28.179   5.305  48.531  1.00  0.00    -0.003 C 
HETATM   16  C7  UNL     1      29.159   5.941  48.134  1.00  0.00    -0.060 C 
BRANCH  16  17
HETATM   17  C6  UNL     1      30.325   6.676  47.677  1.00  0.00     0.301 C 
HETATM   18  N1  UNL     1      31.528   6.030  48.092  1.00  0.00     0.100 N 
HETATM   19  C1  UNL     1      31.652   5.909  49.526  1.00  0.00     0.311 C 
HETATM   20  C2  UNL     1      32.712   6.614  47.478  1.00  0.00     0.273 C 
HETATM   21  C3  UNL     1      32.449   7.956  46.847  1.00  0.00     0.030 C 
HETATM   22  C4  UNL     1      31.602   8.818  47.769  1.00  0.00     0.005 C 
HETATM   23  C5  UNL     1      30.275   8.139  48.058  1.00  0.00     0.049 C 
ENDBRANCH  16  17
ENDBRANCH  12  15
ENDBRANCH   1  11
BRANCH   4  24
HETATM   24  N3  UNL     1      25.537   2.127  53.419  1.00  0.00    -0.340 N 
HETATM   25  H15 UNL     1      25.483   2.984  53.969  1.00  0.00     0.167 HD
BRANCH  24  26
HETATM   26  C14 UNL     1      26.739   1.366  53.427  1.00  0.00     0.035 A 
HETATM   27  C15 UNL     1      27.974   1.980  53.693  1.00  0.00     0.032 A 
HETATM   28  C16 UNL     1      29.127   1.234  53.689  1.00  0.00     0.046 A 
HETATM   29  C17 UNL     1      29.138  -0.134  53.432  1.00  0.00     0.138 A 
HETATM   30  F1  UNL     1      30.306  -0.831  53.443  1.00  0.00    -0.204 F 
HETATM   31  C18 UNL     1      27.922  -0.781  53.162  1.00  0.00     0.074 A 
HETATM   32 CL1  UNL     1      27.855  -2.501  52.826  1.00  0.00    -0.081 Cl
HETATM   33  C19 UNL     1      26.776   0.002  53.173  1.00  0.00     0.056 A 
ENDBRANCH  24  26
ENDBRANCH   4  24
TORSDOF 5
ENDMDL
MODEL 2
REMARK VINA RESULT:      -9.2      0.822      1.034
REMARK  5 active torsions:
REMARK  status: ('A' for Active; 'I' for Inactive)
REMARK    1  A    between atoms: C6_7  and  C7_8 
REMARK    2  A    between atoms: C8_9  and  C9_10 
REMARK       I    between atoms: C9_10  and  N2_12 
REMARK    3  A    between atoms: N2_12  and  C10_13 
REMARK    4  A    between atoms: C13_16  and  N3_17 
REMARK    5  A    between atoms: N3_17  and  C14_18 
ROOT
HETATM    1  C10 UNL     1      24.807   4.137  49.866  1.00  0.00     0.131 A 
HETATM    2  C11 UNL     1      25.001   3.477  51.053  1.00  0.00     0.068 A 
HETATM    3  C12 UNL     1      24.176   2.449  51.497  1.00  0.00     0.044 A 
HETATM    4  C13 UNL     1      24.368   1.765  52.708  1.00  0.00     0.142 A 
HETATM    5  N4  UNL     1      23.489   0.782  53.019  1.00  0.00    -0.224 NA
HETATM    6  C20 UNL     1      22.486   0.509  52.166  1.00  0.00     0.236 A 
HETATM    7  N5  UNL     1      22.259   1.138  50.986  1.00  0.00    -0.240 NA
HETATM    8  C21 UNL     1      23.117   2.128  50.639  1.00  0.00     0.089 A 
HETATM    9  C22 UNL     1      22.914   2.784  49.444  1.00  0.00     0.151 A 
HETATM   10  N6  UNL     1      23.759   3.794  49.053  1.00  0.00    -0.241 NA
ENDROOT
BRANCH   1  11
HETATM   11  N2  UNL     1      25.658   5.204  49.451  1.00  0.00    -0.301 N 
HETATM   12  C9  UNL     1      26.896   4.640  49.023  1.00  0.00     0.302 C 
HETATM   13  O1  UNL     1      27.191   3.392  49.018  1.00  0.00    -0.258 OA
HETATM   14  H13 UNL     1      25.559   6.252  49.406  1.00  0.00     0.171 HD
BRANCH  12  15
HETATM   15  C8  UNL     1      28.000   5.449  48.525  1.00  0.00    -0.003 C 
HETATM   16  C7  UNL     1      28.921   6.145  48.091  1.00  0.00    -0.060 C 
BRANCH  16  17
HETATM   17  C6  UNL     1      29.992   6.981  47.579  1.00  0.00     0.301 C 
HETATM   18  N1  UNL     1      30.474   7.867  48.589  1.00  0.00     0.100 N 
HETATM   19  C1  UNL     1      29.462   8.759  49.104  1.00  0.00     0.311 C 
HETATM   20  C2  UNL     1      31.682   8.569  48.183  1.00  0.00     0.273 C 
HETATM   21  C3  UNL     1      31.943   8.486  46.701  1.00  0.00     0.030 C 
HETATM   22  C4  UNL     1      30.659   8.726  45.923  1.00  0.00     0.005 C 
HETATM   23  C5  UNL     1      29.611   7.694  46.299  1.00  0.00     0.049 C 
ENDBRANCH  16  17
ENDBRANCH  12  15
ENDBRANCH   1  11
BRANCH   4  24
HETATM   24  N3  UNL     1      25.519   2.254  53.430  1.00  0.00    -0.340 N 
HETATM   25  H15 UNL     1      25.421   3.129  53.942  1.00  0.00     0.167 HD
BRANCH  24  26
HETATM   26  C14 UNL     1      26.756   1.552  53.474  1.00  0.00     0.035 A 
HETATM   27  C15 UNL     1      27.950   2.224  53.783  1.00  0.00     0.032 A 
HETATM   28  C16 UNL     1      29.138   1.534  53.813  1.00  0.00     0.046 A 
HETATM   29  C17 UNL     1      29.224   0.170  53.552  1.00  0.00     0.138 A 
HETATM   30  F1  UNL     1      30.423  -0.469  53.598  1.00  0.00    -0.204 F 
HETATM   31  C18 UNL     1      28.051  -0.534  53.239  1.00  0.00     0.074 A 
HETATM   32 CL1  UNL     1      28.079  -2.253  52.894  1.00  0.00    -0.081 Cl
HETATM   33  C19 UNL     1      26.868   0.192  53.215  1.00  0.00     0.056 A 
ENDBRANCH  24  26
ENDBRANCH   4  24
TORSDOF 5
ENDMDL
MODEL 3
REMARK VINA RESULT:      -9.0      4.326      9.957
REMARK  5 active torsions:
REMARK  status: ('A' for Active; 'I' for Inactive)
REMARK    1  A    between atoms: C6_7  and  C7_8 
REMARK    2  A    between atoms: C8_9  and  C9_10 
REMARK       I    between atoms: C9_10  and  N2_12 
REMARK    3  A    between atoms: N2_12  and  C10_13 
REMARK    4  A    between atoms: C13_16  and  N3_17 
REMARK    5  A    between atoms: N3_17  and  C14_18 
ROOT
HETATM    1  C10 UNL     1      24.478  -0.250  53.390  1.00  0.00     0.131 A 
HETATM    2  C11 UNL     1      25.216   0.565  52.568  1.00  0.00     0.068 A 
HETATM    3  C12 UNL     1      26.427   1.133  52.948  1.00  0.00     0.044 A 
HETATM    4  C13 UNL     1      27.192   1.965  52.114  1.00  0.00     0.142 A 
HETATM    5  N4  UNL     1      28.355   2.451  52.611  1.00  0.00    -0.224 NA
HETATM    6  C20 UNL     1      28.720   2.120  53.861  1.00  0.00     0.236 A 
HETATM    7  N5  UNL     1      28.020   1.321  54.704  1.00  0.00    -0.240 NA
HETATM    8  C21 UNL     1      26.850   0.814  54.245  1.00  0.00     0.089 A 
HETATM    9  C22 UNL     1      26.117  -0.005  55.076  1.00  0.00     0.151 A 
HETATM   10  N6  UNL     1      24.925  -0.539  54.652  1.00  0.00    -0.241 NA
ENDROOT
BRANCH   1  11
HETATM   11  N2  UNL     1      23.226  -0.798  52.977  1.00  0.00    -0.301 N 
HETATM   12  C9  UNL     1      22.305   0.279  52.814  1.00  0.00     0.302 C 
HETATM   13  O1  UNL     1      22.559   1.520  53.009  1.00  0.00    -0.258 OA
HETATM   14  H13 UNL     1      22.875  -1.772  52.787  1.00  0.00     0.171 HD
BRANCH  12  15
HETATM   15  C8  UNL     1      20.927   0.079  52.392  1.00  0.00    -0.003 C 
HETATM   16  C7  UNL     1      19.763  -0.113  52.029  1.00  0.00    -0.060 C 
BRANCH  16  17
HETATM   17  C6  UNL     1      18.394  -0.357  51.610  1.00  0.00     0.301 C 
HETATM   18  N1  UNL     1      17.910   0.716  50.803  1.00  0.00     0.100 N 
HETATM   19  C1  UNL     1      17.915   1.993  51.478  1.00  0.00     0.311 C 
HETATM   20  C2  UNL     1      16.625   0.415  50.190  1.00  0.00     0.273 C 
HETATM   21  C3  UNL     1      15.939  -0.774  50.812  1.00  0.00     0.030 C 
HETATM   22  C4  UNL     1      16.029  -0.704  52.328  1.00  0.00     0.005 C 
HETATM   23  C5  UNL     1      17.481  -0.683  52.772  1.00  0.00     0.049 C 
ENDBRANCH  16  17
ENDBRANCH  12  15
ENDBRANCH   1  11
BRANCH   4  24
HETATM   24  N3  UNL     1      26.573   2.156  50.824  1.00  0.00    -0.340 N 
HETATM   25  H15 UNL     1      26.389   1.328  50.259  1.00  0.00     0.167 HD
BRANCH  24  26
HETATM   26  C14 UNL     1      26.189   3.436  50.335  1.00  0.00     0.035 A 
HETATM   27  C15 UNL     1      26.946   4.079  49.342  1.00  0.00     0.032 A 
HETATM   28  C16 UNL     1      26.568   5.319  48.886  1.00  0.00     0.046 A 
HETATM   29  C17 UNL     1      25.444   5.987  49.364  1.00  0.00     0.138 A 
HETATM   30  F1  UNL     1      25.109   7.212  48.877  1.00  0.00    -0.204 F 
HETATM   31  C18 UNL     1      24.665   5.374  50.356  1.00  0.00     0.074 A 
HETATM   32 CL1  UNL     1      23.237   6.154  51.011  1.00  0.00    -0.081 Cl
HETATM   33  C19 UNL     1      25.075   4.123  50.797  1.00  0.00     0.056 A 
ENDBRANCH  24  26
ENDBRANCH   4  24
TORSDOF 5
ENDMDL
MODEL 4
REMARK VINA RESULT:      -8.9      1.705      2.224
REMARK  5 active torsions:
REMARK  status: ('A' for Active; 'I' for Inactive)
REMARK    1  A    between atoms: C6_7  and  C7_8 
REMARK    2  A    between atoms: C8_9  and  C9_10 
REMARK       I    between atoms: C9_10  and  N2_12 
REMARK    3  A    between atoms: N2_12  and  C10_13 
REMARK    4  A    between atoms: C13_16  and  N3_17 
REMARK    5  A    between atoms: N3_17  and  C14_18 
ROOT
HETATM    1  C10 UNL     1      25.526   5.502  49.500  1.00  0.00     0.131 A 
HETATM    2  C11 UNL     1      25.289   4.731  50.609  1.00  0.00     0.068 A 
HETATM    3  C12 UNL     1      24.074   4.099  50.852  1.00  0.00     0.044 A 
HETATM    4  C13 UNL     1      23.822   3.304  51.982  1.00  0.00     0.142 A 
HETATM    5  N4  UNL     1      22.593   2.746  52.094  1.00  0.00    -0.224 NA
HETATM    6  C20 UNL     1      21.682   2.973  51.132  1.00  0.00     0.236 A 
HETATM    7  N5  UNL     1      21.876   3.728  50.022  1.00  0.00    -0.240 NA
HETATM    8  C21 UNL     1      23.093   4.305  49.874  1.00  0.00     0.089 A 
HETATM    9  C22 UNL     1      23.323   5.077  48.755  1.00  0.00     0.151 A 
HETATM   10  N6  UNL     1      24.541   5.681  48.564  1.00  0.00    -0.241 NA
ENDROOT
BRANCH   1  11
HETATM   11  N2  UNL     1      26.777   6.157  49.293  1.00  0.00    -0.301 N 
HETATM   12  C9  UNL     1      27.707   5.190  48.808  1.00  0.00     0.302 C 
HETATM   13  O1  UNL     1      27.460   3.950  48.600  1.00  0.00    -0.258 OA
HETATM   14  H13 UNL     1      27.123   7.143  49.422  1.00  0.00     0.171 HD
BRANCH  12  15
HETATM   15  C8  UNL     1      29.087   5.519  48.483  1.00  0.00    -0.003 C 
HETATM   16  C7  UNL     1      30.256   5.785  48.188  1.00  0.00    -0.060 C 
BRANCH  16  17
HETATM   17  C6  UNL     1      31.625   6.099  47.821  1.00  0.00     0.301 C 
HETATM   18  N1  UNL     1      32.081   5.241  46.775  1.00  0.00     0.100 N 
HETATM   19  C1  UNL     1      32.057   3.841  47.127  1.00  0.00     0.311 C 
HETATM   20  C2  UNL     1      33.366   5.659  46.235  1.00  0.00     0.273 C 
HETATM   21  C3  UNL     1      34.080   6.653  47.113  1.00  0.00     0.030 C 
HETATM   22  C4  UNL     1      34.002   6.225  48.570  1.00  0.00     0.005 C 
HETATM   23  C5  UNL     1      32.555   6.124  49.015  1.00  0.00     0.049 C 
ENDBRANCH  16  17
ENDBRANCH  12  15
ENDBRANCH   1  11
BRANCH   4  24
HETATM   24  N3  UNL     1      24.970   3.223  52.854  1.00  0.00    -0.340 N 
HETATM   25  H15 UNL     1      25.136   3.999  53.494  1.00  0.00     0.167 HD
BRANCH  24  26
HETATM   26  C14 UNL     1      25.847   2.103  52.871  1.00  0.00     0.035 A 
HETATM   27  C15 UNL     1      25.507   0.917  52.199  1.00  0.00     0.032 A 
HETATM   28  C16 UNL     1      26.360  -0.159  52.230  1.00  0.00     0.046 A 
HETATM   29  C17 UNL     1      27.577  -0.136  52.906  1.00  0.00     0.138 A 
HETATM   30  F1  UNL     1      28.390  -1.227  52.905  1.00  0.00    -0.204 F 
HETATM   31  C18 UNL     1      27.949   1.032  53.589  1.00  0.00     0.074 A 
HETATM   32 CL1  UNL     1      29.463   1.136  54.467  1.00  0.00    -0.081 Cl
HETATM   33  C19 UNL     1      27.064   2.100  53.539  1.00  0.00     0.056 A 
ENDBRANCH  24  26
ENDBRANCH   4  24
TORSDOF 5
ENDMDL
MODEL 5
REMARK VINA RESULT:      -8.8      2.595      3.549
REMARK  5 active torsions:
REMARK  status: ('A' for Active; 'I' for Inactive)
REMARK    1  A    between atoms: C6_7  and  C7_8 
REMARK    2  A    between atoms: C8_9  and  C9_10 
REMARK       I    between atoms: C9_10  and  N2_12 
REMARK    3  A    between atoms: N2_12  and  C10_13 
REMARK    4  A    between atoms: C13_16  and  N3_17 
REMARK    5  A    between atoms: N3_17  and  C14_18 
ROOT
HETATM    1  C10 UNL     1      22.536   2.373  51.066  1.00  0.00     0.131 A 
HETATM    2  C11 UNL     1      23.140   1.295  51.663  1.00  0.00     0.068 A 
HETATM    3  C12 UNL     1      22.578   0.601  52.729  1.00  0.00     0.044 A 
HETATM    4  C13 UNL     1      23.185  -0.506  53.345  1.00  0.00     0.142 A 
HETATM    5  N4  UNL     1      22.525  -1.090  54.374  1.00  0.00    -0.224 NA
HETATM    6  C20 UNL     1      21.336  -0.592  54.755  1.00  0.00     0.236 A 
HETATM    7  N5  UNL     1      20.707   0.471  54.194  1.00  0.00    -0.240 NA
HETATM    8  C21 UNL     1      21.335   1.083  53.160  1.00  0.00     0.089 A 
HETATM    9  C22 UNL     1      20.720   2.164  52.566  1.00  0.00     0.151 A 
HETATM   10  N6  UNL     1      21.320   2.815  51.516  1.00  0.00    -0.241 NA
ENDROOT
BRANCH   1  11
HETATM   11  N2  UNL     1      23.152   3.078  49.989  1.00  0.00    -0.301 N 
HETATM   12  C9  UNL     1      23.996   4.084  50.545  1.00  0.00     0.302 C 
HETATM   13  O1  UNL     1      24.166   4.315  51.795  1.00  0.00    -0.258 OA
HETATM   14  H13 UNL     1      23.105   3.008  48.940  1.00  0.00     0.171 HD
BRANCH  12  15
HETATM   15  C8  UNL     1      24.787   4.990  49.725  1.00  0.00    -0.003 C 
HETATM   16  C7  UNL     1      25.441   5.774  49.031  1.00  0.00    -0.060 C 
BRANCH  16  17
HETATM   17  C6  UNL     1      26.201   6.711  48.223  1.00  0.00     0.301 C 
HETATM   18  N1  UNL     1      27.120   7.447  49.029  1.00  0.00     0.100 N 
HETATM   19  C1  UNL     1      26.484   8.219  50.071  1.00  0.00     0.311 C 
HETATM   20  C2  UNL     1      28.045   8.241  48.233  1.00  0.00     0.273 C 
HETATM   21  C3  UNL     1      27.609   8.391  46.799  1.00  0.00     0.030 C 
HETATM   22  C4  UNL     1      26.123   8.707  46.727  1.00  0.00     0.005 C 
HETATM   23  C5  UNL     1      25.315   7.597  47.375  1.00  0.00     0.049 C 
ENDBRANCH  16  17
ENDBRANCH  12  15
ENDBRANCH   1  11
BRANCH   4  24
HETATM   24  N3  UNL     1      24.454  -0.833  52.739  1.00  0.00    -0.340 N 
HETATM   25  H15 UNL     1      24.441  -1.335  51.852  1.00  0.00     0.167 HD
BRANCH  24  26
HETATM   26  C14 UNL     1      25.701  -0.461  53.314  1.00  0.00     0.035 A 
HETATM   27  C15 UNL     1      25.785   0.631  54.195  1.00  0.00     0.032 A 
HETATM   28  C16 UNL     1      26.998   0.984  54.736  1.00  0.00     0.046 A 
HETATM   29  C17 UNL     1      28.176   0.299  54.455  1.00  0.00     0.138 A 
HETATM   30  F1  UNL     1      29.352   0.684  55.019  1.00  0.00    -0.204 F 
HETATM   31  C18 UNL     1      28.129  -0.797  53.579  1.00  0.00     0.074 A 
HETATM   32 CL1  UNL     1      29.572  -1.707  53.173  1.00  0.00    -0.081 Cl
HETATM   33  C19 UNL     1      26.889  -1.126  53.048  1.00  0.00     0.056 A 
ENDBRANCH  24  26
ENDBRANCH   4  24
TORSDOF 5
ENDMDL
MODEL 6
REMARK VINA RESULT:      -8.7      3.450      8.929
REMARK  5 active torsions:
REMARK  status: ('A' for Active; 'I' for Inactive)
REMARK    1  A    between atoms: C6_7  and  C7_8 
REMARK    2  A    between atoms: C8_9  and  C9_10 
REMARK       I    between atoms: C9_10  and  N2_12 
REMARK    3  A    between atoms: N2_12  and  C10_13 
REMARK    4  A    between atoms: C13_16  and  N3_17 
REMARK    5  A    between atoms: N3_17  and  C14_18 
ROOT
HETATM    1  C10 UNL     1      25.204   4.735  49.092  1.00  0.00     0.131 A 
HETATM    2  C11 UNL     1      26.500   5.182  49.020  1.00  0.00     0.068 A 
HETATM    3  C12 UNL     1      26.852   6.410  48.471  1.00  0.00     0.044 A 
HETATM    4  C13 UNL     1      28.173   6.880  48.396  1.00  0.00     0.142 A 
HETATM    5  N4  UNL     1      28.375   8.097  47.836  1.00  0.00    -0.224 NA
HETATM    6  C20 UNL     1      27.317   8.792  47.385  1.00  0.00     0.236 A 
HETATM    7  N5  UNL     1      26.024   8.386  47.436  1.00  0.00    -0.240 NA
HETATM    8  C21 UNL     1      25.780   7.173  47.989  1.00  0.00     0.089 A 
HETATM    9  C22 UNL     1      24.476   6.733  48.058  1.00  0.00     0.151 A 
HETATM   10  N6  UNL     1      24.182   5.509  48.609  1.00  0.00    -0.241 NA
ENDROOT
BRANCH   1  11
HETATM   11  N2  UNL     1      24.880   3.458  49.640  1.00  0.00    -0.301 N 
HETATM   12  C9  UNL     1      24.409   3.656  50.971  1.00  0.00     0.302 C 
HETATM   13  O1  UNL     1      24.302   4.784  51.570  1.00  0.00    -0.258 OA
HETATM   14  H13 UNL     1      24.920   2.469  49.280  1.00  0.00     0.171 HD
BRANCH  12  15
HETATM   15  C8  UNL     1      23.981   2.558  51.827  1.00  0.00    -0.003 C 
HETATM   16  C7  UNL     1      23.603   1.641  52.562  1.00  0.00    -0.060 C 
BRANCH  16  17
HETATM   17  C6  UNL     1      23.140   0.570  53.425  1.00  0.00     0.301 C 
HETATM   18  N1  UNL     1      24.240  -0.114  54.024  1.00  0.00     0.100 N 
HETATM   19  C1  UNL     1      25.136  -0.714  53.064  1.00  0.00     0.311 C 
HETATM   20  C2  UNL     1      23.818  -1.050  55.055  1.00  0.00     0.273 C 
HETATM   21  C3  UNL     1      22.343  -1.350  55.011  1.00  0.00     0.030 C 
HETATM   22  C4  UNL     1      21.892  -1.586  53.578  1.00  0.00     0.005 C 
HETATM   23  C5  UNL     1      22.172  -0.361  52.727  1.00  0.00     0.049 C 
ENDBRANCH  16  17
ENDBRANCH  12  15
ENDBRANCH   1  11
BRANCH   4  24
HETATM   24  N3  UNL     1      29.114   5.938  48.955  1.00  0.00    -0.340 N 
HETATM   25  H15 UNL     1      28.771   5.283  49.656  1.00  0.00     0.167 HD
BRANCH  24  26
HETATM   26  C14 UNL     1      30.476   5.876  48.546  1.00  0.00     0.035 A 
HETATM   27  C15 UNL     1      31.443   6.698  49.147  1.00  0.00     0.032 A 
HETATM   28  C16 UNL     1      32.752   6.632  48.737  1.00  0.00     0.046 A 
HETATM   29  C17 UNL     1      33.184   5.769  47.733  1.00  0.00     0.138 A 
HETATM   30  F1  UNL     1      34.493   5.738  47.364  1.00  0.00    -0.204 F 
HETATM   31  C18 UNL     1      32.245   4.933  47.110  1.00  0.00     0.074 A 
HETATM   32 CL1  UNL     1      32.712   3.823  45.835  1.00  0.00    -0.081 Cl
HETATM   33  C19 UNL     1      30.931   5.026  47.547  1.00  0.00     0.056 A 
ENDBRANCH  24  26
ENDBRANCH   4  24
TORSDOF 5
ENDMDL
MODEL 7
REMARK VINA RESULT:      -8.6      2.997      8.713
REMARK  5 active torsions:
REMARK  status: ('A' for Active; 'I' for Inactive)
REMARK    1  A    between atoms: C6_7  and  C7_8 
REMARK    2  A    between atoms: C8_9  and  C9_10 
REMARK       I    between atoms: C9_10  and  N2_12 
REMARK    3  A    between atoms: N2_12  and  C10_13 
REMARK    4  A    between atoms: C13_16  and  N3_17 
REMARK    5  A    between atoms: N3_17  and  C14_18 
ROOT
HETATM    1  C10 UNL     1      27.178   6.636  48.525  1.00  0.00     0.131 A 
HETATM    2  C11 UNL     1      28.545   6.732  48.441  1.00  0.00     0.068 A 
HETATM    3  C12 UNL     1      29.197   7.478  47.466  1.00  0.00     0.044 A 
HETATM    4  C13 UNL     1      30.595   7.586  47.373  1.00  0.00     0.142 A 
HETATM    5  N4  UNL     1      31.099   8.348  46.373  1.00  0.00    -0.224 NA
HETATM    6  C20 UNL     1      30.252   8.960  45.527  1.00  0.00     0.236 A 
HETATM    7  N5  UNL     1      28.899   8.891  45.575  1.00  0.00    -0.240 NA
HETATM    8  C21 UNL     1      28.355   8.137  46.561  1.00  0.00     0.089 A 
HETATM    9  C22 UNL     1      26.981   8.049  46.639  1.00  0.00     0.151 A 
HETATM   10  N6  UNL     1      26.387   7.296  47.622  1.00  0.00    -0.241 NA
ENDROOT
BRANCH   1  11
HETATM   11  N2  UNL     1      26.540   5.842  49.524  1.00  0.00    -0.301 N 
HETATM   12  C9  UNL     1      26.988   4.496  49.370  1.00  0.00     0.302 C 
HETATM   13  O1  UNL     1      27.814   4.077  48.485  1.00  0.00    -0.258 OA
HETATM   14  H13 UNL     1      25.851   6.040  50.295  1.00  0.00     0.171 HD
BRANCH  12  15
HETATM   15  C8  UNL     1      26.539   3.413  50.233  1.00  0.00    -0.003 C 
HETATM   16  C7  UNL     1      26.154   2.510  50.981  1.00  0.00    -0.060 C 
BRANCH  16  17
HETATM   17  C6  UNL     1      25.688   1.461  51.869  1.00  0.00     0.301 C 
HETATM   18  N1  UNL     1      24.376   1.749  52.353  1.00  0.00     0.100 N 
HETATM   19  C1  UNL     1      24.294   2.986  53.094  1.00  0.00     0.311 C 
HETATM   20  C2  UNL     1      23.790   0.628  53.072  1.00  0.00     0.273 C 
HETATM   21  C3  UNL     1      24.801  -0.422  53.452  1.00  0.00     0.030 C 
HETATM   22  C4  UNL     1      26.058   0.228  54.008  1.00  0.00     0.005 C 
HETATM   23  C5  UNL     1      26.673   1.156  52.976  1.00  0.00     0.049 C 
ENDBRANCH  16  17
ENDBRANCH  12  15
ENDBRANCH   1  11
BRANCH   4  24
HETATM   24  N3  UNL     1      31.265   6.833  48.406  1.00  0.00    -0.340 N 
HETATM   25  H15 UNL     1      30.969   6.980  49.370  1.00  0.00     0.167 HD
BRANCH  24  26
HETATM   26  C14 UNL     1      32.290   5.885  48.127  1.00  0.00     0.035 A 
HETATM   27  C15 UNL     1      33.644   6.237  48.250  1.00  0.00     0.032 A 
HETATM   28  C16 UNL     1      34.622   5.314  47.970  1.00  0.00     0.046 A 
HETATM   29  C17 UNL     1      34.336   4.014  47.562  1.00  0.00     0.138 A 
HETATM   30  F1  UNL     1      35.339   3.135  47.299  1.00  0.00    -0.204 F 
HETATM   31  C18 UNL     1      32.994   3.628  47.427  1.00  0.00     0.074 A 
HETATM   32 CL1  UNL     1      32.554   2.010  46.915  1.00  0.00    -0.081 Cl
HETATM   33  C19 UNL     1      32.030   4.584  47.717  1.00  0.00     0.056 A 
ENDBRANCH  24  26
ENDBRANCH   4  24
TORSDOF 5
ENDMDL
MODEL 8
REMARK VINA RESULT:      -8.5      4.946      6.192
REMARK  5 active torsions:
REMARK  status: ('A' for Active; 'I' for Inactive)
REMARK    1  A    between atoms: C6_7  and  C7_8 
REMARK    2  A    between atoms: C8_9  and  C9_10 
REMARK       I    between atoms: C9_10  and  N2_12 
REMARK    3  A    between atoms: N2_12  and  C10_13 
REMARK    4  A    between atoms: C13_16  and  N3_17 
REMARK    5  A    between atoms: N3_17  and  C14_18 
ROOT
HETATM    1  C10 UNL     1      21.188   1.843  51.935  1.00  0.00     0.131 A 
HETATM    2  C11 UNL     1      22.442   1.373  52.234  1.00  0.00     0.068 A 
HETATM    3  C12 UNL     1      22.690   0.459  53.252  1.00  0.00     0.044 A 
HETATM    4  C13 UNL     1      23.969  -0.031  53.564  1.00  0.00     0.142 A 
HETATM    5  N4  UNL     1      24.068  -0.921  54.581  1.00  0.00    -0.224 NA
HETATM    6  C20 UNL     1      22.954  -1.290  55.237  1.00  0.00     0.236 A 
HETATM    7  N5  UNL     1      21.699  -0.849  54.974  1.00  0.00    -0.240 NA
HETATM    8  C21 UNL     1      21.557   0.042  53.963  1.00  0.00     0.089 A 
HETATM    9  C22 UNL     1      20.294   0.507  53.669  1.00  0.00     0.151 A 
HETATM   10  N6  UNL     1      20.104   1.412  52.653  1.00  0.00    -0.241 NA
ENDROOT
BRANCH   1  11
HETATM   11  N2  UNL     1      20.971   2.800  50.899  1.00  0.00    -0.301 N 
HETATM   12  C9  UNL     1      21.235   4.096  51.432  1.00  0.00     0.302 C 
HETATM   13  O1  UNL     1      21.600   4.353  52.634  1.00  0.00    -0.258 OA
HETATM   14  H13 UNL     1      20.672   2.740  49.891  1.00  0.00     0.171 HD
BRANCH  12  15
HETATM   15  C8  UNL     1      21.118   5.313  50.641  1.00  0.00    -0.003 C 
HETATM   16  C7  UNL     1      21.010   6.354  49.989  1.00  0.00    -0.060 C 
BRANCH  16  17
HETATM   17  C6  UNL     1      20.887   7.591  49.238  1.00  0.00     0.301 C 
HETATM   18  N1  UNL     1      22.156   8.013  48.741  1.00  0.00     0.100 N 
HETATM   19  C1  UNL     1      23.131   8.254  49.778  1.00  0.00     0.311 C 
HETATM   20  C2  UNL     1      22.046   9.126  47.810  1.00  0.00     0.273 C 
HETATM   21  C3  UNL     1      20.700   9.803  47.856  1.00  0.00     0.030 C 
HETATM   22  C4  UNL     1      20.258  10.006  49.297  1.00  0.00     0.005 C 
HETATM   23  C5  UNL     1      20.166   8.672  50.015  1.00  0.00     0.049 C 
ENDBRANCH  16  17
ENDBRANCH  12  15
ENDBRANCH   1  11
BRANCH   4  24
HETATM   24  N3  UNL     1      24.986   0.525  52.704  1.00  0.00    -0.340 N 
HETATM   25  H15 UNL     1      24.681   1.046  51.883  1.00  0.00     0.167 HD
BRANCH  24  26
HETATM   26  C14 UNL     1      26.377   0.399  52.975  1.00  0.00     0.035 A 
HETATM   27  C15 UNL     1      27.156   1.531  53.267  1.00  0.00     0.032 A 
HETATM   28  C16 UNL     1      28.500   1.394  53.519  1.00  0.00     0.046 A 
HETATM   29  C17 UNL     1      29.147   0.162  53.504  1.00  0.00     0.138 A 
HETATM   30  F1  UNL     1      30.479   0.077  53.763  1.00  0.00    -0.204 F 
HETATM   31  C18 UNL     1      28.401  -0.991  53.215  1.00  0.00     0.074 A 
HETATM   32 CL1  UNL     1      29.146  -2.577  53.173  1.00  0.00    -0.081 Cl
HETATM   33  C19 UNL     1      27.046  -0.818  52.964  1.00  0.00     0.056 A 
ENDBRANCH  24  26
ENDBRANCH   4  24
TORSDOF 5
ENDMDL
MODEL 9
REMARK VINA RESULT:      -8.3      2.522      3.299
REMARK  5 active torsions:
REMARK  status: ('A' for Active; 'I' for Inactive)
REMARK    1  A    between atoms: C6_7  and  C7_8 
REMARK    2  A    between atoms: C8_9  and  C9_10 
REMARK       I    between atoms: C9_10  and  N2_12 
REMARK    3  A    between atoms: N2_12  and  C10_13 
REMARK    4  A    between atoms: C13_16  and  N3_17 
REMARK    5  A    between atoms: N3_17  and  C14_18 
ROOT
HETATM    1  C10 UNL     1      24.488   5.669  50.544  1.00  0.00     0.131 A 
HETATM    2  C11 UNL     1      23.970   4.401  50.630  1.00  0.00     0.068 A 
HETATM    3  C12 UNL     1      22.620   4.141  50.838  1.00  0.00     0.044 A 
HETATM    4  C13 UNL     1      22.080   2.847  50.924  1.00  0.00     0.142 A 
HETATM    5  N4  UNL     1      20.745   2.738  51.128  1.00  0.00    -0.224 NA
HETATM    6  C20 UNL     1      20.007   3.856  51.236  1.00  0.00     0.236 A 
HETATM    7  N5  UNL     1      20.478   5.126  51.157  1.00  0.00    -0.240 NA
HETATM    8  C21 UNL     1      21.810   5.278  50.954  1.00  0.00     0.089 A 
HETATM    9  C22 UNL     1      22.319   6.555  50.867  1.00  0.00     0.151 A 
HETATM   10  N6  UNL     1      23.662   6.756  50.663  1.00  0.00    -0.241 NA
ENDROOT
BRANCH   1  11
HETATM   11  N2  UNL     1      25.883   5.901  50.354  1.00  0.00    -0.301 N 
HETATM   12  C9  UNL     1      26.099   6.190  48.975  1.00  0.00     0.302 C 
HETATM   13  O1  UNL     1      25.196   6.230  48.065  1.00  0.00    -0.258 OA
HETATM   14  H13 UNL     1      26.723   5.897  50.988  1.00  0.00     0.171 HD
BRANCH  12  15
HETATM   15  C8  UNL     1      27.416   6.485  48.428  1.00  0.00    -0.003 C 
HETATM   16  C7  UNL     1      28.539   6.740  47.986  1.00  0.00    -0.060 C 
BRANCH  16  17
HETATM   17  C6  UNL     1      29.869   7.035  47.483  1.00  0.00     0.301 C 
HETATM   18  N1  UNL     1      30.692   7.583  48.513  1.00  0.00     0.100 N 
HETATM   19  C1  UNL     1      30.178   8.812  49.068  1.00  0.00     0.311 C 
HETATM   20  C2  UNL     1      32.087   7.693  48.109  1.00  0.00     0.273 C 
HETATM   21  C3  UNL     1      32.283   7.552  46.622  1.00  0.00     0.030 C 
HETATM   22  C4  UNL     1      31.237   8.360  45.871  1.00  0.00     0.005 C 
HETATM   23  C5  UNL     1      29.842   7.884  46.231  1.00  0.00     0.049 C 
ENDBRANCH  16  17
ENDBRANCH  12  15
ENDBRANCH   1  11
BRANCH   4  24
HETATM   24  N3  UNL     1      23.091   1.828  50.771  1.00  0.00    -0.340 N 
HETATM   25  H15 UNL     1      23.480   1.681  49.840  1.00  0.00     0.167 HD
BRANCH  24  26
HETATM   26  C14 UNL     1      23.576   1.054  51.862  1.00  0.00     0.035 A 
HETATM   27  C15 UNL     1      24.952   0.985  52.136  1.00  0.00     0.032 A 
HETATM   28  C16 UNL     1      25.406   0.228  53.188  1.00  0.00     0.046 A 
HETATM   29  C17 UNL     1      24.554  -0.491  54.021  1.00  0.00     0.138 A 
HETATM   30  F1  UNL     1      25.051  -1.224  55.053  1.00  0.00    -0.204 F 
HETATM   31  C18 UNL     1      23.173  -0.446  53.778  1.00  0.00     0.074 A 
HETATM   32 CL1  UNL     1      22.037  -1.327  54.781  1.00  0.00    -0.081 Cl
HETATM   33  C19 UNL     1      22.747   0.328  52.706  1.00  0.00     0.056 A 
ENDBRANCH  24  26
ENDBRANCH   4  24
TORSDOF 5
ENDMDL
