MODEL 1
REMARK VINA RESULT:      -9.5      0.000      0.000
REMARK  5 active torsions:
REMARK  status: ('A' for Active; 'I' for Inactive)
REMARK    1  A    between atoms: C2_2  and  N1_11 
REMARK    2  A    between atoms: C3_3  and  C4_4 
REMARK    3  A    between atoms: C11_14  and  O3_15 
REMARK    4  A    between atoms: O3_15  and  C12_16 
REMARK    5  A    between atoms: C12_16  and  C13_17 
ROOT
HETATM    1  N1  UNL     1      22.716   2.672  50.601  1.00  0.00    -0.286 N 
HETATM    2  C9  UNL     1      23.702   2.003  51.358  1.00  0.00     0.158 C 
HETATM    3  C10 UNL     1      23.996   1.032  52.243  1.00  0.00     0.039 C 
HETATM    4  C11 UNL     1      23.911  -0.097  53.192  1.00  0.00     0.067 C 
HETATM    5  C19 UNL     1      22.795  -0.692  53.496  1.00  0.00     0.036 C 
HETATM    6  C20 UNL     1      21.390  -0.699  53.243  1.00  0.00     0.005 C 
HETATM    7  C21 UNL     1      20.492  -0.041  52.510  1.00  0.00     0.030 C 
HETATM    8  C22 UNL     1      20.298   1.058  51.530  1.00  0.00     0.044 C 
HETATM    9  C23 UNL     1      19.300   1.868  51.955  1.00  0.00     0.030 C 
HETATM   10  C24 UNL     1      18.738   3.162  51.481  1.00  0.00    -0.001 C 
HETATM   11  C25 UNL     1      19.381   3.800  50.497  1.00  0.00    -0.009 C 
HETATM   12  C26 UNL     1      20.812   3.850  50.122  1.00  0.00     0.166 C 
HETATM   13  N2  UNL     1      21.476   2.635  49.901  1.00  0.00    -0.133 NA
HETATM   14  N3  UNL     1      20.895   1.457  50.281  1.00  0.00    -0.301 N 
HETATM   15  H29 UNL     1      20.815   0.634  49.634  1.00  0.00     0.183 HD
ENDROOT
BRANCH   1  16
HETATM   16  C2  UNL     1      23.367   3.940  50.613  1.00  0.00     0.022 C 
HETATM   17  C1  UNL     1      23.487   5.064  51.607  1.00  0.00     0.069 C 
HETATM   18  C3  UNL     1      24.044   4.235  49.498  1.00  0.00     0.028 C 
BRANCH  18  19
HETATM   19  C4  UNL     1      24.784   5.491  49.316  1.00  0.00     0.036 C 
HETATM   20  C5  UNL     1      26.112   5.585  49.259  1.00  0.00     0.070 C 
HETATM   21  C6  UNL     1      26.860   4.294  49.396  1.00  0.00     0.232 C 
HETATM   22  O2  UNL     1      26.719   6.799  49.088  1.00  0.00    -0.351 OA
HETATM   23  O1  UNL     1      28.205   4.572  49.222  1.00  0.00    -0.383 OA
HETATM   24  C7  UNL     1      28.395   5.377  48.089  1.00  0.00     0.194 C 
HETATM   25  C8  UNL     1      27.961   6.805  48.367  1.00  0.00     0.201 C 
ENDBRANCH  18  19
ENDBRANCH   1  16
BRANCH   4  26
HETATM   26  O3  UNL     1      25.167  -0.398  53.680  1.00  0.00    -0.347 OA
BRANCH  26  27
HETATM   27  C12 UNL     1      26.085  -1.118  52.885  1.00  0.00     0.214 C 
BRANCH  27  28
HETATM   28  C13 UNL     1      27.508  -0.696  53.143  1.00  0.00    -0.034 A 
HETATM   29  C14 UNL     1      28.582  -1.559  53.214  1.00  0.00     0.009 A 
HETATM   30  C15 UNL     1      29.850  -1.053  53.458  1.00  0.00     0.001 A 
HETATM   31  C16 UNL     1      29.997   0.319  53.626  1.00  0.00     0.000 A 
HETATM   32  C17 UNL     1      28.946   1.202  53.562  1.00  0.00     0.001 A 
HETATM   33  C18 UNL     1      27.700   0.679  53.318  1.00  0.00     0.009 A 
ENDBRANCH  27  28
ENDBRANCH  26  27
ENDBRANCH   4  26
TORSDOF 5
ENDMDL
MODEL 2
REMARK VINA RESULT:      -9.5      1.776      6.006
REMARK  5 active torsions:
REMARK  status: ('A' for Active; 'I' for Inactive)
REMARK    1  A    between atoms: C2_2  and  N1_11 
REMARK    2  A    between atoms: C3_3  and  C4_4 
REMARK    3  A    between atoms: C11_14  and  O3_15 
REMARK    4  A    between atoms: O3_15  and  C12_16 
REMARK    5  A    between atoms: C12_16  and  C13_17 
ROOT
HETATM    1  N1  UNL     1      22.154   1.389  52.673  1.00  0.00    -0.286 N 
HETATM    2  C9  UNL     1      23.039   2.016  51.768  1.00  0.00     0.158 C 
HETATM    3  C10 UNL     1      23.199   2.700  50.621  1.00  0.00     0.039 C 
HETATM    4  C11 UNL     1      22.964   3.410  49.346  1.00  0.00     0.067 C 
HETATM    5  C19 UNL     1      21.784   3.570  48.825  1.00  0.00     0.036 C 
HETATM    6  C20 UNL     1      20.396   3.294  49.014  1.00  0.00     0.005 C 
HETATM    7  C21 UNL     1      19.597   2.692  49.895  1.00  0.00     0.030 C 
HETATM    8  C22 UNL     1      19.551   1.946  51.179  1.00  0.00     0.044 C 
HETATM    9  C23 UNL     1      18.825   0.816  51.017  1.00  0.00     0.030 C 
HETATM   10  C24 UNL     1      18.529  -0.362  51.876  1.00  0.00    -0.001 C 
HETATM   11  C25 UNL     1      19.184  -0.469  53.037  1.00  0.00    -0.009 C 
HETATM   12  C26 UNL     1      20.534  -0.028  53.455  1.00  0.00     0.166 C 
HETATM   13  N2  UNL     1      20.866   1.323  53.279  1.00  0.00    -0.133 NA
HETATM   14  N3  UNL     1      20.076   2.130  52.509  1.00  0.00    -0.301 N 
HETATM   15  H29 UNL     1      19.732   3.065  52.840  1.00  0.00     0.183 HD
ENDROOT
BRANCH   1  16
HETATM   16  C2  UNL     1      23.079   0.395  53.106  1.00  0.00     0.022 C 
HETATM   17  C1  UNL     1      23.009  -1.089  53.349  1.00  0.00     0.069 C 
HETATM   18  C3  UNL     1      24.310   0.847  53.365  1.00  0.00     0.028 C 
BRANCH  18  19
HETATM   19  C4  UNL     1      25.406  -0.019  53.820  1.00  0.00     0.036 C 
HETATM   20  C5  UNL     1      26.700   0.229  53.620  1.00  0.00     0.070 C 
HETATM   21  C6  UNL     1      27.009   1.491  52.874  1.00  0.00     0.232 C 
HETATM   22  O2  UNL     1      27.655  -0.636  54.077  1.00  0.00    -0.351 OA
HETATM   23  O1  UNL     1      28.387   1.628  52.841  1.00  0.00    -0.383 OA
HETATM   24  C7  UNL     1      28.929   1.416  54.117  1.00  0.00     0.194 C 
HETATM   25  C8  UNL     1      28.913  -0.062  54.468  1.00  0.00     0.201 C 
ENDBRANCH  18  19
ENDBRANCH   1  16
BRANCH   4  26
HETATM   26  O3  UNL     1      24.164   3.856  48.827  1.00  0.00    -0.347 OA
BRANCH  26  27
HETATM   27  C12 UNL     1      25.232   4.187  49.688  1.00  0.00     0.214 C 
BRANCH  27  28
HETATM   28  C13 UNL     1      26.209   5.133  49.039  1.00  0.00    -0.034 A 
HETATM   29  C14 UNL     1      25.905   6.411  48.622  1.00  0.00     0.009 A 
HETATM   30  C15 UNL     1      26.891   7.191  48.035  1.00  0.00     0.001 A 
HETATM   31  C16 UNL     1      28.162   6.652  47.884  1.00  0.00     0.000 A 
HETATM   32  C17 UNL     1      28.494   5.381  48.288  1.00  0.00     0.001 A 
HETATM   33  C18 UNL     1      27.503   4.628  48.869  1.00  0.00     0.009 A 
ENDBRANCH  27  28
ENDBRANCH  26  27
ENDBRANCH   4  26
TORSDOF 5
ENDMDL
MODEL 3
REMARK VINA RESULT:      -9.1      2.985      7.389
REMARK  5 active torsions:
REMARK  status: ('A' for Active; 'I' for Inactive)
REMARK    1  A    between atoms: C2_2  and  N1_11 
REMARK    2  A    between atoms: C3_3  and  C4_4 
REMARK    3  A    between atoms: C11_14  and  O3_15 
REMARK    4  A    between atoms: O3_15  and  C12_16 
REMARK    5  A    between atoms: C12_16  and  C13_17 
ROOT
HETATM    1  N1  UNL     1      23.038   1.837  50.854  1.00  0.00    -0.286 N 
HETATM    2  C9  UNL     1      22.101   1.060  51.568  1.00  0.00     0.158 C 
HETATM    3  C10 UNL     1      20.832   0.627  51.684  1.00  0.00     0.039 C 
HETATM    4  C11 UNL     1      19.390   0.383  51.473  1.00  0.00     0.067 C 
HETATM    5  C19 UNL     1      18.712   0.910  50.496  1.00  0.00     0.036 C 
HETATM    6  C20 UNL     1      18.811   1.767  49.359  1.00  0.00     0.005 C 
HETATM    7  C21 UNL     1      19.729   2.487  48.714  1.00  0.00     0.030 C 
HETATM    8  C22 UNL     1      21.158   2.892  48.693  1.00  0.00     0.044 C 
HETATM    9  C23 UNL     1      21.242   4.238  48.581  1.00  0.00     0.030 C 
HETATM   10  C24 UNL     1      22.362   5.217  48.627  1.00  0.00    -0.001 C 
HETATM   11  C25 UNL     1      23.573   4.766  48.972  1.00  0.00    -0.009 C 
HETATM   12  C26 UNL     1      23.999   3.664  49.863  1.00  0.00     0.166 C 
HETATM   13  N2  UNL     1      23.485   2.383  49.616  1.00  0.00    -0.133 NA
HETATM   14  N3  UNL     1      22.432   2.221  48.761  1.00  0.00    -0.301 N 
HETATM   15  H29 UNL     1      22.441   1.516  47.982  1.00  0.00     0.183 HD
ENDROOT
BRANCH   1  16
HETATM   16  C2  UNL     1      23.840   2.164  51.985  1.00  0.00     0.022 C 
HETATM   17  C1  UNL     1      23.941   3.346  52.912  1.00  0.00     0.069 C 
HETATM   18  C3  UNL     1      24.721   1.223  52.341  1.00  0.00     0.028 C 
BRANCH  18  19
HETATM   19  C4  UNL     1      25.636   1.368  53.481  1.00  0.00     0.036 C 
HETATM   20  C5  UNL     1      26.552   0.467  53.835  1.00  0.00     0.070 C 
HETATM   21  C6  UNL     1      26.616  -0.762  52.981  1.00  0.00     0.232 C 
HETATM   22  O2  UNL     1      27.363   0.684  54.915  1.00  0.00    -0.351 OA
HETATM   23  O1  UNL     1      27.674  -1.531  53.438  1.00  0.00    -0.383 OA
HETATM   24  C7  UNL     1      28.816  -0.737  53.611  1.00  0.00     0.194 C 
HETATM   25  C8  UNL     1      28.685   0.127  54.854  1.00  0.00     0.201 C 
ENDBRANCH  18  19
ENDBRANCH   1  16
BRANCH   4  26
HETATM   26  O3  UNL     1      18.907  -0.464  52.450  1.00  0.00    -0.347 OA
BRANCH  26  27
HETATM   27  C12 UNL     1      17.526  -0.503  52.740  1.00  0.00     0.214 C 
BRANCH  27  28
HETATM   28  C13 UNL     1      17.025  -1.912  52.923  1.00  0.00    -0.034 A 
HETATM   29  C14 UNL     1      17.696  -2.900  53.612  1.00  0.00     0.009 A 
HETATM   30  C15 UNL     1      17.134  -4.164  53.714  1.00  0.00     0.001 A 
HETATM   31  C16 UNL     1      15.904  -4.395  53.111  1.00  0.00     0.000 A 
HETATM   32  C17 UNL     1      15.213  -3.430  52.417  1.00  0.00     0.001 A 
HETATM   33  C18 UNL     1      15.787  -2.186  52.331  1.00  0.00     0.009 A 
ENDBRANCH  27  28
ENDBRANCH  26  27
ENDBRANCH   4  26
TORSDOF 5
ENDMDL
MODEL 4
REMARK VINA RESULT:      -9.1      2.145      5.300
REMARK  5 active torsions:
REMARK  status: ('A' for Active; 'I' for Inactive)
REMARK    1  A    between atoms: C2_2  and  N1_11 
REMARK    2  A    between atoms: C3_3  and  C4_4 
REMARK    3  A    between atoms: C11_14  and  O3_15 
REMARK    4  A    between atoms: O3_15  and  C12_16 
REMARK    5  A    between atoms: C12_16  and  C13_17 
ROOT
HETATM    1  N1  UNL     1      22.168   1.472  51.023  1.00  0.00    -0.286 N 
HETATM    2  C9  UNL     1      23.361   2.143  50.677  1.00  0.00     0.158 C 
HETATM    3  C10 UNL     1      24.675   2.322  50.905  1.00  0.00     0.039 C 
HETATM    4  C11 UNL     1      26.048   2.231  51.445  1.00  0.00     0.067 C 
HETATM    5  C19 UNL     1      26.381   1.437  52.418  1.00  0.00     0.036 C 
HETATM    6  C20 UNL     1      25.878   0.456  53.326  1.00  0.00     0.005 C 
HETATM    7  C21 UNL     1      24.730  -0.154  53.619  1.00  0.00     0.030 C 
HETATM    8  C22 UNL     1      23.290  -0.262  53.270  1.00  0.00     0.044 C 
HETATM    9  C23 UNL     1      22.545  -0.153  54.394  1.00  0.00     0.030 C 
HETATM   10  C24 UNL     1      21.085  -0.065  54.670  1.00  0.00    -0.001 C 
HETATM   11  C25 UNL     1      20.259   0.065  53.626  1.00  0.00    -0.009 C 
HETATM   12  C26 UNL     1      20.432   0.706  52.303  1.00  0.00     0.166 C 
HETATM   13  N2  UNL     1      21.520   0.303  51.516  1.00  0.00    -0.133 NA
HETATM   14  N3  UNL     1      22.522  -0.447  52.064  1.00  0.00    -0.301 N 
HETATM   15  H29 UNL     1      22.875  -1.330  51.617  1.00  0.00     0.183 HD
ENDROOT
BRANCH   1  16
HETATM   16  C2  UNL     1      21.299   2.549  50.681  1.00  0.00     0.022 C 
HETATM   17  C1  UNL     1      19.963   2.660  49.997  1.00  0.00     0.069 C 
HETATM   18  C3  UNL     1      21.735   3.761  51.040  1.00  0.00     0.028 C 
BRANCH  18  19
HETATM   19  C4  UNL     1      20.984   4.996  50.781  1.00  0.00     0.036 C 
HETATM   20  C5  UNL     1      21.521   6.214  50.742  1.00  0.00     0.070 C 
HETATM   21  C6  UNL     1      22.998   6.279  50.985  1.00  0.00     0.232 C 
HETATM   22  O2  UNL     1      20.743   7.312  50.496  1.00  0.00    -0.351 OA
HETATM   23  O1  UNL     1      23.389   7.597  50.817  1.00  0.00    -0.383 OA
HETATM   24  C7  UNL     1      22.849   8.119  49.633  1.00  0.00     0.194 C 
HETATM   25  C8  UNL     1      21.366   8.403  49.799  1.00  0.00     0.201 C 
ENDBRANCH  18  19
ENDBRANCH   1  16
BRANCH   4  26
HETATM   26  O3  UNL     1      26.880   3.098  50.764  1.00  0.00    -0.347 OA
BRANCH  26  27
HETATM   27  C12 UNL     1      26.728   3.286  49.374  1.00  0.00     0.214 C 
BRANCH  27  28
HETATM   28  C13 UNL     1      27.127   4.674  48.944  1.00  0.00    -0.034 A 
HETATM   29  C14 UNL     1      28.360   5.011  48.426  1.00  0.00     0.009 A 
HETATM   30  C15 UNL     1      28.612   6.327  48.065  1.00  0.00     0.001 A 
HETATM   31  C16 UNL     1      27.606   7.269  48.241  1.00  0.00     0.000 A 
HETATM   32  C17 UNL     1      26.369   6.962  48.755  1.00  0.00     0.001 A 
HETATM   33  C18 UNL     1      26.140   5.653  49.104  1.00  0.00     0.009 A 
ENDBRANCH  27  28
ENDBRANCH  26  27
ENDBRANCH   4  26
TORSDOF 5
ENDMDL
MODEL 5
REMARK VINA RESULT:      -9.1      2.492      3.794
REMARK  5 active torsions:
REMARK  status: ('A' for Active; 'I' for Inactive)
REMARK    1  A    between atoms: C2_2  and  N1_11 
REMARK    2  A    between atoms: C3_3  and  C4_4 
REMARK    3  A    between atoms: C11_14  and  O3_15 
REMARK    4  A    between atoms: O3_15  and  C12_16 
REMARK    5  A    between atoms: C12_16  and  C13_17 
ROOT
HETATM    1  N1  UNL     1      25.099   5.710  49.154  1.00  0.00    -0.286 N 
HETATM    2  C9  UNL     1      25.861   4.644  49.679  1.00  0.00     0.158 C 
HETATM    3  C10 UNL     1      25.889   3.518  50.416  1.00  0.00     0.039 C 
HETATM    4  C11 UNL     1      25.516   2.367  51.264  1.00  0.00     0.067 C 
HETATM    5  C19 UNL     1      24.307   2.156  51.691  1.00  0.00     0.036 C 
HETATM    6  C20 UNL     1      22.974   2.668  51.670  1.00  0.00     0.005 C 
HETATM    7  C21 UNL     1      22.293   3.691  51.153  1.00  0.00     0.030 C 
HETATM    8  C22 UNL     1      22.392   4.915  50.318  1.00  0.00     0.044 C 
HETATM    9  C23 UNL     1      21.813   5.951  50.968  1.00  0.00     0.030 C 
HETATM   10  C24 UNL     1      21.704   7.412  50.707  1.00  0.00    -0.001 C 
HETATM   11  C25 UNL     1      22.410   7.920  49.692  1.00  0.00    -0.009 C 
HETATM   12  C26 UNL     1      23.706   7.526  49.095  1.00  0.00     0.166 C 
HETATM   13  N2  UNL     1      23.855   6.200  48.663  1.00  0.00    -0.133 NA
HETATM   14  N3  UNL     1      22.938   5.254  49.028  1.00  0.00    -0.301 N 
HETATM   15  H29 UNL     1      22.489   4.607  48.333  1.00  0.00     0.183 HD
ENDROOT
BRANCH   1  16
HETATM   16  C2  UNL     1      26.160   6.661  49.171  1.00  0.00     0.022 C 
HETATM   17  C1  UNL     1      26.468   7.897  49.974  1.00  0.00     0.069 C 
HETATM   18  C3  UNL     1      27.133   6.436  48.281  1.00  0.00     0.028 C 
BRANCH  18  19
HETATM   19  C4  UNL     1      28.313   7.298  48.143  1.00  0.00     0.036 C 
HETATM   20  C5  UNL     1      29.574   6.868  48.181  1.00  0.00     0.070 C 
HETATM   21  C6  UNL     1      29.749   5.393  48.379  1.00  0.00     0.232 C 
HETATM   22  O2  UNL     1      30.615   7.745  48.046  1.00  0.00    -0.351 OA
HETATM   23  O1  UNL     1      31.105   5.121  48.300  1.00  0.00    -0.383 OA
HETATM   24  C7  UNL     1      31.664   5.750  47.178  1.00  0.00     0.194 C 
HETATM   25  C8  UNL     1      31.804   7.244  47.415  1.00  0.00     0.201 C 
ENDBRANCH  18  19
ENDBRANCH   1  16
BRANCH   4  26
HETATM   26  O3  UNL     1      26.628   1.586  51.514  1.00  0.00    -0.347 OA
BRANCH  26  27
HETATM   27  C12 UNL     1      27.017   1.306  52.841  1.00  0.00     0.214 C 
BRANCH  27  28
HETATM   28  C13 UNL     1      27.690  -0.037  52.962  1.00  0.00    -0.034 A 
HETATM   29  C14 UNL     1      27.112  -1.239  52.614  1.00  0.00     0.009 A 
HETATM   30  C15 UNL     1      27.832  -2.415  52.770  1.00  0.00     0.001 A 
HETATM   31  C16 UNL     1      29.123  -2.340  53.278  1.00  0.00     0.000 A 
HETATM   32  C17 UNL     1      29.725  -1.157  53.634  1.00  0.00     0.001 A 
HETATM   33  C18 UNL     1      28.994  -0.006  53.469  1.00  0.00     0.009 A 
ENDBRANCH  27  28
ENDBRANCH  26  27
ENDBRANCH   4  26
TORSDOF 5
ENDMDL
MODEL 6
REMARK VINA RESULT:      -9.0      2.958      7.021
REMARK  5 active torsions:
REMARK  status: ('A' for Active; 'I' for Inactive)
REMARK    1  A    between atoms: C2_2  and  N1_11 
REMARK    2  A    between atoms: C3_3  and  C4_4 
REMARK    3  A    between atoms: C11_14  and  O3_15 
REMARK    4  A    between atoms: O3_15  and  C12_16 
REMARK    5  A    between atoms: C12_16  and  C13_17 
ROOT
HETATM    1  N1  UNL     1      22.252   1.546  51.745  1.00  0.00    -0.286 N 
HETATM    2  C9  UNL     1      23.384   2.244  51.268  1.00  0.00     0.158 C 
HETATM    3  C10 UNL     1      24.725   2.335  51.211  1.00  0.00     0.039 C 
HETATM    4  C11 UNL     1      26.173   2.096  51.383  1.00  0.00     0.067 C 
HETATM    5  C19 UNL     1      26.656   1.106  52.072  1.00  0.00     0.036 C 
HETATM    6  C20 UNL     1      26.298  -0.031  52.859  1.00  0.00     0.005 C 
HETATM    7  C21 UNL     1      25.203  -0.658  53.287  1.00  0.00     0.030 C 
HETATM    8  C22 UNL     1      23.718  -0.652  53.273  1.00  0.00     0.044 C 
HETATM    9  C23 UNL     1      23.256  -0.763  54.539  1.00  0.00     0.030 C 
HETATM   10  C24 UNL     1      21.906  -0.697  55.163  1.00  0.00    -0.001 C 
HETATM   11  C25 UNL     1      20.879  -0.328  54.392  1.00  0.00    -0.009 C 
HETATM   12  C26 UNL     1      20.796   0.573  53.220  1.00  0.00     0.166 C 
HETATM   13  N2  UNL     1      21.646   0.317  52.134  1.00  0.00    -0.133 NA
HETATM   14  N3  UNL     1      22.687  -0.558  52.270  1.00  0.00    -0.301 N 
HETATM   15  H29 UNL     1      22.862  -1.336  51.586  1.00  0.00     0.183 HD
ENDROOT
BRANCH   1  16
HETATM   16  C2  UNL     1      21.411   2.693  51.840  1.00  0.00     0.022 C 
HETATM   17  C1  UNL     1      21.564   4.080  52.407  1.00  0.00     0.069 C 
HETATM   18  C3  UNL     1      20.193   2.544  51.309  1.00  0.00     0.028 C 
BRANCH  18  19
HETATM   19  C4  UNL     1      19.182   3.608  51.304  1.00  0.00     0.036 C 
HETATM   20  C5  UNL     1      17.869   3.405  51.193  1.00  0.00     0.070 C 
HETATM   21  C6  UNL     1      17.444   1.975  51.067  1.00  0.00     0.232 C 
HETATM   22  O2  UNL     1      16.998   4.459  51.195  1.00  0.00    -0.351 OA
HETATM   23  O1  UNL     1      16.059   1.952  51.056  1.00  0.00    -0.383 OA
HETATM   24  C7  UNL     1      15.549   2.748  52.092  1.00  0.00     0.194 C 
HETATM   25  C8  UNL     1      15.698   4.222  51.758  1.00  0.00     0.201 C 
ENDBRANCH  18  19
ENDBRANCH   1  16
BRANCH   4  26
HETATM   26  O3  UNL     1      26.893   3.065  50.712  1.00  0.00    -0.347 OA
BRANCH  26  27
HETATM   27  C12 UNL     1      26.668   3.295  49.338  1.00  0.00     0.214 C 
BRANCH  27  28
HETATM   28  C13 UNL     1      26.892   4.736  48.961  1.00  0.00    -0.034 A 
HETATM   29  C14 UNL     1      25.939   5.729  49.055  1.00  0.00     0.009 A 
HETATM   30  C15 UNL     1      26.262   7.024  48.677  1.00  0.00     0.001 A 
HETATM   31  C16 UNL     1      27.546   7.279  48.211  1.00  0.00     0.000 A 
HETATM   32  C17 UNL     1      28.515   6.310  48.106  1.00  0.00     0.001 A 
HETATM   33  C18 UNL     1      28.174   5.036  48.487  1.00  0.00     0.009 A 
ENDBRANCH  27  28
ENDBRANCH  26  27
ENDBRANCH   4  26
TORSDOF 5
ENDMDL
MODEL 7
REMARK VINA RESULT:      -9.0      2.528      6.795
REMARK  5 active torsions:
REMARK  status: ('A' for Active; 'I' for Inactive)
REMARK    1  A    between atoms: C2_2  and  N1_11 
REMARK    2  A    between atoms: C3_3  and  C4_4 
REMARK    3  A    between atoms: C11_14  and  O3_15 
REMARK    4  A    between atoms: O3_15  and  C12_16 
REMARK    5  A    between atoms: C12_16  and  C13_17 
ROOT
HETATM    1  N1  UNL     1      25.458   2.356  52.632  1.00  0.00    -0.286 N 
HETATM    2  C9  UNL     1      24.133   1.921  52.409  1.00  0.00     0.158 C 
HETATM    3  C10 UNL     1      23.159   1.041  52.701  1.00  0.00     0.039 C 
HETATM    4  C11 UNL     1      22.380  -0.077  53.273  1.00  0.00     0.067 C 
HETATM    5  C19 UNL     1      22.860  -0.905  54.153  1.00  0.00     0.036 C 
HETATM    6  C20 UNL     1      24.023  -1.225  54.916  1.00  0.00     0.005 C 
HETATM    7  C21 UNL     1      25.267  -0.779  55.097  1.00  0.00     0.030 C 
HETATM    8  C22 UNL     1      26.257   0.251  54.692  1.00  0.00     0.044 C 
HETATM    9  C23 UNL     1      27.421  -0.351  54.355  1.00  0.00     0.030 C 
HETATM   10  C24 UNL     1      28.705   0.122  53.773  1.00  0.00    -0.001 C 
HETATM   11  C25 UNL     1      28.769   1.387  53.343  1.00  0.00    -0.009 C 
HETATM   12  C26 UNL     1      27.742   2.290  52.775  1.00  0.00     0.166 C 
HETATM   13  N2  UNL     1      26.568   2.497  53.514  1.00  0.00    -0.133 NA
HETATM   14  N3  UNL     1      26.275   1.688  54.576  1.00  0.00    -0.301 N 
HETATM   15  H29 UNL     1      26.005   2.068  55.517  1.00  0.00     0.183 HD
ENDROOT
BRANCH   1  16
HETATM   16  C2  UNL     1      25.664   2.859  51.314  1.00  0.00     0.022 C 
HETATM   17  C1  UNL     1      26.496   2.437  50.133  1.00  0.00     0.069 C 
HETATM   18  C3  UNL     1      24.969   3.962  51.017  1.00  0.00     0.028 C 
BRANCH  18  19
HETATM   19  C4  UNL     1      25.040   4.631  49.712  1.00  0.00     0.036 C 
HETATM   20  C5  UNL     1      24.950   5.948  49.531  1.00  0.00     0.070 C 
HETATM   21  C6  UNL     1      24.763   6.762  50.774  1.00  0.00     0.232 C 
HETATM   22  O2  UNL     1      25.025   6.487  48.275  1.00  0.00    -0.351 OA
HETATM   23  O1  UNL     1      24.782   8.097  50.405  1.00  0.00    -0.383 OA
HETATM   24  C7  UNL     1      25.869   8.353  49.556  1.00  0.00     0.194 C 
HETATM   25  C8  UNL     1      25.606   7.795  48.167  1.00  0.00     0.201 C 
ENDBRANCH  18  19
ENDBRANCH   1  16
BRANCH   4  26
HETATM   26  O3  UNL     1      21.108  -0.090  52.734  1.00  0.00    -0.347 OA
BRANCH  26  27
HETATM   27  C12 UNL     1      19.997  -0.416  53.541  1.00  0.00     0.214 C 
BRANCH  27  28
HETATM   28  C13 UNL     1      18.732  -0.550  52.734  1.00  0.00    -0.034 A 
HETATM   29  C14 UNL     1      17.597  -1.209  53.158  1.00  0.00     0.009 A 
HETATM   30  C15 UNL     1      16.489  -1.268  52.325  1.00  0.00     0.001 A 
HETATM   31  C16 UNL     1      16.563  -0.656  51.079  1.00  0.00     0.000 A 
HETATM   32  C17 UNL     1      17.680   0.006  50.630  1.00  0.00     0.001 A 
HETATM   33  C18 UNL     1      18.764   0.053  51.472  1.00  0.00     0.009 A 
ENDBRANCH  27  28
ENDBRANCH  26  27
ENDBRANCH   4  26
TORSDOF 5
ENDMDL
MODEL 8
REMARK VINA RESULT:      -8.9      2.387      5.665
REMARK  5 active torsions:
REMARK  status: ('A' for Active; 'I' for Inactive)
REMARK    1  A    between atoms: C2_2  and  N1_11 
REMARK    2  A    between atoms: C3_3  and  C4_4 
REMARK    3  A    between atoms: C11_14  and  O3_15 
REMARK    4  A    between atoms: O3_15  and  C12_16 
REMARK    5  A    between atoms: C12_16  and  C13_17 
ROOT
HETATM    1  N1  UNL     1      22.131   1.537  51.432  1.00  0.00    -0.286 N 
HETATM    2  C9  UNL     1      23.312   2.196  51.028  1.00  0.00     0.158 C 
HETATM    3  C10 UNL     1      24.653   2.279  51.102  1.00  0.00     0.039 C 
HETATM    4  C11 UNL     1      26.074   2.047  51.436  1.00  0.00     0.067 C 
HETATM    5  C19 UNL     1      26.474   1.103  52.237  1.00  0.00     0.036 C 
HETATM    6  C20 UNL     1      26.026   0.024  53.057  1.00  0.00     0.005 C 
HETATM    7  C21 UNL     1      24.886  -0.569  53.412  1.00  0.00     0.030 C 
HETATM    8  C22 UNL     1      23.410  -0.558  53.245  1.00  0.00     0.044 C 
HETATM    9  C23 UNL     1      22.820  -0.582  54.463  1.00  0.00     0.030 C 
HETATM   10  C24 UNL     1      21.415  -0.468  54.940  1.00  0.00    -0.001 C 
HETATM   11  C25 UNL     1      20.475  -0.148  54.044  1.00  0.00    -0.009 C 
HETATM   12  C26 UNL     1      20.522   0.672  52.813  1.00  0.00     0.166 C 
HETATM   13  N2  UNL     1      21.475   0.340  51.839  1.00  0.00    -0.133 NA
HETATM   14  N3  UNL     1      22.487  -0.529  52.139  1.00  0.00    -0.301 N 
HETATM   15  H29 UNL     1      22.723  -1.351  51.530  1.00  0.00     0.183 HD
ENDROOT
BRANCH   1  16
HETATM   16  C2  UNL     1      21.297   2.691  51.364  1.00  0.00     0.022 C 
HETATM   17  C1  UNL     1      20.863   3.750  52.342  1.00  0.00     0.069 C 
HETATM   18  C3  UNL     1      20.756   2.924  50.163  1.00  0.00     0.028 C 
BRANCH  18  19
HETATM   19  C4  UNL     1      19.871   4.063  49.886  1.00  0.00     0.036 C 
HETATM   20  C5  UNL     1      20.182   5.088  49.093  1.00  0.00     0.070 C 
HETATM   21  C6  UNL     1      21.539   5.029  48.461  1.00  0.00     0.232 C 
HETATM   22  O2  UNL     1      19.295   6.110  48.894  1.00  0.00    -0.351 OA
HETATM   23  O1  UNL     1      21.648   6.116  47.610  1.00  0.00    -0.383 OA
HETATM   24  C7  UNL     1      20.504   6.224  46.806  1.00  0.00     0.194 C 
HETATM   25  C8  UNL     1      19.331   6.756  47.612  1.00  0.00     0.201 C 
ENDBRANCH  18  19
ENDBRANCH   1  16
BRANCH   4  26
HETATM   26  O3  UNL     1      26.869   2.965  50.780  1.00  0.00    -0.347 OA
BRANCH  26  27
HETATM   27  C12 UNL     1      26.760   3.129  49.382  1.00  0.00     0.214 C 
BRANCH  27  28
HETATM   28  C13 UNL     1      26.914   4.570  48.968  1.00  0.00    -0.034 A 
HETATM   29  C14 UNL     1      28.092   5.139  48.532  1.00  0.00     0.009 A 
HETATM   30  C15 UNL     1      28.112   6.480  48.178  1.00  0.00     0.001 A 
HETATM   31  C16 UNL     1      26.935   7.211  48.276  1.00  0.00     0.000 A 
HETATM   32  C17 UNL     1      25.747   6.671  48.708  1.00  0.00     0.001 A 
HETATM   33  C18 UNL     1      25.750   5.342  49.052  1.00  0.00     0.009 A 
ENDBRANCH  27  28
ENDBRANCH  26  27
ENDBRANCH   4  26
TORSDOF 5
ENDMDL
MODEL 9
REMARK VINA RESULT:      -8.7      3.293      7.409
REMARK  5 active torsions:
REMARK  status: ('A' for Active; 'I' for Inactive)
REMARK    1  A    between atoms: C2_2  and  N1_11 
REMARK    2  A    between atoms: C3_3  and  C4_4 
REMARK    3  A    between atoms: C11_14  and  O3_15 
REMARK    4  A    between atoms: O3_15  and  C12_16 
REMARK    5  A    between atoms: C12_16  and  C13_17 
ROOT
HETATM    1  N1  UNL     1      23.608   2.403  52.225  1.00  0.00    -0.286 N 
HETATM    2  C9  UNL     1      22.251   2.062  52.412  1.00  0.00     0.158 C 
HETATM    3  C10 UNL     1      21.352   1.214  52.943  1.00  0.00     0.039 C 
HETATM    4  C11 UNL     1      20.708   0.092  53.658  1.00  0.00     0.067 C 
HETATM    5  C19 UNL     1      21.374  -0.836  54.279  1.00  0.00     0.036 C 
HETATM    6  C20 UNL     1      22.690  -1.285  54.603  1.00  0.00     0.005 C 
HETATM    7  C21 UNL     1      23.958  -0.925  54.403  1.00  0.00     0.030 C 
HETATM    8  C22 UNL     1      24.847   0.082  53.772  1.00  0.00     0.044 C 
HETATM    9  C23 UNL     1      25.793  -0.549  53.038  1.00  0.00     0.030 C 
HETATM   10  C24 UNL     1      26.860  -0.096  52.106  1.00  0.00    -0.001 C 
HETATM   11  C25 UNL     1      26.885   1.197  51.765  1.00  0.00    -0.009 C 
HETATM   12  C26 UNL     1      25.807   2.201  51.620  1.00  0.00     0.166 C 
HETATM   13  N2  UNL     1      24.948   2.404  52.709  1.00  0.00    -0.133 NA
HETATM   14  N3  UNL     1      24.943   1.520  53.752  1.00  0.00    -0.301 N 
HETATM   15  H29 UNL     1      25.016   1.830  54.753  1.00  0.00     0.183 HD
ENDROOT
BRANCH   1  16
HETATM   16  C2  UNL     1      23.425   3.010  50.948  1.00  0.00     0.022 C 
HETATM   17  C1  UNL     1      23.636   4.391  50.387  1.00  0.00     0.069 C 
HETATM   18  C3  UNL     1      22.963   2.191  49.997  1.00  0.00     0.028 C 
BRANCH  18  19
HETATM   19  C4  UNL     1      22.711   2.624  48.616  1.00  0.00     0.036 C 
HETATM   20  C5  UNL     1      21.504   2.714  48.060  1.00  0.00     0.070 C 
HETATM   21  C6  UNL     1      20.354   2.338  48.943  1.00  0.00     0.232 C 
HETATM   22  O2  UNL     1      21.362   3.126  46.763  1.00  0.00    -0.351 OA
HETATM   23  O1  UNL     1      19.188   2.578  48.234  1.00  0.00    -0.383 OA
HETATM   24  C7  UNL     1      19.232   3.848  47.640  1.00  0.00     0.194 C 
HETATM   25  C8  UNL     1      20.164   3.849  46.441  1.00  0.00     0.201 C 
ENDBRANCH  18  19
ENDBRANCH   1  16
BRANCH   4  26
HETATM   26  O3  UNL     1      19.334   0.196  53.558  1.00  0.00    -0.347 OA
BRANCH  26  27
HETATM   27  C12 UNL     1      18.551  -0.949  53.300  1.00  0.00     0.214 C 
BRANCH  27  28
HETATM   28  C13 UNL     1      17.676  -0.774  52.085  1.00  0.00    -0.034 A 
HETATM   29  C14 UNL     1      18.028  -0.055  50.962  1.00  0.00     0.009 A 
HETATM   30  C15 UNL     1      17.136   0.037  49.903  1.00  0.00     0.001 A 
HETATM   31  C16 UNL     1      15.908  -0.603  50.012  1.00  0.00     0.000 A 
HETATM   32  C17 UNL     1      15.530  -1.325  51.119  1.00  0.00     0.001 A 
HETATM   33  C18 UNL     1      16.429  -1.404  52.154  1.00  0.00     0.009 A 
ENDBRANCH  27  28
ENDBRANCH  26  27
ENDBRANCH   4  26
TORSDOF 5
ENDMDL
