MODEL 1
REMARK VINA RESULT:      -8.0      0.000      0.000
REMARK  3 active torsions:
REMARK  status: ('A' for Active; 'I' for Inactive)
REMARK    1  A    between atoms: C2_3  and  C3_4 
REMARK    2  A    between atoms: C7_9  and  N2_10 
REMARK    3  A    between atoms: N2_10  and  C8_11 
ROOT
HETATM    1  C3  UNL     1      27.997   0.207  53.971  1.00  0.00     0.077 C 
HETATM    2  C4  UNL     1      27.736   0.963  52.917  1.00  0.00     0.030 C 
HETATM    3  C5  UNL     1      26.504   1.541  52.308  1.00  0.00     0.150 C 
HETATM    4  N1  UNL     1      25.405   0.577  52.362  1.00  0.00    -0.380 N 
HETATM    5  C6  UNL     1      24.913  -0.090  53.532  1.00  0.00     0.129 A 
HETATM    6  C7  UNL     1      23.574  -0.344  53.466  1.00  0.00     0.160 A 
HETATM    7  N3  UNL     1      23.070  -0.976  54.520  1.00  0.00    -0.222 NA
HETATM    8  C14 UNL     1      23.770  -1.358  55.596  1.00  0.00     0.238 A 
HETATM    9  N4  UNL     1      25.110  -1.102  55.665  1.00  0.00    -0.215 NA
HETATM   10  C15 UNL     1      25.699  -0.464  54.633  1.00  0.00     0.202 A 
HETATM   11  O1  UNL     1      27.060  -0.286  54.868  1.00  0.00    -0.290 OA
HETATM   12  H6  UNL     1      24.844   0.255  51.536  1.00  0.00     0.160 HD
ENDROOT
BRANCH   6  13
HETATM   13  N2  UNL     1      22.771   0.034  52.368  1.00  0.00    -0.339 N 
HETATM   14  H7  UNL     1      22.623  -0.415  51.444  1.00  0.00     0.167 HD
BRANCH  13  15
HETATM   15  C8  UNL     1      21.968   1.203  52.296  1.00  0.00     0.035 A 
HETATM   16  C9  UNL     1      20.612   1.111  52.450  1.00  0.00     0.029 A 
HETATM   17  C10 UNL     1      19.780   2.191  52.368  1.00  0.00     0.004 A 
HETATM   18  C11 UNL     1      20.273   3.468  52.119  1.00  0.00     0.019 A 
HETATM   19  C12 UNL     1      21.612   3.613  51.959  1.00  0.00     0.013 A 
HETATM   20 BR1  UNL     1      22.414   5.317  51.611  1.00  0.00    -0.051 Br
HETATM   21  C13 UNL     1      22.401   2.490  52.052  1.00  0.00     0.048 A 
ENDBRANCH  13  15
ENDBRANCH   6  13
BRANCH   1  22
HETATM   22  C2  UNL     1      29.393  -0.099  54.152  1.00  0.00     0.066 C 
HETATM   23  C1  UNL     1      29.799  -1.252  53.665  1.00  0.00     0.191 C 
HETATM   24  F1  UNL     1      28.845  -2.013  53.046  1.00  0.00    -0.219 F 
ENDBRANCH   1  22
TORSDOF 3
ENDMDL
MODEL 2
REMARK VINA RESULT:      -7.5      4.064      6.052
REMARK  3 active torsions:
REMARK  status: ('A' for Active; 'I' for Inactive)
REMARK    1  A    between atoms: C2_3  and  C3_4 
REMARK    2  A    between atoms: C7_9  and  N2_10 
REMARK    3  A    between atoms: N2_10  and  C8_11 
ROOT
HETATM    1  C3  UNL     1      22.508   0.580  53.104  1.00  0.00     0.077 C 
HETATM    2  C4  UNL     1      21.928   0.873  51.951  1.00  0.00     0.030 C 
HETATM    3  C5  UNL     1      22.408   1.265  50.595  1.00  0.00     0.150 C 
HETATM    4  N1  UNL     1      23.535   2.192  50.697  1.00  0.00    -0.380 N 
HETATM    5  C6  UNL     1      24.750   1.979  51.428  1.00  0.00     0.129 A 
HETATM    6  C7  UNL     1      25.824   2.585  50.846  1.00  0.00     0.160 A 
HETATM    7  N3  UNL     1      26.974   2.431  51.493  1.00  0.00    -0.222 NA
HETATM    8  C14 UNL     1      27.131   1.745  52.631  1.00  0.00     0.238 A 
HETATM    9  N4  UNL     1      26.056   1.135  53.215  1.00  0.00    -0.215 NA
HETATM   10  C15 UNL     1      24.851   1.245  52.621  1.00  0.00     0.202 A 
HETATM   11  O1  UNL     1      23.874   0.568  53.345  1.00  0.00    -0.290 OA
HETATM   12  H6  UNL     1      23.581   3.136  50.243  1.00  0.00     0.160 HD
ENDROOT
BRANCH   6  13
HETATM   13  N2  UNL     1      25.736   3.319  49.643  1.00  0.00    -0.339 N 
HETATM   14  H7  UNL     1      25.410   3.043  48.697  1.00  0.00     0.167 HD
BRANCH  13  15
HETATM   15  C8  UNL     1      26.128   4.673  49.471  1.00  0.00     0.035 A 
HETATM   16  C9  UNL     1      25.388   5.676  50.036  1.00  0.00     0.029 A 
HETATM   17  C10 UNL     1      25.695   6.998  49.890  1.00  0.00     0.004 A 
HETATM   18  C11 UNL     1      26.797   7.409  49.145  1.00  0.00     0.019 A 
HETATM   19  C12 UNL     1      27.563   6.453  48.564  1.00  0.00     0.013 A 
HETATM   20 BR1  UNL     1      29.106   6.887  47.515  1.00  0.00    -0.051 Br
HETATM   21  C13 UNL     1      27.207   5.137  48.746  1.00  0.00     0.048 A 
ENDBRANCH  13  15
ENDBRANCH   6  13
BRANCH   1  22
HETATM   22  C2  UNL     1      21.590   0.252  54.164  1.00  0.00     0.066 C 
HETATM   23  C1  UNL     1      21.381  -1.030  54.371  1.00  0.00     0.191 C 
HETATM   24  F1  UNL     1      22.062  -1.891  53.555  1.00  0.00    -0.219 F 
ENDBRANCH   1  22
TORSDOF 3
ENDMDL
MODEL 3
REMARK VINA RESULT:      -7.3      2.022      2.176
REMARK  3 active torsions:
REMARK  status: ('A' for Active; 'I' for Inactive)
REMARK    1  A    between atoms: C2_3  and  C3_4 
REMARK    2  A    between atoms: C7_9  and  N2_10 
REMARK    3  A    between atoms: N2_10  and  C8_11 
ROOT
HETATM    1  C3  UNL     1      27.216  -0.270  53.284  1.00  0.00     0.077 C 
HETATM    2  C4  UNL     1      27.270   0.905  52.679  1.00  0.00     0.030 C 
HETATM    3  C5  UNL     1      26.339   2.060  52.526  1.00  0.00     0.150 C 
HETATM    4  N1  UNL     1      24.969   1.591  52.318  1.00  0.00    -0.380 N 
HETATM    5  C6  UNL     1      24.240   0.690  53.161  1.00  0.00     0.129 A 
HETATM    6  C7  UNL     1      22.901   0.948  53.169  1.00  0.00     0.160 A 
HETATM    7  N3  UNL     1      22.176   0.130  53.923  1.00  0.00    -0.222 NA
HETATM    8  C14 UNL     1      22.664  -0.886  54.646  1.00  0.00     0.238 A 
HETATM    9  N4  UNL     1      24.006  -1.144  54.642  1.00  0.00    -0.215 NA
HETATM   10  C15 UNL     1      24.811  -0.359  53.899  1.00  0.00     0.202 A 
HETATM   11  O1  UNL     1      26.140  -0.761  54.009  1.00  0.00    -0.290 OA
HETATM   12  H6  UNL     1      24.355   1.863  51.512  1.00  0.00     0.160 HD
ENDROOT
BRANCH   6  13
HETATM   13  N2  UNL     1      22.315   2.005  52.437  1.00  0.00    -0.339 N 
HETATM   14  H7  UNL     1      21.944   2.923  52.745  1.00  0.00     0.167 HD
BRANCH  13  15
HETATM   15  C8  UNL     1      22.080   2.009  51.037  1.00  0.00     0.035 A 
HETATM   16  C9  UNL     1      21.597   0.886  50.422  1.00  0.00     0.029 A 
HETATM   17  C10 UNL     1      21.371   0.815  49.077  1.00  0.00     0.004 A 
HETATM   18  C11 UNL     1      21.624   1.899  48.241  1.00  0.00     0.019 A 
HETATM   19  C12 UNL     1      22.104   3.036  48.803  1.00  0.00     0.013 A 
HETATM   20 BR1  UNL     1      22.492   4.597  47.762  1.00  0.00    -0.051 Br
HETATM   21  C13 UNL     1      22.311   3.050  50.162  1.00  0.00     0.048 A 
ENDBRANCH  13  15
ENDBRANCH   6  13
BRANCH   1  22
HETATM   22  C2  UNL     1      28.408  -1.067  53.142  1.00  0.00     0.066 C 
HETATM   23  C1  UNL     1      29.345  -0.869  54.044  1.00  0.00     0.191 C 
HETATM   24  F1  UNL     1      29.069   0.066  55.003  1.00  0.00    -0.219 F 
ENDBRANCH   1  22
TORSDOF 3
ENDMDL
MODEL 4
REMARK VINA RESULT:      -7.2      2.397      3.669
REMARK  3 active torsions:
REMARK  status: ('A' for Active; 'I' for Inactive)
REMARK    1  A    between atoms: C2_3  and  C3_4 
REMARK    2  A    between atoms: C7_9  and  N2_10 
REMARK    3  A    between atoms: N2_10  and  C8_11 
ROOT
HETATM    1  C3  UNL     1      27.892   0.477  53.589  1.00  0.00     0.077 C 
HETATM    2  C4  UNL     1      26.837  -0.132  54.104  1.00  0.00     0.030 C 
HETATM    3  C5  UNL     1      25.383  -0.185  53.778  1.00  0.00     0.150 C 
HETATM    4  N1  UNL     1      24.898   1.135  53.377  1.00  0.00    -0.380 N 
HETATM    5  C6  UNL     1      25.438   1.962  52.338  1.00  0.00     0.129 A 
HETATM    6  C7  UNL     1      24.487   2.724  51.726  1.00  0.00     0.160 A 
HETATM    7  N3  UNL     1      24.938   3.521  50.765  1.00  0.00    -0.222 NA
HETATM    8  C14 UNL     1      26.216   3.613  50.378  1.00  0.00     0.238 A 
HETATM    9  N4  UNL     1      27.171   2.849  50.988  1.00  0.00    -0.215 NA
HETATM   10  C15 UNL     1      26.794   2.014  51.976  1.00  0.00     0.202 A 
HETATM   11  O1  UNL     1      27.887   1.316  52.485  1.00  0.00    -0.290 OA
HETATM   12  H6  UNL     1      24.088   1.638  53.815  1.00  0.00     0.160 HD
ENDROOT
BRANCH   6  13
HETATM   13  N2  UNL     1      23.119   2.675  52.076  1.00  0.00    -0.339 N 
HETATM   14  H7  UNL     1      22.601   3.106  52.865  1.00  0.00     0.167 HD
BRANCH  13  15
HETATM   15  C8  UNL     1      22.114   1.954  51.379  1.00  0.00     0.035 A 
HETATM   16  C9  UNL     1      22.156   1.869  50.014  1.00  0.00     0.029 A 
HETATM   17  C10 UNL     1      21.209   1.212  49.281  1.00  0.00     0.004 A 
HETATM   18  C11 UNL     1      20.129   0.582  49.892  1.00  0.00     0.019 A 
HETATM   19  C12 UNL     1      20.041   0.637  51.243  1.00  0.00     0.013 A 
HETATM   20 BR1  UNL     1      18.604  -0.190  52.203  1.00  0.00    -0.051 Br
HETATM   21  C13 UNL     1      21.024   1.312  51.930  1.00  0.00     0.048 A 
ENDBRANCH  13  15
ENDBRANCH   6  13
BRANCH   1  22
HETATM   22  C2  UNL     1      29.128   0.209  54.280  1.00  0.00     0.066 C 
HETATM   23  C1  UNL     1      29.825  -0.817  53.839  1.00  0.00     0.191 C 
HETATM   24  F1  UNL     1      29.289  -1.498  52.781  1.00  0.00    -0.219 F 
ENDBRANCH   1  22
TORSDOF 3
ENDMDL
MODEL 5
REMARK VINA RESULT:      -7.1      4.265      6.387
REMARK  3 active torsions:
REMARK  status: ('A' for Active; 'I' for Inactive)
REMARK    1  A    between atoms: C2_3  and  C3_4 
REMARK    2  A    between atoms: C7_9  and  N2_10 
REMARK    3  A    between atoms: N2_10  and  C8_11 
ROOT
HETATM    1  C3  UNL     1      23.012   0.106  53.002  1.00  0.00     0.077 C 
HETATM    2  C4  UNL     1      24.212   0.368  53.494  1.00  0.00     0.030 C 
HETATM    3  C5  UNL     1      25.252   1.408  53.250  1.00  0.00     0.150 C 
HETATM    4  N1  UNL     1      25.358   1.702  51.822  1.00  0.00    -0.380 N 
HETATM    5  C6  UNL     1      24.289   2.094  50.951  1.00  0.00     0.129 A 
HETATM    6  C7  UNL     1      24.703   2.929  49.955  1.00  0.00     0.160 A 
HETATM    7  N3  UNL     1      23.753   3.310  49.109  1.00  0.00    -0.222 NA
HETATM    8  C14 UNL     1      22.468   2.940  49.178  1.00  0.00     0.238 A 
HETATM    9  N4  UNL     1      22.050   2.106  50.176  1.00  0.00    -0.215 NA
HETATM   10  C15 UNL     1      22.955   1.672  51.076  1.00  0.00     0.202 A 
HETATM   11  O1  UNL     1      22.362   0.835  52.018  1.00  0.00    -0.290 OA
HETATM   12  H6  UNL     1      26.243   1.655  51.261  1.00  0.00     0.160 HD
ENDROOT
BRANCH   6  13
HETATM   13  N2  UNL     1      26.040   3.367  49.823  1.00  0.00    -0.339 N 
HETATM   14  H7  UNL     1      26.938   2.884  50.014  1.00  0.00     0.167 HD
BRANCH  13  15
HETATM   15  C8  UNL     1      26.447   4.658  49.395  1.00  0.00     0.035 A 
HETATM   16  C9  UNL     1      27.610   4.809  48.689  1.00  0.00     0.029 A 
HETATM   17  C10 UNL     1      28.071   6.023  48.269  1.00  0.00     0.004 A 
HETATM   18  C11 UNL     1      27.374   7.197  48.540  1.00  0.00     0.019 A 
HETATM   19  C12 UNL     1      26.215   7.101  49.237  1.00  0.00     0.013 A 
HETATM   20 BR1  UNL     1      25.163   8.642  49.674  1.00  0.00    -0.051 Br
HETATM   21  C13 UNL     1      25.798   5.852  49.635  1.00  0.00     0.048 A 
ENDBRANCH  13  15
ENDBRANCH   6  13
BRANCH   1  22
HETATM   22  C2  UNL     1      22.373  -1.050  53.577  1.00  0.00     0.066 C 
HETATM   23  C1  UNL     1      21.459  -0.809  54.493  1.00  0.00     0.191 C 
HETATM   24  F1  UNL     1      21.230   0.508  54.782  1.00  0.00    -0.219 F 
ENDBRANCH   1  22
TORSDOF 3
ENDMDL
MODEL 6
REMARK VINA RESULT:      -7.1      1.828      2.164
REMARK  3 active torsions:
REMARK  status: ('A' for Active; 'I' for Inactive)
REMARK    1  A    between atoms: C2_3  and  C3_4 
REMARK    2  A    between atoms: C7_9  and  N2_10 
REMARK    3  A    between atoms: N2_10  and  C8_11 
ROOT
HETATM    1  C3  UNL     1      27.081  -0.224  53.290  1.00  0.00     0.077 C 
HETATM    2  C4  UNL     1      27.001   0.829  52.493  1.00  0.00     0.030 C 
HETATM    3  C5  UNL     1      25.961   1.853  52.193  1.00  0.00     0.150 C 
HETATM    4  N1  UNL     1      24.635   1.238  52.137  1.00  0.00    -0.380 N 
HETATM    5  C6  UNL     1      24.025   0.435  53.156  1.00  0.00     0.129 A 
HETATM    6  C7  UNL     1      22.668   0.572  53.188  1.00  0.00     0.160 A 
HETATM    7  N3  UNL     1      22.051  -0.164  54.105  1.00  0.00    -0.222 NA
HETATM    8  C14 UNL     1      22.658  -0.992  54.964  1.00  0.00     0.238 A 
HETATM    9  N4  UNL     1      24.017  -1.128  54.936  1.00  0.00    -0.215 NA
HETATM   10  C15 UNL     1      24.718  -0.416  54.031  1.00  0.00     0.202 A 
HETATM   11  O1  UNL     1      26.082  -0.674  54.141  1.00  0.00    -0.290 OA
HETATM   12  H6  UNL     1      23.971   1.310  51.329  1.00  0.00     0.160 HD
ENDROOT
BRANCH   6  13
HETATM   13  N2  UNL     1      21.959   1.430  52.318  1.00  0.00    -0.339 N 
HETATM   14  H7  UNL     1      22.269   2.261  51.779  1.00  0.00     0.167 HD
BRANCH  13  15
HETATM   15  C8  UNL     1      20.577   1.333  52.006  1.00  0.00     0.035 A 
HETATM   16  C9  UNL     1      20.024   0.113  51.728  1.00  0.00     0.029 A 
HETATM   17  C10 UNL     1      18.709  -0.047  51.397  1.00  0.00     0.004 A 
HETATM   18  C11 UNL     1      17.842   1.040  51.323  1.00  0.00     0.019 A 
HETATM   19  C12 UNL     1      18.343   2.271  51.591  1.00  0.00     0.013 A 
HETATM   20 BR1  UNL     1      17.254   3.846  51.523  1.00  0.00    -0.051 Br
HETATM   21  C13 UNL     1      19.674   2.373  51.918  1.00  0.00     0.048 A 
ENDBRANCH  13  15
ENDBRANCH   6  13
BRANCH   1  22
HETATM   22  C2  UNL     1      28.337  -0.925  53.225  1.00  0.00     0.066 C 
HETATM   23  C1  UNL     1      29.198  -0.658  54.184  1.00  0.00     0.191 C 
HETATM   24  F1  UNL     1      28.791   0.251  55.122  1.00  0.00    -0.219 F 
ENDBRANCH   1  22
TORSDOF 3
ENDMDL
MODEL 7
REMARK VINA RESULT:      -7.0      5.586      7.166
REMARK  3 active torsions:
REMARK  status: ('A' for Active; 'I' for Inactive)
REMARK    1  A    between atoms: C2_3  and  C3_4 
REMARK    2  A    between atoms: C7_9  and  N2_10 
REMARK    3  A    between atoms: N2_10  and  C8_11 
ROOT
HETATM    1  C3  UNL     1      27.145   6.609  48.218  1.00  0.00     0.077 C 
HETATM    2  C4  UNL     1      27.589   5.401  48.525  1.00  0.00     0.030 C 
HETATM    3  C5  UNL     1      27.007   4.195  49.179  1.00  0.00     0.150 C 
HETATM    4  N1  UNL     1      26.156   4.581  50.305  1.00  0.00    -0.380 N 
HETATM    5  C6  UNL     1      25.055   5.497  50.265  1.00  0.00     0.129 A 
HETATM    6  C7  UNL     1      24.072   5.175  51.154  1.00  0.00     0.160 A 
HETATM    7  N3  UNL     1      23.034   6.004  51.169  1.00  0.00    -0.222 NA
HETATM    8  C14 UNL     1      22.903   7.086  50.393  1.00  0.00     0.238 A 
HETATM    9  N4  UNL     1      23.885   7.410  49.499  1.00  0.00    -0.215 NA
HETATM   10  C15 UNL     1      24.974   6.619  49.424  1.00  0.00     0.202 A 
HETATM   11  O1  UNL     1      25.869   7.092  48.468  1.00  0.00    -0.290 OA
HETATM   12  H6  UNL     1      26.259   4.228  51.287  1.00  0.00     0.160 HD
ENDROOT
BRANCH   6  13
HETATM   13  N2  UNL     1      24.139   4.046  52.000  1.00  0.00    -0.339 N 
HETATM   14  H7  UNL     1      24.698   3.866  52.855  1.00  0.00     0.167 HD
BRANCH  13  15
HETATM   15  C8  UNL     1      23.419   2.835  51.818  1.00  0.00     0.035 A 
HETATM   16  C9  UNL     1      22.855   2.551  50.605  1.00  0.00     0.029 A 
HETATM   17  C10 UNL     1      22.130   1.418  50.369  1.00  0.00     0.004 A 
HETATM   18  C11 UNL     1      21.922   0.471  51.369  1.00  0.00     0.019 A 
HETATM   19  C12 UNL     1      22.461   0.706  52.590  1.00  0.00     0.013 A 
HETATM   20 BR1  UNL     1      22.246  -0.519  54.047  1.00  0.00    -0.051 Br
HETATM   21  C13 UNL     1      23.181   1.864  52.769  1.00  0.00     0.048 A 
ENDBRANCH  13  15
ENDBRANCH   6  13
BRANCH   1  22
HETATM   22  C2  UNL     1      28.117   7.453  47.571  1.00  0.00     0.066 C 
HETATM   23  C1  UNL     1      28.642   8.404  48.314  1.00  0.00     0.191 C 
HETATM   24  F1  UNL     1      28.201   8.470  49.607  1.00  0.00    -0.219 F 
ENDBRANCH   1  22
TORSDOF 3
ENDMDL
MODEL 8
REMARK VINA RESULT:      -7.0      2.351      3.670
REMARK  3 active torsions:
REMARK  status: ('A' for Active; 'I' for Inactive)
REMARK    1  A    between atoms: C2_3  and  C3_4 
REMARK    2  A    between atoms: C7_9  and  N2_10 
REMARK    3  A    between atoms: N2_10  and  C8_11 
ROOT
HETATM    1  C3  UNL     1      27.115  -0.343  52.805  1.00  0.00     0.077 C 
HETATM    2  C4  UNL     1      26.040  -0.643  53.514  1.00  0.00     0.030 C 
HETATM    3  C5  UNL     1      24.628  -0.165  53.549  1.00  0.00     0.150 C 
HETATM    4  N1  UNL     1      24.572   1.286  53.375  1.00  0.00    -0.380 N 
HETATM    5  C6  UNL     1      25.148   2.038  52.299  1.00  0.00     0.129 A 
HETATM    6  C7  UNL     1      24.426   3.154  51.993  1.00  0.00     0.160 A 
HETATM    7  N3  UNL     1      24.926   3.895  51.012  1.00  0.00    -0.222 NA
HETATM    8  C14 UNL     1      26.048   3.621  50.334  1.00  0.00     0.238 A 
HETATM    9  N4  UNL     1      26.772   2.502  50.637  1.00  0.00    -0.215 NA
HETATM   10  C15 UNL     1      26.331   1.696  51.623  1.00  0.00     0.202 A 
HETATM   11  O1  UNL     1      27.184   0.609  51.799  1.00  0.00    -0.290 OA
HETATM   12  H6  UNL     1      24.100   1.954  54.031  1.00  0.00     0.160 HD
ENDROOT
BRANCH   6  13
HETATM   13  N2  UNL     1      23.231   3.504  52.660  1.00  0.00    -0.339 N 
HETATM   14  H7  UNL     1      23.070   3.937  53.589  1.00  0.00     0.167 HD
BRANCH  13  15
HETATM   15  C8  UNL     1      21.917   3.295  52.164  1.00  0.00     0.035 A 
HETATM   16  C9  UNL     1      21.223   4.335  51.607  1.00  0.00     0.029 A 
HETATM   17  C10 UNL     1      19.949   4.208  51.133  1.00  0.00     0.004 A 
HETATM   18  C11 UNL     1      19.271   2.993  51.191  1.00  0.00     0.019 A 
HETATM   19  C12 UNL     1      19.916   1.932  51.734  1.00  0.00     0.013 A 
HETATM   20 BR1  UNL     1      19.093   0.207  51.873  1.00  0.00    -0.051 Br
HETATM   21  C13 UNL     1      21.198   2.117  52.195  1.00  0.00     0.048 A 
ENDBRANCH  13  15
ENDBRANCH   6  13
BRANCH   1  22
HETATM   22  C2  UNL     1      28.288  -1.104  53.153  1.00  0.00     0.066 C 
HETATM   23  C1  UNL     1      29.145  -0.509  53.955  1.00  0.00     0.191 C 
HETATM   24  F1  UNL     1      28.814   0.756  54.358  1.00  0.00    -0.219 F 
ENDBRANCH   1  22
TORSDOF 3
ENDMDL
MODEL 9
REMARK VINA RESULT:      -6.9      9.277     12.160
REMARK  3 active torsions:
REMARK  status: ('A' for Active; 'I' for Inactive)
REMARK    1  A    between atoms: C2_3  and  C3_4 
REMARK    2  A    between atoms: C7_9  and  N2_10 
REMARK    3  A    between atoms: N2_10  and  C8_11 
ROOT
HETATM    1  C3  UNL     1      27.491   7.506  48.227  1.00  0.00     0.077 C 
HETATM    2  C4  UNL     1      27.359   6.191  48.169  1.00  0.00     0.030 C 
HETATM    3  C5  UNL     1      28.217   5.025  48.525  1.00  0.00     0.150 C 
HETATM    4  N1  UNL     1      29.609   5.280  48.157  1.00  0.00    -0.380 N 
HETATM    5  C6  UNL     1      30.402   6.406  48.555  1.00  0.00     0.129 A 
HETATM    6  C7  UNL     1      31.724   6.096  48.686  1.00  0.00     0.160 A 
HETATM    7  N3  UNL     1      32.506   7.110  49.038  1.00  0.00    -0.222 NA
HETATM    8  C14 UNL     1      32.089   8.362  49.263  1.00  0.00     0.238 A 
HETATM    9  N4  UNL     1      30.765   8.675  49.134  1.00  0.00    -0.215 NA
HETATM   10  C15 UNL     1      29.905   7.700  48.778  1.00  0.00     0.202 A 
HETATM   11  O1  UNL     1      28.604   8.190  48.693  1.00  0.00    -0.290 OA
HETATM   12  H6  UNL     1      30.195   4.660  47.547  1.00  0.00     0.160 HD
ENDROOT
BRANCH   6  13
HETATM   13  N2  UNL     1      32.236   4.797  48.472  1.00  0.00    -0.339 N 
HETATM   14  H7  UNL     1      32.105   3.916  49.005  1.00  0.00     0.167 HD
BRANCH  13  15
HETATM   15  C8  UNL     1      33.113   4.418  47.422  1.00  0.00     0.035 A 
HETATM   16  C9  UNL     1      34.241   3.695  47.702  1.00  0.00     0.029 A 
HETATM   17  C10 UNL     1      35.139   3.319  46.744  1.00  0.00     0.004 A 
HETATM   18  C11 UNL     1      34.954   3.655  45.406  1.00  0.00     0.019 A 
HETATM   19  C12 UNL     1      33.851   4.371  45.077  1.00  0.00     0.013 A 
HETATM   20 BR1  UNL     1      33.483   4.896  43.272  1.00  0.00    -0.051 Br
HETATM   21  C13 UNL     1      32.981   4.722  46.083  1.00  0.00     0.048 A 
ENDBRANCH  13  15
ENDBRANCH   6  13
BRANCH   1  22
HETATM   22  C2  UNL     1      26.347   8.239  47.749  1.00  0.00     0.066 C 
HETATM   23  C1  UNL     1      26.379   8.599  46.484  1.00  0.00     0.191 C 
HETATM   24  F1  UNL     1      27.493   8.230  45.781  1.00  0.00    -0.219 F 
ENDBRANCH   1  22
TORSDOF 3
ENDMDL
