MODEL 1
REMARK VINA RESULT:      -7.9      0.000      0.000
REMARK  5 active torsions:
REMARK  status: ('A' for Active; 'I' for Inactive)
REMARK    1  A    between atoms: C2_2  and  C3_3 
REMARK    2  A    between atoms: C3_3  and  C4_4 
REMARK    3  A    between atoms: C5_5  and  O1_6 
REMARK    4  A    between atoms: C9_10  and  N1_11 
REMARK    5  A    between atoms: N1_11  and  C10_12 
ROOT
HETATM    1  C4  UNL     1      24.896   0.605  52.735  1.00  0.00     0.093 C 
HETATM    2  C5  UNL     1      25.538  -0.064  54.030  1.00  0.00     0.075 C 
HETATM    3  C6  UNL     1      26.531   0.821  54.353  1.00  0.00     0.044 C 
HETATM    4  C7  UNL     1      25.691   2.117  54.060  1.00  0.00     0.098 C 
HETATM    5  C8  UNL     1      26.003   1.639  52.613  1.00  0.00    -0.017 C 
HETATM    6  C9  UNL     1      27.041   2.111  51.919  1.00  0.00     0.132 C 
HETATM    7  N2  UNL     1      28.246   2.482  52.722  1.00  0.00    -0.226 NA
HETATM    8  C16 UNL     1      28.748   1.683  53.694  1.00  0.00     0.209 C 
HETATM    9  N3  UNL     1      27.964   0.835  54.657  1.00  0.00    -0.352 N 
HETATM   10  H14 UNL     1      28.026   0.210  55.465  1.00  0.00     0.166 HD
ENDROOT
BRANCH   6  11
HETATM   11  N1  UNL     1      26.569   2.018  50.596  1.00  0.00    -0.341 N 
HETATM   12  H8  UNL     1      26.568   1.101  50.168  1.00  0.00     0.167 HD
BRANCH  11  13
HETATM   13  C10 UNL     1      26.134   3.232  49.984  1.00  0.00     0.035 A 
HETATM   14  C11 UNL     1      24.765   3.495  49.939  1.00  0.00     0.029 A 
HETATM   15  C12 UNL     1      24.346   4.685  49.337  1.00  0.00     0.004 A 
HETATM   16  C13 UNL     1      25.268   5.572  48.801  1.00  0.00     0.024 A 
HETATM   17  C14 UNL     1      26.626   5.318  48.841  1.00  0.00     0.036 A 
HETATM   18 CL1  UNL     1      27.856   6.377  48.192  1.00  0.00    -0.084 Cl
HETATM   19  C15 UNL     1      27.005   4.146  49.437  1.00  0.00     0.053 A 
ENDBRANCH  11  13
ENDBRANCH   6  11
BRANCH   1  20
HETATM   20  C3  UNL     1      23.639   1.219  53.017  1.00  0.00     0.082 C 
BRANCH  20  21
HETATM   21  C2  UNL     1      22.665   0.381  53.363  1.00  0.00    -0.175 C 
HETATM   22  C1  UNL     1      21.833  -0.431  54.008  1.00  0.00     0.091 C 
ENDBRANCH  20  21
ENDBRANCH   1  20
BRANCH   2  23
HETATM   23  O1  UNL     1      25.659  -1.080  55.041  1.00  0.00    -0.362 OA
HETATM   24  H5  UNL     1      26.530  -1.129  55.513  1.00  0.00     0.217 HD
ENDBRANCH   2  23
TORSDOF 5
ENDMDL
MODEL 2
REMARK VINA RESULT:      -7.8      1.670      2.012
REMARK  5 active torsions:
REMARK  status: ('A' for Active; 'I' for Inactive)
REMARK    1  A    between atoms: C2_2  and  C3_3 
REMARK    2  A    between atoms: C3_3  and  C4_4 
REMARK    3  A    between atoms: C5_5  and  O1_6 
REMARK    4  A    between atoms: C9_10  and  N1_11 
REMARK    5  A    between atoms: N1_11  and  C10_12 
ROOT
HETATM    1  C4  UNL     1      25.053  -0.267  53.403  1.00  0.00     0.093 C 
HETATM    2  C5  UNL     1      26.363  -1.128  53.119  1.00  0.00     0.075 C 
HETATM    3  C6  UNL     1      27.339  -0.375  53.713  1.00  0.00     0.044 C 
HETATM    4  C7  UNL     1      26.499   0.002  54.986  1.00  0.00     0.098 C 
HETATM    5  C8  UNL     1      25.842   0.925  53.921  1.00  0.00    -0.017 C 
HETATM    6  C9  UNL     1      26.220   2.193  53.751  1.00  0.00     0.132 C 
HETATM    7  N2  UNL     1      27.662   2.483  54.015  1.00  0.00    -0.226 NA
HETATM    8  C16 UNL     1      28.662   1.703  53.538  1.00  0.00     0.209 C 
HETATM    9  N3  UNL     1      28.650   0.204  53.405  1.00  0.00    -0.352 N 
HETATM   10  H14 UNL     1      29.202  -0.619  53.151  1.00  0.00     0.166 HD
ENDROOT
BRANCH   6  11
HETATM   11  N1  UNL     1      25.026   2.793  53.306  1.00  0.00    -0.341 N 
HETATM   12  H8  UNL     1      24.347   3.050  54.011  1.00  0.00     0.167 HD
BRANCH  11  13
HETATM   13  C10 UNL     1      24.889   2.981  51.898  1.00  0.00     0.035 A 
HETATM   14  C11 UNL     1      23.668   2.662  51.305  1.00  0.00     0.029 A 
HETATM   15  C12 UNL     1      23.542   2.848  49.925  1.00  0.00     0.004 A 
HETATM   16  C13 UNL     1      24.602   3.334  49.175  1.00  0.00     0.024 A 
HETATM   17  C14 UNL     1      25.815   3.652  49.755  1.00  0.00     0.036 A 
HETATM   18 CL1  UNL     1      27.201   4.270  48.888  1.00  0.00    -0.084 Cl
HETATM   19  C15 UNL     1      25.908   3.460  51.107  1.00  0.00     0.053 A 
ENDBRANCH  11  13
ENDBRANCH   6  11
BRANCH   1  20
HETATM   20  C3  UNL     1      24.245  -0.843  54.428  1.00  0.00     0.082 C 
BRANCH  20  21
HETATM   21  C2  UNL     1      22.932  -0.740  54.239  1.00  0.00    -0.175 C 
HETATM   22  C1  UNL     1      21.610  -0.869  54.286  1.00  0.00     0.091 C 
ENDBRANCH  20  21
ENDBRANCH   1  20
BRANCH   2  23
HETATM   23  O1  UNL     1      27.088  -2.249  52.584  1.00  0.00    -0.362 OA
HETATM   24  H5  UNL     1      26.673  -3.141  52.710  1.00  0.00     0.217 HD
ENDBRANCH   2  23
TORSDOF 5
ENDMDL
MODEL 3
REMARK VINA RESULT:      -7.8      2.662      4.562
REMARK  5 active torsions:
REMARK  status: ('A' for Active; 'I' for Inactive)
REMARK    1  A    between atoms: C2_2  and  C3_3 
REMARK    2  A    between atoms: C3_3  and  C4_4 
REMARK    3  A    between atoms: C5_5  and  O1_6 
REMARK    4  A    between atoms: C9_10  and  N1_11 
REMARK    5  A    between atoms: N1_11  and  C10_12 
ROOT
HETATM    1  C4  UNL     1      26.439   2.394  51.925  1.00  0.00     0.093 C 
HETATM    2  C5  UNL     1      27.732   1.966  52.752  1.00  0.00     0.075 C 
HETATM    3  C6  UNL     1      27.368   0.744  53.247  1.00  0.00     0.044 C 
HETATM    4  C7  UNL     1      26.660   0.244  51.936  1.00  0.00     0.098 C 
HETATM    5  C8  UNL     1      25.602   1.250  52.473  1.00  0.00    -0.017 C 
HETATM    6  C9  UNL     1      24.570   0.860  53.222  1.00  0.00     0.132 C 
HETATM    7  N2  UNL     1      24.820  -0.311  54.117  1.00  0.00    -0.226 NA
HETATM    8  C16 UNL     1      25.931  -0.416  54.885  1.00  0.00     0.209 C 
HETATM    9  N3  UNL     1      27.324   0.019  54.519  1.00  0.00    -0.352 N 
HETATM   10  H14 UNL     1      28.302   0.039  54.821  1.00  0.00     0.166 HD
ENDROOT
BRANCH   6  11
HETATM   11  N1  UNL     1      23.590   1.813  52.882  1.00  0.00    -0.341 N 
HETATM   12  H8  UNL     1      23.509   2.627  53.478  1.00  0.00     0.167 HD
BRANCH  11  13
HETATM   13  C10 UNL     1      22.805   1.538  51.722  1.00  0.00     0.035 A 
HETATM   14  C11 UNL     1      21.811   0.565  51.815  1.00  0.00     0.029 A 
HETATM   15  C12 UNL     1      21.046   0.300  50.674  1.00  0.00     0.004 A 
HETATM   16  C13 UNL     1      21.275   0.986  49.491  1.00  0.00     0.024 A 
HETATM   17  C14 UNL     1      22.259   1.952  49.392  1.00  0.00     0.036 A 
HETATM   18 CL1  UNL     1      22.615   2.864  47.944  1.00  0.00    -0.084 Cl
HETATM   19  C15 UNL     1      22.990   2.189  50.524  1.00  0.00     0.053 A 
ENDBRANCH  11  13
ENDBRANCH   6  11
BRANCH   1  20
HETATM   20  C3  UNL     1      26.638   2.267  50.517  1.00  0.00     0.082 C 
BRANCH  20  21
HETATM   21  C2  UNL     1      26.525   3.399  49.826  1.00  0.00    -0.175 C 
HETATM   22  C1  UNL     1      26.743   4.523  49.151  1.00  0.00     0.091 C 
ENDBRANCH  20  21
ENDBRANCH   1  20
BRANCH   2  23
HETATM   23  O1  UNL     1      29.061   2.152  53.270  1.00  0.00    -0.362 OA
HETATM   24  H5  UNL     1      29.667   1.370  53.214  1.00  0.00     0.217 HD
ENDBRANCH   2  23
TORSDOF 5
ENDMDL
MODEL 4
REMARK VINA RESULT:      -7.3      2.928      5.133
REMARK  5 active torsions:
REMARK  status: ('A' for Active; 'I' for Inactive)
REMARK    1  A    between atoms: C2_2  and  C3_3 
REMARK    2  A    between atoms: C3_3  and  C4_4 
REMARK    3  A    between atoms: C5_5  and  O1_6 
REMARK    4  A    between atoms: C9_10  and  N1_11 
REMARK    5  A    between atoms: N1_11  and  C10_12 
ROOT
HETATM    1  C4  UNL     1      23.427   2.224  52.916  1.00  0.00     0.093 C 
HETATM    2  C5  UNL     1      23.455   3.773  52.547  1.00  0.00     0.075 C 
HETATM    3  C6  UNL     1      24.189   3.784  51.392  1.00  0.00     0.044 C 
HETATM    4  C7  UNL     1      23.535   2.496  50.775  1.00  0.00     0.098 C 
HETATM    5  C8  UNL     1      24.456   1.864  51.856  1.00  0.00    -0.017 C 
HETATM    6  C9  UNL     1      25.682   1.421  51.573  1.00  0.00     0.132 C 
HETATM    7  N2  UNL     1      26.409   2.162  50.498  1.00  0.00    -0.226 NA
HETATM    8  C16 UNL     1      26.454   3.515  50.448  1.00  0.00     0.209 C 
HETATM    9  N3  UNL     1      25.346   4.467  50.807  1.00  0.00    -0.352 N 
HETATM   10  H14 UNL     1      25.062   5.450  50.836  1.00  0.00     0.166 HD
ENDROOT
BRANCH   6  11
HETATM   11  N1  UNL     1      25.835   0.379  52.508  1.00  0.00    -0.341 N 
HETATM   12  H8  UNL     1      25.003  -0.132  52.772  1.00  0.00     0.167 HD
BRANCH  11  13
HETATM   13  C10 UNL     1      27.157   0.144  52.995  1.00  0.00     0.035 A 
HETATM   14  C11 UNL     1      27.699  -1.131  52.840  1.00  0.00     0.029 A 
HETATM   15  C12 UNL     1      28.994  -1.354  53.320  1.00  0.00     0.004 A 
HETATM   16  C13 UNL     1      29.709  -0.336  53.931  1.00  0.00     0.024 A 
HETATM   17  C14 UNL     1      29.178   0.930  54.089  1.00  0.00     0.036 A 
HETATM   18 CL1  UNL     1      30.007   2.270  54.845  1.00  0.00    -0.084 Cl
HETATM   19  C15 UNL     1      27.910   1.118  53.609  1.00  0.00     0.053 A 
ENDBRANCH  11  13
ENDBRANCH   6  11
BRANCH   1  20
HETATM   20  C3  UNL     1      22.161   1.630  52.636  1.00  0.00     0.082 C 
BRANCH  20  21
HETATM   21  C2  UNL     1      21.815   0.629  53.442  1.00  0.00    -0.175 C 
HETATM   22  C1  UNL     1      21.211  -0.176  54.310  1.00  0.00     0.091 C 
ENDBRANCH  20  21
ENDBRANCH   1  20
BRANCH   2  23
HETATM   23  O1  UNL     1      23.143   5.163  52.755  1.00  0.00    -0.362 OA
HETATM   24  H5  UNL     1      23.778   5.818  52.365  1.00  0.00     0.217 HD
ENDBRANCH   2  23
TORSDOF 5
ENDMDL
MODEL 5
REMARK VINA RESULT:      -7.3      3.265      5.477
REMARK  5 active torsions:
REMARK  status: ('A' for Active; 'I' for Inactive)
REMARK    1  A    between atoms: C2_2  and  C3_3 
REMARK    2  A    between atoms: C3_3  and  C4_4 
REMARK    3  A    between atoms: C5_5  and  O1_6 
REMARK    4  A    between atoms: C9_10  and  N1_11 
REMARK    5  A    between atoms: N1_11  and  C10_12 
ROOT
HETATM    1  C4  UNL     1      23.573   2.893  52.534  1.00  0.00     0.093 C 
HETATM    2  C5  UNL     1      23.020   3.956  51.484  1.00  0.00     0.075 C 
HETATM    3  C6  UNL     1      23.904   3.827  50.447  1.00  0.00     0.044 C 
HETATM    4  C7  UNL     1      23.999   2.260  50.512  1.00  0.00     0.098 C 
HETATM    5  C8  UNL     1      24.853   2.653  51.751  1.00  0.00    -0.017 C 
HETATM    6  C9  UNL     1      26.181   2.767  51.689  1.00  0.00     0.132 C 
HETATM    7  N2  UNL     1      26.734   3.235  50.382  1.00  0.00    -0.226 NA
HETATM    8  C16 UNL     1      26.214   4.287  49.705  1.00  0.00     0.209 C 
HETATM    9  N3  UNL     1      24.760   4.656  49.594  1.00  0.00    -0.352 N 
HETATM   10  H14 UNL     1      24.089   5.299  49.165  1.00  0.00     0.166 HD
ENDROOT
BRANCH   6  11
HETATM   11  N1  UNL     1      26.560   2.420  53.000  1.00  0.00    -0.341 N 
HETATM   12  H8  UNL     1      26.182   2.979  53.755  1.00  0.00     0.167 HD
BRANCH  11  13
HETATM   13  C10 UNL     1      27.446   1.309  53.138  1.00  0.00     0.035 A 
HETATM   14  C11 UNL     1      28.737   1.549  53.606  1.00  0.00     0.029 A 
HETATM   15  C12 UNL     1      29.600   0.456  53.736  1.00  0.00     0.004 A 
HETATM   16  C13 UNL     1      29.178  -0.824  53.409  1.00  0.00     0.024 A 
HETATM   17  C14 UNL     1      27.900  -1.069  52.945  1.00  0.00     0.036 A 
HETATM   18 CL1  UNL     1      27.285  -2.647  52.510  1.00  0.00    -0.084 Cl
HETATM   19  C15 UNL     1      27.079   0.020  52.827  1.00  0.00     0.053 A 
ENDBRANCH  11  13
ENDBRANCH   6  11
BRANCH   1  20
HETATM   20  C3  UNL     1      22.764   1.718  52.582  1.00  0.00     0.082 C 
BRANCH  20  21
HETATM   21  C2  UNL     1      23.240   0.734  53.341  1.00  0.00    -0.175 C 
HETATM   22  C1  UNL     1      23.635  -0.434  53.837  1.00  0.00     0.091 C 
ENDBRANCH  20  21
ENDBRANCH   1  20
BRANCH   2  23
HETATM   23  O1  UNL     1      22.116   4.976  51.023  1.00  0.00    -0.362 OA
HETATM   24  H5  UNL     1      21.677   5.522  51.724  1.00  0.00     0.217 HD
ENDBRANCH   2  23
TORSDOF 5
ENDMDL
MODEL 6
REMARK VINA RESULT:      -7.3      2.957      4.583
REMARK  5 active torsions:
REMARK  status: ('A' for Active; 'I' for Inactive)
REMARK    1  A    between atoms: C2_2  and  C3_3 
REMARK    2  A    between atoms: C3_3  and  C4_4 
REMARK    3  A    between atoms: C5_5  and  O1_6 
REMARK    4  A    between atoms: C9_10  and  N1_11 
REMARK    5  A    between atoms: N1_11  and  C10_12 
ROOT
HETATM    1  C4  UNL     1      24.004  -0.029  53.955  1.00  0.00     0.093 C 
HETATM    2  C5  UNL     1      23.238  -1.083  54.871  1.00  0.00     0.075 C 
HETATM    3  C6  UNL     1      22.042  -1.220  54.219  1.00  0.00     0.044 C 
HETATM    4  C7  UNL     1      22.650  -1.228  52.770  1.00  0.00     0.098 C 
HETATM    5  C8  UNL     1      22.768   0.281  53.127  1.00  0.00    -0.017 C 
HETATM    6  C9  UNL     1      21.837   1.169  52.771  1.00  0.00     0.132 C 
HETATM    7  N2  UNL     1      20.435   0.654  52.714  1.00  0.00    -0.226 NA
HETATM    8  C16 UNL     1      19.900  -0.111  53.695  1.00  0.00     0.209 C 
HETATM    9  N3  UNL     1      20.604  -1.172  54.496  1.00  0.00    -0.352 N 
HETATM   10  H14 UNL     1      20.491  -1.897  55.210  1.00  0.00     0.166 HD
ENDROOT
BRANCH   6  11
HETATM   11  N1  UNL     1      22.600   2.344  52.626  1.00  0.00    -0.341 N 
HETATM   12  H8  UNL     1      22.777   2.886  53.462  1.00  0.00     0.167 HD
BRANCH  11  13
HETATM   13  C10 UNL     1      23.052   2.656  51.309  1.00  0.00     0.035 A 
HETATM   14  C11 UNL     1      22.128   2.608  50.266  1.00  0.00     0.029 A 
HETATM   15  C12 UNL     1      22.578   2.914  48.977  1.00  0.00     0.004 A 
HETATM   16  C13 UNL     1      23.904   3.252  48.751  1.00  0.00     0.024 A 
HETATM   17  C14 UNL     1      24.825   3.301  49.780  1.00  0.00     0.036 A 
HETATM   18 CL1  UNL     1      26.512   3.717  49.585  1.00  0.00    -0.084 Cl
HETATM   19  C15 UNL     1      24.355   2.997  51.029  1.00  0.00     0.053 A 
ENDBRANCH  11  13
ENDBRANCH   6  11
BRANCH   1  20
HETATM   20  C3  UNL     1      25.019  -0.646  53.164  1.00  0.00     0.082 C 
BRANCH  20  21
HETATM   21  C2  UNL     1      25.932   0.185  52.666  1.00  0.00    -0.175 C 
HETATM   22  C1  UNL     1      27.009   0.733  52.114  1.00  0.00     0.091 C 
ENDBRANCH  20  21
ENDBRANCH   1  20
BRANCH   2  23
HETATM   23  O1  UNL     1      23.102  -1.963  56.001  1.00  0.00    -0.362 OA
HETATM   24  H5  UNL     1      23.103  -2.935  55.804  1.00  0.00     0.217 HD
ENDBRANCH   2  23
TORSDOF 5
ENDMDL
MODEL 7
REMARK VINA RESULT:      -7.1      4.075      6.431
REMARK  5 active torsions:
REMARK  status: ('A' for Active; 'I' for Inactive)
REMARK    1  A    between atoms: C2_2  and  C3_3 
REMARK    2  A    between atoms: C3_3  and  C4_4 
REMARK    3  A    between atoms: C5_5  and  O1_6 
REMARK    4  A    between atoms: C9_10  and  N1_11 
REMARK    5  A    between atoms: N1_11  and  C10_12 
ROOT
HETATM    1  C4  UNL     1      25.159   1.119  51.787  1.00  0.00     0.093 C 
HETATM    2  C5  UNL     1      26.012   2.441  51.543  1.00  0.00     0.075 C 
HETATM    3  C6  UNL     1      25.122   3.426  51.871  1.00  0.00     0.044 C 
HETATM    4  C7  UNL     1      24.526   2.692  53.126  1.00  0.00     0.098 C 
HETATM    5  C8  UNL     1      23.861   1.886  51.975  1.00  0.00    -0.017 C 
HETATM    6  C9  UNL     1      22.640   2.176  51.521  1.00  0.00     0.132 C 
HETATM    7  N2  UNL     1      22.252   3.618  51.570  1.00  0.00    -0.226 NA
HETATM    8  C16 UNL     1      23.077   4.609  51.154  1.00  0.00     0.209 C 
HETATM    9  N3  UNL     1      24.571   4.667  51.320  1.00  0.00    -0.352 N 
HETATM   10  H14 UNL     1      25.408   5.238  51.176  1.00  0.00     0.166 HD
ENDROOT
BRANCH   6  11
HETATM   11  N1  UNL     1      22.184   0.913  51.095  1.00  0.00    -0.341 N 
HETATM   12  H8  UNL     1      22.534   0.569  50.210  1.00  0.00     0.167 HD
BRANCH  11  13
HETATM   13  C10 UNL     1      21.269   0.238  51.958  1.00  0.00     0.035 A 
HETATM   14  C11 UNL     1      21.785  -0.475  53.039  1.00  0.00     0.029 A 
HETATM   15  C12 UNL     1      20.883  -1.136  53.879  1.00  0.00     0.004 A 
HETATM   16  C13 UNL     1      19.519  -1.080  53.638  1.00  0.00     0.024 A 
HETATM   17  C14 UNL     1      19.000  -0.375  52.568  1.00  0.00     0.036 A 
HETATM   18 CL1  UNL     1      17.297  -0.252  52.191  1.00  0.00    -0.084 Cl
HETATM   19  C15 UNL     1      19.907   0.260  51.765  1.00  0.00     0.053 A 
ENDBRANCH  11  13
ENDBRANCH   6  11
BRANCH   1  20
HETATM   20  C3  UNL     1      25.544   0.446  52.985  1.00  0.00     0.082 C 
BRANCH  20  21
HETATM   21  C2  UNL     1      26.359  -0.593  52.813  1.00  0.00    -0.175 C 
HETATM   22  C1  UNL     1      26.888  -1.795  52.609  1.00  0.00     0.091 C 
ENDBRANCH  20  21
ENDBRANCH   1  20
BRANCH   2  23
HETATM   23  O1  UNL     1      27.192   3.172  51.165  1.00  0.00    -0.362 OA
HETATM   24  H5  UNL     1      27.369   3.247  50.192  1.00  0.00     0.217 HD
ENDBRANCH   2  23
TORSDOF 5
ENDMDL
MODEL 8
REMARK VINA RESULT:      -7.0      3.258      5.465
REMARK  5 active torsions:
REMARK  status: ('A' for Active; 'I' for Inactive)
REMARK    1  A    between atoms: C2_2  and  C3_3 
REMARK    2  A    between atoms: C3_3  and  C4_4 
REMARK    3  A    between atoms: C5_5  and  O1_6 
REMARK    4  A    between atoms: C9_10  and  N1_11 
REMARK    5  A    between atoms: N1_11  and  C10_12 
ROOT
HETATM    1  C4  UNL     1      23.371   3.353  51.627  1.00  0.00     0.093 C 
HETATM    2  C5  UNL     1      23.093   4.525  50.584  1.00  0.00     0.075 C 
HETATM    3  C6  UNL     1      24.110   4.361  49.684  1.00  0.00     0.044 C 
HETATM    4  C7  UNL     1      24.042   2.791  49.651  1.00  0.00     0.098 C 
HETATM    5  C8  UNL     1      24.727   3.023  51.027  1.00  0.00    -0.017 C 
HETATM    6  C9  UNL     1      26.054   2.998  51.171  1.00  0.00     0.132 C 
HETATM    7  N2  UNL     1      26.845   3.476  49.997  1.00  0.00    -0.226 NA
HETATM    8  C16 UNL     1      26.540   4.613  49.327  1.00  0.00     0.209 C 
HETATM    9  N3  UNL     1      25.163   5.141  49.029  1.00  0.00    -0.352 N 
HETATM   10  H14 UNL     1      24.632   5.874  48.551  1.00  0.00     0.166 HD
ENDROOT
BRANCH   6  11
HETATM   11  N1  UNL     1      26.190   2.540  52.496  1.00  0.00    -0.341 N 
HETATM   12  H8  UNL     1      25.943   3.185  53.236  1.00  0.00     0.167 HD
BRANCH  11  13
HETATM   13  C10 UNL     1      26.666   1.205  52.667  1.00  0.00     0.035 A 
HETATM   14  C11 UNL     1      25.768   0.156  52.475  1.00  0.00     0.029 A 
HETATM   15  C12 UNL     1      26.240  -1.149  52.646  1.00  0.00     0.004 A 
HETATM   16  C13 UNL     1      27.560  -1.385  52.997  1.00  0.00     0.024 A 
HETATM   17  C14 UNL     1      28.456  -0.351  53.190  1.00  0.00     0.036 A 
HETATM   18 CL1  UNL     1      30.135  -0.557  53.632  1.00  0.00    -0.084 Cl
HETATM   19  C15 UNL     1      27.965   0.915  53.015  1.00  0.00     0.053 A 
ENDBRANCH  11  13
ENDBRANCH   6  11
BRANCH   1  20
HETATM   20  C3  UNL     1      22.454   2.270  51.471  1.00  0.00     0.082 C 
BRANCH  20  21
HETATM   21  C2  UNL     1      22.240   1.548  52.568  1.00  0.00    -0.175 C 
HETATM   22  C1  UNL     1      22.235   0.618  53.517  1.00  0.00     0.091 C 
ENDBRANCH  20  21
ENDBRANCH   1  20
BRANCH   2  23
HETATM   23  O1  UNL     1      22.374   5.660  50.068  1.00  0.00    -0.362 OA
HETATM   24  H5  UNL     1      22.771   6.108  49.278  1.00  0.00     0.217 HD
ENDBRANCH   2  23
TORSDOF 5
ENDMDL
MODEL 9
REMARK VINA RESULT:      -7.0      3.977      6.284
REMARK  5 active torsions:
REMARK  status: ('A' for Active; 'I' for Inactive)
REMARK    1  A    between atoms: C2_2  and  C3_3 
REMARK    2  A    between atoms: C3_3  and  C4_4 
REMARK    3  A    between atoms: C5_5  and  O1_6 
REMARK    4  A    between atoms: C9_10  and  N1_11 
REMARK    5  A    between atoms: N1_11  and  C10_12 
ROOT
HETATM    1  C4  UNL     1      24.979   1.284  51.563  1.00  0.00     0.093 C 
HETATM    2  C5  UNL     1      25.919   2.559  51.395  1.00  0.00     0.075 C 
HETATM    3  C6  UNL     1      25.073   3.587  51.711  1.00  0.00     0.044 C 
HETATM    4  C7  UNL     1      24.379   2.858  52.917  1.00  0.00     0.098 C 
HETATM    5  C8  UNL     1      23.721   2.123  51.716  1.00  0.00    -0.017 C 
HETATM    6  C9  UNL     1      22.541   2.496  51.216  1.00  0.00     0.132 C 
HETATM    7  N2  UNL     1      22.237   3.958  51.289  1.00  0.00    -0.226 NA
HETATM    8  C16 UNL     1      23.136   4.908  50.938  1.00  0.00     0.209 C 
HETATM    9  N3  UNL     1      24.622   4.872  51.171  1.00  0.00    -0.352 N 
HETATM   10  H14 UNL     1      25.496   5.395  51.081  1.00  0.00     0.166 HD
ENDROOT
BRANCH   6  11
HETATM   11  N1  UNL     1      22.032   1.274  50.735  1.00  0.00    -0.341 N 
HETATM   12  H8  UNL     1      22.340   0.973  49.819  1.00  0.00     0.167 HD
BRANCH  11  13
HETATM   13  C10 UNL     1      21.128   0.575  51.591  1.00  0.00     0.035 A 
HETATM   14  C11 UNL     1      19.765   0.647  51.308  1.00  0.00     0.029 A 
HETATM   15  C12 UNL     1      18.885  -0.039  52.152  1.00  0.00     0.004 A 
HETATM   16  C13 UNL     1      19.360  -0.764  53.233  1.00  0.00     0.024 A 
HETATM   17  C14 UNL     1      20.710  -0.839  53.520  1.00  0.00     0.036 A 
HETATM   18 CL1  UNL     1      21.395  -1.729  54.860  1.00  0.00    -0.084 Cl
HETATM   19  C15 UNL     1      21.546  -0.159  52.677  1.00  0.00     0.053 A 
ENDBRANCH  11  13
ENDBRANCH   6  11
BRANCH   1  20
HETATM   20  C3  UNL     1      25.269   0.559  52.757  1.00  0.00     0.082 C 
BRANCH  20  21
HETATM   21  C2  UNL     1      26.319  -0.256  52.683  1.00  0.00    -0.175 C 
HETATM   22  C1  UNL     1      27.291  -1.130  52.925  1.00  0.00     0.091 C 
ENDBRANCH  20  21
ENDBRANCH   1  20
BRANCH   2  23
HETATM   23  O1  UNL     1      27.155   3.228  51.090  1.00  0.00    -0.362 OA
HETATM   24  H5  UNL     1      27.474   3.888  51.759  1.00  0.00     0.217 HD
ENDBRANCH   2  23
TORSDOF 5
ENDMDL
