MODEL 1
REMARK VINA RESULT:      -8.3      0.000      0.000
REMARK  6 active torsions:
REMARK  status: ('A' for Active; 'I' for Inactive)
REMARK    1  A    between atoms: O1_2  and  C2_3 
REMARK    2  A    between atoms: C5_6  and  O2_7 
REMARK    3  A    between atoms: C7_9  and  C8_10 
REMARK    4  A    between atoms: C8_10  and  C9_11 
REMARK    5  A    between atoms: C13_16  and  N2_17 
REMARK    6  A    between atoms: C14_19  and  C15_20 
ROOT
HETATM    1  C9  UNL     1      22.154  -0.085  53.571  1.00  0.00     0.010 C 
HETATM    2  C10 UNL     1      22.782   0.763  52.765  1.00  0.00     0.035 C 
HETATM    3  C11 UNL     1      24.221   0.753  52.984  1.00  0.00    -0.011 C 
HETATM    4  C12 UNL     1      25.046   1.694  52.593  1.00  0.00     0.088 C 
HETATM    5  N1  UNL     1      24.643   2.863  51.894  1.00  0.00    -0.067 NA
HETATM    6  C13 UNL     1      25.682   3.417  51.329  1.00  0.00     0.695 C 
HETATM    7  N3  UNL     1      26.852   2.657  51.609  1.00  0.00    -0.211 N 
HETATM    8  C14 UNL     1      26.519   1.804  52.753  1.00  0.00     0.177 C 
HETATM    9  C18 UNL     1      24.441  -0.517  53.712  1.00  0.00     0.160 C 
HETATM   10  N4  UNL     1      23.140  -0.705  54.370  1.00  0.00    -0.389 N 
HETATM   11  H14 UNL     1      27.741   2.759  51.043  1.00  0.00     0.178 HD
HETATM   12  H22 UNL     1      23.042  -1.230  55.290  1.00  0.00     0.159 HD
ENDROOT
BRANCH   1  13
HETATM   13  C8  UNL     1      20.730  -0.468  53.769  1.00  0.00     0.098 C 
BRANCH  13  14
HETATM   14  C7  UNL     1      19.882  -0.136  52.593  1.00  0.00    -0.017 A 
HETATM   15  C5  UNL     1      18.540  -0.453  52.559  1.00  0.00     0.075 A 
HETATM   16  C4  UNL     1      17.805  -0.121  51.439  1.00  0.00     0.040 A 
HETATM   17  C3  UNL     1      18.324   0.515  50.331  1.00  0.00     0.039 A 
HETATM   18  C2  UNL     1      19.687   0.828  50.386  1.00  0.00     0.068 A 
HETATM   19  C19 UNL     1      20.432   0.501  51.500  1.00  0.00     0.047 A 
BRANCH  15  20
HETATM   20  O2  UNL     1      17.985  -1.095  53.658  1.00  0.00    -0.355 OA
HETATM   21  C6  UNL     1      17.681  -2.483  53.533  1.00  0.00     0.210 C 
ENDBRANCH  15  20
BRANCH  18  22
HETATM   22  O1  UNL     1      20.267   1.473  49.292  1.00  0.00    -0.356 OA
HETATM   23  C1  UNL     1      21.549   1.060  48.864  1.00  0.00     0.210 C 
ENDBRANCH  18  22
ENDBRANCH  13  14
ENDBRANCH   1  13
BRANCH   8  24
HETATM   24  C15 UNL     1      27.186   0.501  52.683  1.00  0.00     0.019 C 
HETATM   25  C16 UNL     1      28.311   0.317  53.362  1.00  0.00    -0.017 C 
HETATM   26  C17 UNL     1      29.042   1.278  54.231  1.00  0.00     0.056 C 
HETATM   27 BR1  UNL     1      29.296  -1.329  53.372  1.00  0.00    -0.056 Br
ENDBRANCH   8  24
BRANCH   6  28
HETATM   28  N2  UNL     1      25.616   4.623  50.541  1.00  0.00    -0.233 N 
HETATM   29  H12 UNL     1      25.406   4.617  49.510  1.00  0.00     0.174 HD
HETATM   30  H13 UNL     1      25.789   5.503  51.051  1.00  0.00     0.174 HD
ENDBRANCH   6  28
TORSDOF 6
ENDMDL
MODEL 2
REMARK VINA RESULT:      -8.3      3.361      6.705
REMARK  6 active torsions:
REMARK  status: ('A' for Active; 'I' for Inactive)
REMARK    1  A    between atoms: O1_2  and  C2_3 
REMARK    2  A    between atoms: C5_6  and  O2_7 
REMARK    3  A    between atoms: C7_9  and  C8_10 
REMARK    4  A    between atoms: C8_10  and  C9_11 
REMARK    5  A    between atoms: C13_16  and  N2_17 
REMARK    6  A    between atoms: C14_19  and  C15_20 
ROOT
HETATM    1  C9  UNL     1      24.065   3.051  50.453  1.00  0.00     0.010 C 
HETATM    2  C10 UNL     1      23.352   2.420  51.379  1.00  0.00     0.035 C 
HETATM    3  C11 UNL     1      24.154   1.455  52.116  1.00  0.00    -0.011 C 
HETATM    4  C12 UNL     1      23.670   0.471  52.836  1.00  0.00     0.088 C 
HETATM    5  N1  UNL     1      22.284   0.211  52.996  1.00  0.00    -0.067 NA
HETATM    6  C13 UNL     1      22.098  -0.571  54.025  1.00  0.00     0.695 C 
HETATM    7  N3  UNL     1      23.349  -0.887  54.627  1.00  0.00    -0.211 N 
HETATM    8  C14 UNL     1      24.373  -0.572  53.628  1.00  0.00     0.177 C 
HETATM    9  C18 UNL     1      25.542   1.883  51.830  1.00  0.00     0.160 C 
HETATM   10  N4  UNL     1      25.381   2.540  50.524  1.00  0.00    -0.389 N 
HETATM   11  H14 UNL     1      23.421  -1.272  55.612  1.00  0.00     0.178 HD
HETATM   12  H22 UNL     1      26.168   2.581  49.811  1.00  0.00     0.159 HD
ENDROOT
BRANCH   1  13
HETATM   13  C8  UNL     1      23.762   4.102  49.446  1.00  0.00     0.098 C 
BRANCH  13  14
HETATM   14  C7  UNL     1      24.537   5.351  49.675  1.00  0.00    -0.017 A 
HETATM   15  C5  UNL     1      24.078   6.341  50.517  1.00  0.00     0.075 A 
HETATM   16  C4  UNL     1      24.841   7.478  50.688  1.00  0.00     0.040 A 
HETATM   17  C3  UNL     1      26.052   7.701  50.066  1.00  0.00     0.039 A 
HETATM   18  C2  UNL     1      26.500   6.683  49.216  1.00  0.00     0.068 A 
HETATM   19  C19 UNL     1      25.746   5.542  49.037  1.00  0.00     0.047 A 
BRANCH  15  20
HETATM   20  O2  UNL     1      22.862   6.149  51.160  1.00  0.00    -0.355 OA
HETATM   21  C6  UNL     1      21.778   7.005  50.799  1.00  0.00     0.210 C 
ENDBRANCH  15  20
BRANCH  18  22
HETATM   22  O1  UNL     1      27.720   6.854  48.559  1.00  0.00    -0.356 OA
HETATM   23  C1  UNL     1      28.505   5.712  48.279  1.00  0.00     0.210 C 
ENDBRANCH  18  22
ENDBRANCH  13  14
ENDBRANCH   1  13
BRANCH   8  24
HETATM   24  C15 UNL     1      25.606  -0.070  54.240  1.00  0.00     0.019 C 
HETATM   25  C16 UNL     1      26.773  -0.527  53.805  1.00  0.00    -0.017 C 
HETATM   26  C17 UNL     1      27.042  -1.523  52.733  1.00  0.00     0.056 C 
HETATM   27 BR1  UNL     1      28.469   0.035  54.503  1.00  0.00    -0.056 Br
ENDBRANCH   8  24
BRANCH   6  28
HETATM   28  N2  UNL     1      20.802  -1.026  54.462  1.00  0.00    -0.233 N 
HETATM   29  H12 UNL     1      20.004  -1.191  53.796  1.00  0.00     0.174 HD
HETATM   30  H13 UNL     1      20.700  -1.185  55.476  1.00  0.00     0.174 HD
ENDBRANCH   6  28
TORSDOF 6
ENDMDL
MODEL 3
REMARK VINA RESULT:      -8.2      6.101     10.474
REMARK  6 active torsions:
REMARK  status: ('A' for Active; 'I' for Inactive)
REMARK    1  A    between atoms: O1_2  and  C2_3 
REMARK    2  A    between atoms: C5_6  and  O2_7 
REMARK    3  A    between atoms: C7_9  and  C8_10 
REMARK    4  A    between atoms: C8_10  and  C9_11 
REMARK    5  A    between atoms: C13_16  and  N2_17 
REMARK    6  A    between atoms: C14_19  and  C15_20 
ROOT
HETATM    1  C9  UNL     1      27.512   5.999  48.340  1.00  0.00     0.010 C 
HETATM    2  C10 UNL     1      27.444   4.798  48.900  1.00  0.00     0.035 C 
HETATM    3  C11 UNL     1      26.158   4.574  49.546  1.00  0.00    -0.011 C 
HETATM    4  C12 UNL     1      25.922   3.649  50.446  1.00  0.00     0.088 C 
HETATM    5  N1  UNL     1      26.897   2.729  50.915  1.00  0.00    -0.067 NA
HETATM    6  C13 UNL     1      26.307   1.726  51.507  1.00  0.00     0.695 C 
HETATM    7  N3  UNL     1      24.895   1.903  51.473  1.00  0.00    -0.211 N 
HETATM    8  C14 UNL     1      24.669   3.320  51.175  1.00  0.00     0.177 C 
HETATM    9  C18 UNL     1      25.292   5.609  48.938  1.00  0.00     0.160 C 
HETATM   10  N4  UNL     1      26.277   6.641  48.582  1.00  0.00    -0.389 N 
HETATM   11  H14 UNL     1      24.221   1.104  51.643  1.00  0.00     0.178 HD
HETATM   12  H22 UNL     1      26.023   7.673  48.538  1.00  0.00     0.159 HD
ENDROOT
BRANCH   1  13
HETATM   13  C8  UNL     1      28.556   6.729  47.572  1.00  0.00     0.098 C 
BRANCH  13  14
HETATM   14  C7  UNL     1      29.927   6.480  48.096  1.00  0.00    -0.017 A 
HETATM   15  C5  UNL     1      30.555   7.382  48.929  1.00  0.00     0.075 A 
HETATM   16  C4  UNL     1      31.827   7.097  49.381  1.00  0.00     0.040 A 
HETATM   17  C3  UNL     1      32.529   5.955  49.054  1.00  0.00     0.039 A 
HETATM   18  C2  UNL     1      31.873   5.054  48.209  1.00  0.00     0.068 A 
HETATM   19  C19 UNL     1      30.601   5.328  47.750  1.00  0.00     0.047 A 
BRANCH  15  20
HETATM   20  O2  UNL     1      29.876   8.542  49.278  1.00  0.00    -0.355 OA
HETATM   21  C6  UNL     1      30.450   9.790  48.886  1.00  0.00     0.210 C 
ENDBRANCH  15  20
BRANCH  18  22
HETATM   22  O1  UNL     1      32.536   3.880  47.844  1.00  0.00    -0.356 OA
HETATM   23  C1  UNL     1      32.143   3.222  46.656  1.00  0.00     0.210 C 
ENDBRANCH  18  22
ENDBRANCH  13  14
ENDBRANCH   1  13
BRANCH   8  24
HETATM   24  C15 UNL     1      23.475   3.528  50.352  1.00  0.00     0.019 C 
HETATM   25  C16 UNL     1      22.444   4.184  50.869  1.00  0.00    -0.017 C 
HETATM   26  C17 UNL     1      22.302   4.775  52.227  1.00  0.00     0.056 C 
HETATM   27 BR1  UNL     1      20.816   4.536  49.918  1.00  0.00    -0.056 Br
ENDBRANCH   8  24
BRANCH   6  28
HETATM   28  N2  UNL     1      27.014   0.616  52.096  1.00  0.00    -0.233 N 
HETATM   29  H12 UNL     1      26.595   0.013  52.850  1.00  0.00     0.174 HD
HETATM   30  H13 UNL     1      27.963   0.443  51.732  1.00  0.00     0.174 HD
ENDBRANCH   6  28
TORSDOF 6
ENDMDL
MODEL 4
REMARK VINA RESULT:      -8.1      5.967     10.291
REMARK  6 active torsions:
REMARK  status: ('A' for Active; 'I' for Inactive)
REMARK    1  A    between atoms: O1_2  and  C2_3 
REMARK    2  A    between atoms: C5_6  and  O2_7 
REMARK    3  A    between atoms: C7_9  and  C8_10 
REMARK    4  A    between atoms: C8_10  and  C9_11 
REMARK    5  A    between atoms: C13_16  and  N2_17 
REMARK    6  A    between atoms: C14_19  and  C15_20 
ROOT
HETATM    1  C9  UNL     1      27.442   5.924  48.388  1.00  0.00     0.010 C 
HETATM    2  C10 UNL     1      26.399   6.320  49.106  1.00  0.00     0.035 C 
HETATM    3  C11 UNL     1      25.755   5.205  49.785  1.00  0.00    -0.011 C 
HETATM    4  C12 UNL     1      24.539   5.228  50.278  1.00  0.00     0.088 C 
HETATM    5  N1  UNL     1      23.678   6.355  50.217  1.00  0.00    -0.067 NA
HETATM    6  C13 UNL     1      22.710   6.216  51.082  1.00  0.00     0.695 C 
HETATM    7  N3  UNL     1      22.857   4.987  51.784  1.00  0.00    -0.211 N 
HETATM    8  C14 UNL     1      23.773   4.169  50.986  1.00  0.00     0.177 C 
HETATM    9  C18 UNL     1      26.789   4.147  49.749  1.00  0.00     0.160 C 
HETATM   10  N4  UNL     1      27.550   4.525  48.549  1.00  0.00    -0.389 N 
HETATM   11  H14 UNL     1      22.359   4.796  52.700  1.00  0.00     0.178 HD
HETATM   12  H22 UNL     1      28.066   3.807  47.957  1.00  0.00     0.159 HD
ENDROOT
BRANCH   1  13
HETATM   13  C8  UNL     1      28.431   6.620  47.522  1.00  0.00     0.098 C 
BRANCH  13  14
HETATM   14  C7  UNL     1      29.610   7.114  48.285  1.00  0.00    -0.017 A 
HETATM   15  C5  UNL     1      30.666   6.284  48.597  1.00  0.00     0.075 A 
HETATM   16  C4  UNL     1      31.730   6.798  49.309  1.00  0.00     0.040 A 
HETATM   17  C3  UNL     1      31.815   8.106  49.740  1.00  0.00     0.039 A 
HETATM   18  C2  UNL     1      30.734   8.931  49.412  1.00  0.00     0.068 A 
HETATM   19  C19 UNL     1      29.664   8.428  48.701  1.00  0.00     0.047 A 
BRANCH  15  20
HETATM   20  O2  UNL     1      30.612   4.961  48.178  1.00  0.00    -0.355 OA
HETATM   21  C6  UNL     1      31.713   4.459  47.422  1.00  0.00     0.210 C 
ENDBRANCH  15  20
BRANCH  18  22
HETATM   22  O1  UNL     1      30.766  10.265  49.823  1.00  0.00    -0.356 OA
HETATM   23  C1  UNL     1      30.705  11.278  48.839  1.00  0.00     0.210 C 
ENDBRANCH  18  22
ENDBRANCH  13  14
ENDBRANCH   1  13
BRANCH   8  24
HETATM   24  C15 UNL     1      24.630   3.324  51.821  1.00  0.00     0.019 C 
HETATM   25  C16 UNL     1      24.261   2.073  52.065  1.00  0.00    -0.017 C 
HETATM   26  C17 UNL     1      23.045   1.354  51.598  1.00  0.00     0.056 C 
HETATM   27 BR1  UNL     1      25.276   0.848  53.135  1.00  0.00    -0.056 Br
ENDBRANCH   8  24
BRANCH   6  28
HETATM   28  N2  UNL     1      21.662   7.188  51.273  1.00  0.00    -0.233 N 
HETATM   29  H12 UNL     1      20.798   7.216  50.674  1.00  0.00     0.174 HD
HETATM   30  H13 UNL     1      21.809   7.862  52.041  1.00  0.00     0.174 HD
ENDBRANCH   6  28
TORSDOF 6
ENDMDL
MODEL 5
REMARK VINA RESULT:      -8.0      3.354      6.329
REMARK  6 active torsions:
REMARK  status: ('A' for Active; 'I' for Inactive)
REMARK    1  A    between atoms: O1_2  and  C2_3 
REMARK    2  A    between atoms: C5_6  and  O2_7 
REMARK    3  A    between atoms: C7_9  and  C8_10 
REMARK    4  A    between atoms: C8_10  and  C9_11 
REMARK    5  A    between atoms: C13_16  and  N2_17 
REMARK    6  A    between atoms: C14_19  and  C15_20 
ROOT
HETATM    1  C9  UNL     1      25.188   3.516  50.055  1.00  0.00     0.010 C 
HETATM    2  C10 UNL     1      24.500   2.934  51.030  1.00  0.00     0.035 C 
HETATM    3  C11 UNL     1      25.230   1.820  51.617  1.00  0.00    -0.011 C 
HETATM    4  C12 UNL     1      24.691   0.870  52.344  1.00  0.00     0.088 C 
HETATM    5  N1  UNL     1      23.309   0.799  52.661  1.00  0.00    -0.067 NA
HETATM    6  C13 UNL     1      23.129  -0.013  53.667  1.00  0.00     0.695 C 
HETATM    7  N3  UNL     1      24.379  -0.541  54.095  1.00  0.00    -0.211 N 
HETATM    8  C14 UNL     1      25.318  -0.310  52.994  1.00  0.00     0.177 C 
HETATM    9  C18 UNL     1      26.623   2.065  51.183  1.00  0.00     0.160 C 
HETATM   10  N4  UNL     1      26.412   2.821  49.940  1.00  0.00    -0.389 N 
HETATM   11  H14 UNL     1      24.506  -0.995  55.044  1.00  0.00     0.178 HD
HETATM   12  H22 UNL     1      27.110   2.796  49.137  1.00  0.00     0.159 HD
ENDROOT
BRANCH   1  13
HETATM   13  C8  UNL     1      24.930   4.662  49.143  1.00  0.00     0.098 C 
BRANCH  13  14
HETATM   14  C7  UNL     1      23.918   5.608  49.688  1.00  0.00    -0.017 A 
HETATM   15  C5  UNL     1      24.290   6.751  50.364  1.00  0.00     0.075 A 
HETATM   16  C4  UNL     1      23.307   7.589  50.849  1.00  0.00     0.040 A 
HETATM   17  C3  UNL     1      21.953   7.361  50.703  1.00  0.00     0.039 A 
HETATM   18  C2  UNL     1      21.598   6.197  50.014  1.00  0.00     0.068 A 
HETATM   19  C19 UNL     1      22.573   5.352  49.526  1.00  0.00     0.047 A 
BRANCH  15  20
HETATM   20  O2  UNL     1      25.645   7.010  50.528  1.00  0.00    -0.355 OA
HETATM   21  C6  UNL     1      26.206   8.096  49.791  1.00  0.00     0.210 C 
ENDBRANCH  15  20
BRANCH  18  22
HETATM   22  O1  UNL     1      20.242   5.915  49.837  1.00  0.00    -0.356 OA
HETATM   23  C1  UNL     1      19.758   4.645  50.225  1.00  0.00     0.210 C 
ENDBRANCH  18  22
ENDBRANCH  13  14
ENDBRANCH   1  13
BRANCH   8  24
HETATM   24  C15 UNL     1      26.673  -0.029  53.473  1.00  0.00     0.019 C 
HETATM   25  C16 UNL     1      27.624  -0.934  53.283  1.00  0.00    -0.017 C 
HETATM   26  C17 UNL     1      27.525  -2.264  52.623  1.00  0.00     0.056 C 
HETATM   27 BR1  UNL     1      29.442  -0.710  53.850  1.00  0.00    -0.056 Br
ENDBRANCH   8  24
BRANCH   6  28
HETATM   28  N2  UNL     1      21.838  -0.308  54.238  1.00  0.00    -0.233 N 
HETATM   29  H12 UNL     1      20.975   0.250  54.008  1.00  0.00     0.174 HD
HETATM   30  H13 UNL     1      21.807  -1.106  54.891  1.00  0.00     0.174 HD
ENDBRANCH   6  28
TORSDOF 6
ENDMDL
MODEL 6
REMARK VINA RESULT:      -7.9      5.914     10.337
REMARK  6 active torsions:
REMARK  status: ('A' for Active; 'I' for Inactive)
REMARK    1  A    between atoms: O1_2  and  C2_3 
REMARK    2  A    between atoms: C5_6  and  O2_7 
REMARK    3  A    between atoms: C7_9  and  C8_10 
REMARK    4  A    between atoms: C8_10  and  C9_11 
REMARK    5  A    between atoms: C13_16  and  N2_17 
REMARK    6  A    between atoms: C14_19  and  C15_20 
ROOT
HETATM    1  C9  UNL     1      27.420   6.130  48.475  1.00  0.00     0.010 C 
HETATM    2  C10 UNL     1      26.351   6.498  49.171  1.00  0.00     0.035 C 
HETATM    3  C11 UNL     1      25.659   5.354  49.747  1.00  0.00    -0.011 C 
HETATM    4  C12 UNL     1      24.423   5.367  50.185  1.00  0.00     0.088 C 
HETATM    5  N1  UNL     1      23.583   6.512  50.158  1.00  0.00    -0.067 NA
HETATM    6  C13 UNL     1      22.575   6.336  50.969  1.00  0.00     0.695 C 
HETATM    7  N3  UNL     1      22.670   5.062  51.596  1.00  0.00    -0.211 N 
HETATM    8  C14 UNL     1      23.609   4.279  50.788  1.00  0.00     0.177 C 
HETATM    9  C18 UNL     1      26.678   4.281  49.688  1.00  0.00     0.160 C 
HETATM   10  N4  UNL     1      27.499   4.721  48.550  1.00  0.00    -0.389 N 
HETATM   11  H14 UNL     1      22.128   4.822  52.474  1.00  0.00     0.178 HD
HETATM   12  H22 UNL     1      28.030   4.034  47.937  1.00  0.00     0.159 HD
ENDROOT
BRANCH   1  13
HETATM   13  C8  UNL     1      28.458   6.862  47.702  1.00  0.00     0.098 C 
BRANCH  13  14
HETATM   14  C7  UNL     1      29.834   6.599  48.204  1.00  0.00    -0.017 A 
HETATM   15  C5  UNL     1      30.499   7.512  48.996  1.00  0.00     0.075 A 
HETATM   16  C4  UNL     1      31.775   7.213  49.431  1.00  0.00     0.040 A 
HETATM   17  C3  UNL     1      32.445   6.047  49.124  1.00  0.00     0.039 A 
HETATM   18  C2  UNL     1      31.752   5.135  48.320  1.00  0.00     0.068 A 
HETATM   19  C19 UNL     1      30.477   5.423  47.880  1.00  0.00     0.047 A 
BRANCH  15  20
HETATM   20  O2  UNL     1      29.853   8.696  49.323  1.00  0.00    -0.355 OA
HETATM   21  C6  UNL     1      30.573   9.916  49.146  1.00  0.00     0.210 C 
ENDBRANCH  15  20
BRANCH  18  22
HETATM   22  O1  UNL     1      32.383   3.936  47.978  1.00  0.00    -0.356 OA
HETATM   23  C1  UNL     1      33.783   3.940  47.784  1.00  0.00     0.210 C 
ENDBRANCH  18  22
ENDBRANCH  13  14
ENDBRANCH   1  13
BRANCH   8  24
HETATM   24  C15 UNL     1      24.414   3.368  51.604  1.00  0.00     0.019 C 
HETATM   25  C16 UNL     1      24.025   2.106  51.734  1.00  0.00    -0.017 C 
HETATM   26  C17 UNL     1      22.833   1.434  51.148  1.00  0.00     0.056 C 
HETATM   27 BR1  UNL     1      24.972   0.795  52.765  1.00  0.00    -0.056 Br
ENDBRANCH   8  24
BRANCH   6  28
HETATM   28  N2  UNL     1      21.534   7.313  51.176  1.00  0.00    -0.233 N 
HETATM   29  H12 UNL     1      21.665   8.161  51.784  1.00  0.00     0.174 HD
HETATM   30  H13 UNL     1      20.643   7.131  50.688  1.00  0.00     0.174 HD
ENDBRANCH   6  28
TORSDOF 6
ENDMDL
MODEL 7
REMARK VINA RESULT:      -7.9      4.064      6.903
REMARK  6 active torsions:
REMARK  status: ('A' for Active; 'I' for Inactive)
REMARK    1  A    between atoms: O1_2  and  C2_3 
REMARK    2  A    between atoms: C5_6  and  O2_7 
REMARK    3  A    between atoms: C7_9  and  C8_10 
REMARK    4  A    between atoms: C8_10  and  C9_11 
REMARK    5  A    between atoms: C13_16  and  N2_17 
REMARK    6  A    between atoms: C14_19  and  C15_20 
ROOT
HETATM    1  C9  UNL     1      25.669   3.567  50.541  1.00  0.00     0.010 C 
HETATM    2  C10 UNL     1      26.262   2.434  50.895  1.00  0.00     0.035 C 
HETATM    3  C11 UNL     1      25.488   1.705  51.890  1.00  0.00    -0.011 C 
HETATM    4  C12 UNL     1      25.960   0.754  52.659  1.00  0.00     0.088 C 
HETATM    5  N1  UNL     1      27.305   0.299  52.626  1.00  0.00    -0.067 NA
HETATM    6  C13 UNL     1      27.391  -0.863  53.215  1.00  0.00     0.695 C 
HETATM    7  N3  UNL     1      26.109  -1.268  53.682  1.00  0.00    -0.211 N 
HETATM    8  C14 UNL     1      25.282  -0.058  53.703  1.00  0.00     0.177 C 
HETATM    9  C18 UNL     1      24.142   2.311  51.776  1.00  0.00     0.160 C 
HETATM   10  N4  UNL     1      24.468   3.656  51.279  1.00  0.00    -0.389 N 
HETATM   11  H14 UNL     1      25.893  -2.272  53.940  1.00  0.00     0.178 HD
HETATM   12  H22 UNL     1      23.853   4.499  51.485  1.00  0.00     0.159 HD
ENDROOT
BRANCH   1  13
HETATM   13  C8  UNL     1      26.006   4.663  49.593  1.00  0.00     0.098 C 
BRANCH  13  14
HETATM   14  C7  UNL     1      24.838   5.535  49.292  1.00  0.00    -0.017 A 
HETATM   15  C5  UNL     1      24.762   6.828  49.765  1.00  0.00     0.075 A 
HETATM   16  C4  UNL     1      23.653   7.588  49.454  1.00  0.00     0.040 A 
HETATM   17  C3  UNL     1      22.594   7.139  48.691  1.00  0.00     0.039 A 
HETATM   18  C2  UNL     1      22.691   5.825  48.222  1.00  0.00     0.068 A 
HETATM   19  C19 UNL     1      23.796   5.056  48.526  1.00  0.00     0.047 A 
BRANCH  15  20
HETATM   20  O2  UNL     1      25.811   7.311  50.536  1.00  0.00    -0.355 OA
HETATM   21  C6  UNL     1      26.541   8.432  50.036  1.00  0.00     0.210 C 
ENDBRANCH  15  20
BRANCH  18  22
HETATM   22  O1  UNL     1      21.648   5.317  47.444  1.00  0.00    -0.356 OA
HETATM   23  C1  UNL     1      21.964   4.466  46.361  1.00  0.00     0.210 C 
ENDBRANCH  18  22
ENDBRANCH  13  14
ENDBRANCH   1  13
BRANCH   8  24
HETATM   24  C15 UNL     1      23.884  -0.339  53.370  1.00  0.00     0.019 C 
HETATM   25  C16 UNL     1      23.103  -0.895  54.288  1.00  0.00    -0.017 C 
HETATM   26  C17 UNL     1      23.443  -1.300  55.678  1.00  0.00     0.056 C 
HETATM   27 BR1  UNL     1      21.255  -1.320  54.003  1.00  0.00    -0.056 Br
ENDBRANCH   8  24
BRANCH   6  28
HETATM   28  N2  UNL     1      28.622  -1.602  53.352  1.00  0.00    -0.233 N 
HETATM   29  H12 UNL     1      29.408  -1.528  52.658  1.00  0.00     0.174 HD
HETATM   30  H13 UNL     1      28.689  -2.213  54.181  1.00  0.00     0.174 HD
ENDBRANCH   6  28
TORSDOF 6
ENDMDL
MODEL 8
REMARK VINA RESULT:      -7.7      4.058      6.982
REMARK  6 active torsions:
REMARK  status: ('A' for Active; 'I' for Inactive)
REMARK    1  A    between atoms: O1_2  and  C2_3 
REMARK    2  A    between atoms: C5_6  and  O2_7 
REMARK    3  A    between atoms: C7_9  and  C8_10 
REMARK    4  A    between atoms: C8_10  and  C9_11 
REMARK    5  A    between atoms: C13_16  and  N2_17 
REMARK    6  A    between atoms: C14_19  and  C15_20 
ROOT
HETATM    1  C9  UNL     1      25.165   1.610  51.836  1.00  0.00     0.010 C 
HETATM    2  C10 UNL     1      23.886   1.890  51.612  1.00  0.00     0.035 C 
HETATM    3  C11 UNL     1      23.702   3.266  51.175  1.00  0.00    -0.011 C 
HETATM    4  C12 UNL     1      22.563   3.916  51.203  1.00  0.00     0.088 C 
HETATM    5  N1  UNL     1      21.342   3.360  51.667  1.00  0.00    -0.067 NA
HETATM    6  C13 UNL     1      20.341   4.084  51.246  1.00  0.00     0.695 C 
HETATM    7  N3  UNL     1      20.822   5.175  50.469  1.00  0.00    -0.211 N 
HETATM    8  C14 UNL     1      22.245   5.308  50.791  1.00  0.00     0.177 C 
HETATM    9  C18 UNL     1      25.059   3.664  50.738  1.00  0.00     0.160 C 
HETATM   10  N4  UNL     1      25.901   2.784  51.561  1.00  0.00    -0.389 N 
HETATM   11  H14 UNL     1      20.195   5.723  49.814  1.00  0.00     0.178 HD
HETATM   12  H22 UNL     1      26.885   3.058  51.857  1.00  0.00     0.159 HD
ENDROOT
BRANCH   1  13
HETATM   13  C8  UNL     1      25.899   0.396  52.284  1.00  0.00     0.098 C 
BRANCH  13  14
HETATM   14  C7  UNL     1      25.491  -0.047  53.645  1.00  0.00    -0.017 A 
HETATM   15  C5  UNL     1      26.299   0.162  54.743  1.00  0.00     0.075 A 
HETATM   16  C4  UNL     1      25.868  -0.273  55.980  1.00  0.00     0.040 A 
HETATM   17  C3  UNL     1      24.666  -0.913  56.201  1.00  0.00     0.039 A 
HETATM   18  C2  UNL     1      23.862  -1.114  55.074  1.00  0.00     0.068 A 
HETATM   19  C19 UNL     1      24.283  -0.684  53.832  1.00  0.00     0.047 A 
BRANCH  15  20
HETATM   20  O2  UNL     1      27.516   0.804  54.555  1.00  0.00    -0.355 OA
HETATM   21  C6  UNL     1      28.706   0.041  54.749  1.00  0.00     0.210 C 
ENDBRANCH  15  20
BRANCH  18  22
HETATM   22  O1  UNL     1      22.634  -1.758  55.238  1.00  0.00    -0.356 OA
HETATM   23  C1  UNL     1      21.516  -1.279  54.517  1.00  0.00     0.210 C 
ENDBRANCH  18  22
ENDBRANCH  13  14
ENDBRANCH   1  13
BRANCH   8  24
HETATM   24  C15 UNL     1      23.035   5.742  49.637  1.00  0.00     0.019 C 
HETATM   25  C16 UNL     1      23.717   6.878  49.714  1.00  0.00    -0.017 C 
HETATM   26  C17 UNL     1      23.810   7.833  50.851  1.00  0.00     0.056 C 
HETATM   27 BR1  UNL     1      24.796   7.576  48.290  1.00  0.00    -0.056 Br
ENDBRANCH   8  24
BRANCH   6  28
HETATM   28  N2  UNL     1      18.960   3.791  51.541  1.00  0.00    -0.233 N 
HETATM   29  H12 UNL     1      18.468   2.940  51.166  1.00  0.00     0.174 HD
HETATM   30  H13 UNL     1      18.477   4.470  52.150  1.00  0.00     0.174 HD
ENDBRANCH   6  28
TORSDOF 6
ENDMDL
MODEL 9
REMARK VINA RESULT:      -7.6      3.124      6.001
REMARK  6 active torsions:
REMARK  status: ('A' for Active; 'I' for Inactive)
REMARK    1  A    between atoms: O1_2  and  C2_3 
REMARK    2  A    between atoms: C5_6  and  O2_7 
REMARK    3  A    between atoms: C7_9  and  C8_10 
REMARK    4  A    between atoms: C8_10  and  C9_11 
REMARK    5  A    between atoms: C13_16  and  N2_17 
REMARK    6  A    between atoms: C14_19  and  C15_20 
ROOT
HETATM    1  C9  UNL     1      23.002   4.033  51.732  1.00  0.00     0.010 C 
HETATM    2  C10 UNL     1      22.503   3.057  52.481  1.00  0.00     0.035 C 
HETATM    3  C11 UNL     1      23.492   2.023  52.752  1.00  0.00    -0.011 C 
HETATM    4  C12 UNL     1      23.214   0.809  53.164  1.00  0.00     0.088 C 
HETATM    5  N1  UNL     1      21.898   0.333  53.404  1.00  0.00    -0.067 NA
HETATM    6  C13 UNL     1      21.947  -0.749  54.134  1.00  0.00     0.695 C 
HETATM    7  N3  UNL     1      23.301  -1.072  54.434  1.00  0.00    -0.211 N 
HETATM    8  C14 UNL     1      24.120  -0.328  53.472  1.00  0.00     0.177 C 
HETATM    9  C18 UNL     1      24.774   2.697  52.448  1.00  0.00     0.160 C 
HETATM   10  N4  UNL     1      24.349   3.702  51.463  1.00  0.00    -0.389 N 
HETATM   11  H14 UNL     1      23.564  -1.732  55.219  1.00  0.00     0.178 HD
HETATM   12  H22 UNL     1      25.004   4.066  50.708  1.00  0.00     0.159 HD
ENDROOT
BRANCH   1  13
HETATM   13  C8  UNL     1      22.453   5.297  51.174  1.00  0.00     0.098 C 
BRANCH  13  14
HETATM   14  C7  UNL     1      22.462   5.314  49.685  1.00  0.00    -0.017 A 
HETATM   15  C5  UNL     1      23.223   6.221  48.979  1.00  0.00     0.075 A 
HETATM   16  C4  UNL     1      23.189   6.189  47.600  1.00  0.00     0.040 A 
HETATM   17  C3  UNL     1      22.435   5.299  46.863  1.00  0.00     0.039 A 
HETATM   18  C2  UNL     1      21.671   4.387  47.599  1.00  0.00     0.068 A 
HETATM   19  C19 UNL     1      21.697   4.410  48.978  1.00  0.00     0.047 A 
BRANCH  15  20
HETATM   20  O2  UNL     1      23.994   7.131  49.690  1.00  0.00    -0.355 OA
HETATM   21  C6  UNL     1      25.409   6.948  49.685  1.00  0.00     0.210 C 
ENDBRANCH  15  20
BRANCH  18  22
HETATM   22  O1  UNL     1      20.887   3.462  46.906  1.00  0.00    -0.356 OA
HETATM   23  C1  UNL     1      19.503   3.402  47.186  1.00  0.00     0.210 C 
ENDBRANCH  18  22
ENDBRANCH  13  14
ENDBRANCH   1  13
BRANCH   8  24
HETATM   24  C15 UNL     1      25.390   0.113  54.053  1.00  0.00     0.019 C 
HETATM   25  C16 UNL     1      26.519  -0.435  53.623  1.00  0.00    -0.017 C 
HETATM   26  C17 UNL     1      26.709  -1.486  52.587  1.00  0.00     0.056 C 
HETATM   27 BR1  UNL     1      28.256   0.038  54.284  1.00  0.00    -0.056 Br
ENDBRANCH   8  24
BRANCH   6  28
HETATM   28  N2  UNL     1      20.781  -1.483  54.558  1.00  0.00    -0.233 N 
HETATM   29  H12 UNL     1      20.390  -2.293  54.010  1.00  0.00     0.174 HD
HETATM   30  H13 UNL     1      20.347  -1.167  55.438  1.00  0.00     0.174 HD
ENDBRANCH   6  28
TORSDOF 6
ENDMDL
