MODEL 1
REMARK VINA RESULT:      -8.8      0.000      0.000
REMARK  0 active torsions:
REMARK  status: ('A' for Active; 'I' for Inactive)
ROOT
HETATM    1  C1  UNL     1      24.670   5.196  50.346  1.00  0.00     0.043 C 
HETATM    2  C2  UNL     1      24.505   3.947  51.172  1.00  0.00    -0.084 C 
HETATM    3  C3  UNL     1      23.838   4.118  52.310  1.00  0.00    -0.005 C 
HETATM    4  C4  UNL     1      23.727   2.802  53.066  1.00  0.00     0.147 C 
HETATM    5  N1  UNL     1      24.918   2.163  52.904  1.00  0.00    -0.378 N 
HETATM    6  C5  UNL     1      25.284   1.617  51.677  1.00  0.00     0.089 C 
HETATM    7  C6  UNL     1      25.103   2.718  50.608  1.00  0.00     0.058 C 
HETATM    8  C7  UNL     1      26.639   1.108  51.505  1.00  0.00     0.064 C 
HETATM    9  C8  UNL     1      27.365   0.260  52.400  1.00  0.00    -0.025 C 
HETATM   10  C9  UNL     1      28.241   0.087  53.379  1.00  0.00     0.010 C 
HETATM   11  C10 UNL     1      29.215   0.191  54.448  1.00  0.00     0.319 C 
HETATM   12  N2  UNL     1      29.115   1.489  54.646  1.00  0.00    -0.414 NA
HETATM   13  C11 UNL     1      28.222   2.339  53.917  1.00  0.00     0.232 C 
HETATM   14  N3  UNL     1      27.005   2.490  53.672  1.00  0.00    -0.270 NA
HETATM   15  C12 UNL     1      25.756   1.841  54.011  1.00  0.00     0.261 C 
HETATM   16  C13 UNL     1      26.048   0.360  54.033  1.00  0.00     0.122 C 
HETATM   17  C14 UNL     1      25.005  -0.389  53.535  1.00  0.00     0.079 C 
HETATM   18  C15 UNL     1      23.545  -0.234  53.798  1.00  0.00     0.079 C 
HETATM   19  O1  UNL     1      25.573  -1.402  52.670  1.00  0.00    -0.318 OA
HETATM   20  C16 UNL     1      26.959  -1.126  52.814  1.00  0.00     0.303 C 
HETATM   21  O2  UNL     1      26.854  -0.835  54.290  1.00  0.00    -0.314 OA
ENDROOT
TORSDOF 0
ENDMDL
MODEL 2
REMARK VINA RESULT:      -7.1      2.024      4.781
REMARK  0 active torsions:
REMARK  status: ('A' for Active; 'I' for Inactive)
ROOT
HETATM    1  C1  UNL     1      29.718  -0.384  54.212  1.00  0.00     0.043 C 
HETATM    2  C2  UNL     1      28.256  -0.412  53.849  1.00  0.00    -0.084 C 
HETATM    3  C3  UNL     1      27.922  -1.344  52.961  1.00  0.00    -0.005 C 
HETATM    4  C4  UNL     1      26.430  -1.289  52.665  1.00  0.00     0.147 C 
HETATM    5  N1  UNL     1      26.093   0.030  52.632  1.00  0.00    -0.378 N 
HETATM    6  C5  UNL     1      26.058   0.796  53.794  1.00  0.00     0.089 C 
HETATM    7  C6  UNL     1      27.405   0.592  54.523  1.00  0.00     0.058 C 
HETATM    8  C7  UNL     1      25.873   2.237  53.685  1.00  0.00     0.064 C 
HETATM    9  C8  UNL     1      24.910   2.928  52.883  1.00  0.00    -0.025 C 
HETATM   10  C9  UNL     1      24.570   3.569  51.774  1.00  0.00     0.010 C 
HETATM   11  C10 UNL     1      24.476   4.210  50.476  1.00  0.00     0.319 C 
HETATM   12  N2  UNL     1      25.596   3.740  49.969  1.00  0.00    -0.414 NA
HETATM   13  C11 UNL     1      26.476   2.854  50.670  1.00  0.00     0.232 C 
HETATM   14  N3  UNL     1      26.493   1.729  51.216  1.00  0.00    -0.270 NA
HETATM   15  C12 UNL     1      25.566   0.643  51.458  1.00  0.00     0.261 C 
HETATM   16  C13 UNL     1      24.235   1.289  51.756  1.00  0.00     0.122 C 
HETATM   17  C14 UNL     1      23.530   0.614  52.730  1.00  0.00     0.079 C 
HETATM   18  C15 UNL     1      23.340  -0.857  52.883  1.00  0.00     0.079 C 
HETATM   19  O1  UNL     1      22.976   1.606  53.628  1.00  0.00    -0.318 OA
HETATM   20  C16 UNL     1      23.417   2.803  53.006  1.00  0.00     0.303 C 
HETATM   21  O2  UNL     1      23.177   2.290  51.608  1.00  0.00    -0.314 OA
ENDROOT
TORSDOF 0
ENDMDL
MODEL 3
REMARK VINA RESULT:      -7.1      9.397     10.667
REMARK  0 active torsions:
REMARK  status: ('A' for Active; 'I' for Inactive)
ROOT
HETATM    1  C1  UNL     1      29.334   8.420  48.900  1.00  0.00     0.043 C 
HETATM    2  C2  UNL     1      30.682   7.749  48.835  1.00  0.00    -0.084 C 
HETATM    3  C3  UNL     1      31.719   8.574  48.955  1.00  0.00    -0.005 C 
HETATM    4  C4  UNL     1      33.027   7.800  48.876  1.00  0.00     0.147 C 
HETATM    5  N1  UNL     1      32.850   6.842  47.926  1.00  0.00    -0.378 N 
HETATM    6  C5  UNL     1      32.025   5.744  48.151  1.00  0.00     0.089 C 
HETATM    7  C6  UNL     1      30.663   6.283  48.646  1.00  0.00     0.058 C 
HETATM    8  C7  UNL     1      31.724   4.846  47.044  1.00  0.00     0.064 C 
HETATM    9  C8  UNL     1      32.649   4.293  46.102  1.00  0.00    -0.025 C 
HETATM   10  C9  UNL     1      33.254   4.312  44.924  1.00  0.00     0.010 C 
HETATM   11  C10 UNL     1      33.761   4.579  43.591  1.00  0.00     0.319 C 
HETATM   12  N2  UNL     1      33.296   5.805  43.473  1.00  0.00    -0.414 NA
HETATM   13  C11 UNL     1      32.556   6.478  44.498  1.00  0.00     0.232 C 
HETATM   14  N3  UNL     1      32.658   6.852  45.686  1.00  0.00    -0.270 NA
HETATM   15  C12 UNL     1      33.646   6.798  46.744  1.00  0.00     0.261 C 
HETATM   16  C13 UNL     1      34.322   5.455  46.616  1.00  0.00     0.122 C 
HETATM   17  C14 UNL     1      34.621   4.899  47.841  1.00  0.00     0.079 C 
HETATM   18  C15 UNL     1      35.207   5.564  49.041  1.00  0.00     0.079 C 
HETATM   19  O1  UNL     1      34.261   3.498  47.780  1.00  0.00    -0.318 OA
HETATM   20  C16 UNL     1      33.809   3.398  46.438  1.00  0.00     0.303 C 
HETATM   21  O2  UNL     1      34.883   4.309  45.899  1.00  0.00    -0.314 OA
ENDROOT
TORSDOF 0
ENDMDL
MODEL 4
REMARK VINA RESULT:      -7.1      3.339      6.270
REMARK  0 active torsions:
REMARK  status: ('A' for Active; 'I' for Inactive)
ROOT
HETATM    1  C1  UNL     1      26.691  -0.410  51.951  1.00  0.00     0.043 C 
HETATM    2  C2  UNL     1      25.886   0.853  52.113  1.00  0.00    -0.084 C 
HETATM    3  C3  UNL     1      24.885   0.765  52.985  1.00  0.00    -0.005 C 
HETATM    4  C4  UNL     1      24.138   2.088  53.075  1.00  0.00     0.147 C 
HETATM    5  N1  UNL     1      24.078   2.582  51.808  1.00  0.00    -0.378 N 
HETATM    6  C5  UNL     1      25.212   3.078  51.171  1.00  0.00     0.089 C 
HETATM    7  C6  UNL     1      26.315   2.002  51.287  1.00  0.00     0.058 C 
HETATM    8  C7  UNL     1      25.134   3.424  49.758  1.00  0.00     0.064 C 
HETATM    9  C8  UNL     1      24.111   4.185  49.107  1.00  0.00    -0.025 C 
HETATM   10  C9  UNL     1      22.991   4.258  48.404  1.00  0.00     0.010 C 
HETATM   11  C10 UNL     1      21.769   4.043  47.652  1.00  0.00     0.319 C 
HETATM   12  N2  UNL     1      21.614   2.767  47.935  1.00  0.00    -0.414 NA
HETATM   13  C11 UNL     1      22.503   2.025  48.778  1.00  0.00     0.232 C 
HETATM   14  N3  UNL     1      22.961   2.016  49.942  1.00  0.00    -0.270 NA
HETATM   15  C12 UNL     1      22.835   2.808  51.147  1.00  0.00     0.261 C 
HETATM   16  C13 UNL     1      22.736   4.245  50.694  1.00  0.00     0.122 C 
HETATM   17  C14 UNL     1      23.397   5.109  51.539  1.00  0.00     0.079 C 
HETATM   18  C15 UNL     1      23.397   5.126  53.031  1.00  0.00     0.079 C 
HETATM   19  O1  UNL     1      24.131   6.045  50.714  1.00  0.00    -0.318 OA
HETATM   20  C16 UNL     1      23.751   5.610  49.417  1.00  0.00     0.303 C 
HETATM   21  O2  UNL     1      22.321   5.338  49.814  1.00  0.00    -0.314 OA
ENDROOT
TORSDOF 0
ENDMDL
MODEL 5
REMARK VINA RESULT:      -7.0      2.050      3.429
REMARK  0 active torsions:
REMARK  status: ('A' for Active; 'I' for Inactive)
ROOT
HETATM    1  C1  UNL     1      20.589   4.052  51.958  1.00  0.00     0.043 C 
HETATM    2  C2  UNL     1      21.966   3.620  51.524  1.00  0.00    -0.084 C 
HETATM    3  C3  UNL     1      21.990   2.846  50.442  1.00  0.00    -0.005 C 
HETATM    4  C4  UNL     1      23.421   2.467  50.090  1.00  0.00     0.147 C 
HETATM    5  N1  UNL     1      24.062   2.243  51.270  1.00  0.00    -0.378 N 
HETATM    6  C5  UNL     1      24.377   3.290  52.131  1.00  0.00     0.089 C 
HETATM    7  C6  UNL     1      23.087   4.110  52.355  1.00  0.00     0.058 C 
HETATM    8  C7  UNL     1      24.895   2.984  53.458  1.00  0.00     0.064 C 
HETATM    9  C8  UNL     1      25.926   2.047  53.790  1.00  0.00    -0.025 C 
HETATM   10  C9  UNL     1      26.316   0.848  54.194  1.00  0.00     0.010 C 
HETATM   11  C10 UNL     1      26.454  -0.526  54.638  1.00  0.00     0.319 C 
HETATM   12  N2  UNL     1      25.215  -0.907  54.407  1.00  0.00    -0.414 NA
HETATM   13  C11 UNL     1      24.208  -0.051  53.855  1.00  0.00     0.232 C 
HETATM   14  N3  UNL     1      23.967   0.638  52.840  1.00  0.00    -0.270 NA
HETATM   15  C12 UNL     1      24.621   0.973  51.593  1.00  0.00     0.261 C 
HETATM   16  C13 UNL     1      26.089   1.113  51.916  1.00  0.00     0.122 C 
HETATM   17  C14 UNL     1      26.689   2.129  51.203  1.00  0.00     0.079 C 
HETATM   18  C15 UNL     1      26.531   2.464  49.758  1.00  0.00     0.079 C 
HETATM   19  O1  UNL     1      27.539   2.858  52.121  1.00  0.00    -0.318 OA
HETATM   20  C16 UNL     1      27.349   2.108  53.311  1.00  0.00     0.303 C 
HETATM   21  O2  UNL     1      27.341   0.779  52.597  1.00  0.00    -0.314 OA
ENDROOT
TORSDOF 0
ENDMDL
MODEL 6
REMARK VINA RESULT:      -7.0      3.624      6.226
REMARK  0 active torsions:
REMARK  status: ('A' for Active; 'I' for Inactive)
ROOT
HETATM    1  C1  UNL     1      27.025   2.062  52.592  1.00  0.00     0.043 C 
HETATM    2  C2  UNL     1      25.557   1.763  52.759  1.00  0.00    -0.084 C 
HETATM    3  C3  UNL     1      25.245   0.471  52.715  1.00  0.00    -0.005 C 
HETATM    4  C4  UNL     1      23.746   0.278  52.892  1.00  0.00     0.147 C 
HETATM    5  N1  UNL     1      23.145   1.288  52.206  1.00  0.00    -0.378 N 
HETATM    6  C5  UNL     1      23.196   2.602  52.663  1.00  0.00     0.089 C 
HETATM    7  C6  UNL     1      24.678   2.937  52.944  1.00  0.00     0.058 C 
HETATM    8  C7  UNL     1      22.697   3.669  51.805  1.00  0.00     0.064 C 
HETATM    9  C8  UNL     1      21.466   3.690  51.076  1.00  0.00    -0.025 C 
HETATM   10  C9  UNL     1      20.777   3.507  49.959  1.00  0.00     0.010 C 
HETATM   11  C10 UNL     1      20.282   3.219  48.626  1.00  0.00     0.319 C 
HETATM   12  N2  UNL     1      21.344   2.579  48.182  1.00  0.00    -0.414 NA
HETATM   13  C11 UNL     1      22.515   2.339  48.970  1.00  0.00     0.232 C 
HETATM   14  N3  UNL     1      22.878   1.783  50.030  1.00  0.00    -0.270 NA
HETATM   15  C12 UNL     1      22.268   1.037  51.111  1.00  0.00     0.261 C 
HETATM   16  C13 UNL     1      20.925   1.680  51.356  1.00  0.00     0.122 C 
HETATM   17  C14 UNL     1      20.595   1.714  52.693  1.00  0.00     0.079 C 
HETATM   18  C15 UNL     1      20.749   0.636  53.713  1.00  0.00     0.079 C 
HETATM   19  O1  UNL     1      20.048   3.026  52.971  1.00  0.00    -0.318 OA
HETATM   20  C16 UNL     1      20.092   3.610  51.678  1.00  0.00     0.303 C 
HETATM   21  O2  UNL     1      19.675   2.342  50.976  1.00  0.00    -0.314 OA
ENDROOT
TORSDOF 0
ENDMDL
MODEL 7
REMARK VINA RESULT:      -6.9      2.953      4.629
REMARK  0 active torsions:
REMARK  status: ('A' for Active; 'I' for Inactive)
ROOT
HETATM    1  C1  UNL     1      21.440   7.294  50.470  1.00  0.00     0.043 C 
HETATM    2  C2  UNL     1      22.534   6.266  50.341  1.00  0.00    -0.084 C 
HETATM    3  C3  UNL     1      22.669   5.750  49.123  1.00  0.00    -0.005 C 
HETATM    4  C4  UNL     1      23.796   4.727  49.099  1.00  0.00     0.147 C 
HETATM    5  N1  UNL     1      23.719   4.042  50.273  1.00  0.00    -0.378 N 
HETATM    6  C5  UNL     1      24.065   4.640  51.482  1.00  0.00     0.089 C 
HETATM    7  C6  UNL     1      23.295   5.976  51.575  1.00  0.00     0.058 C 
HETATM    8  C7  UNL     1      23.792   3.930  52.725  1.00  0.00     0.064 C 
HETATM    9  C8  UNL     1      24.072   2.558  53.018  1.00  0.00    -0.025 C 
HETATM   10  C9  UNL     1      23.695   1.290  53.102  1.00  0.00     0.010 C 
HETATM   11  C10 UNL     1      23.025   0.004  53.092  1.00  0.00     0.319 C 
HETATM   12  N2  UNL     1      21.967   0.366  52.399  1.00  0.00    -0.414 NA
HETATM   13  C11 UNL     1      21.764   1.689  51.889  1.00  0.00     0.232 C 
HETATM   14  N3  UNL     1      22.292   2.532  51.132  1.00  0.00    -0.270 NA
HETATM   15  C12 UNL     1      23.480   2.637  50.311  1.00  0.00     0.261 C 
HETATM   16  C13 UNL     1      24.579   1.940  51.075  1.00  0.00     0.122 C 
HETATM   17  C14 UNL     1      25.796   2.574  50.943  1.00  0.00     0.079 C 
HETATM   18  C15 UNL     1      26.418   3.133  49.708  1.00  0.00     0.079 C 
HETATM   19  O1  UNL     1      26.408   2.615  52.254  1.00  0.00    -0.318 OA
HETATM   20  C16 UNL     1      25.435   1.924  53.023  1.00  0.00     0.303 C 
HETATM   21  O2  UNL     1      25.151   0.909  51.944  1.00  0.00    -0.314 OA
ENDROOT
TORSDOF 0
ENDMDL
MODEL 8
REMARK VINA RESULT:      -6.9      3.167      5.738
REMARK  0 active torsions:
REMARK  status: ('A' for Active; 'I' for Inactive)
ROOT
HETATM    1  C1  UNL     1      19.610  -0.136  52.103  1.00  0.00     0.043 C 
HETATM    2  C2  UNL     1      21.023   0.386  52.055  1.00  0.00    -0.084 C 
HETATM    3  C3  UNL     1      21.616   0.491  53.240  1.00  0.00    -0.005 C 
HETATM    4  C4  UNL     1      23.033   1.025  53.082  1.00  0.00     0.147 C 
HETATM    5  N1  UNL     1      22.980   1.973  52.107  1.00  0.00    -0.378 N 
HETATM    6  C5  UNL     1      22.785   1.628  50.773  1.00  0.00     0.089 C 
HETATM    7  C6  UNL     1      21.545   0.707  50.710  1.00  0.00     0.058 C 
HETATM    8  C7  UNL     1      22.552   2.683  49.796  1.00  0.00     0.064 C 
HETATM    9  C8  UNL     1      23.285   3.904  49.649  1.00  0.00    -0.025 C 
HETATM   10  C9  UNL     1      23.437   5.200  49.881  1.00  0.00     0.010 C 
HETATM   11  C10 UNL     1      23.356   6.589  50.292  1.00  0.00     0.319 C 
HETATM   12  N2  UNL     1      22.421   6.443  51.207  1.00  0.00    -0.414 NA
HETATM   13  C11 UNL     1      21.824   5.185  51.542  1.00  0.00     0.232 C 
HETATM   14  N3  UNL     1      22.124   4.047  51.964  1.00  0.00    -0.270 NA
HETATM   15  C12 UNL     1      23.320   3.334  52.362  1.00  0.00     0.261 C 
HETATM   16  C13 UNL     1      24.409   3.787  51.420  1.00  0.00     0.122 C 
HETATM   17  C14 UNL     1      25.268   2.765  51.080  1.00  0.00     0.079 C 
HETATM   18  C15 UNL     1      25.869   1.727  51.967  1.00  0.00     0.079 C 
HETATM   19  O1  UNL     1      25.509   2.857  49.655  1.00  0.00    -0.318 OA
HETATM   20  C16 UNL     1      24.750   4.013  49.332  1.00  0.00     0.303 C 
HETATM   21  O2  UNL     1      25.139   4.748  50.591  1.00  0.00    -0.314 OA
ENDROOT
TORSDOF 0
ENDMDL
MODEL 9
REMARK VINA RESULT:      -6.7      2.646      5.467
REMARK  0 active torsions:
REMARK  status: ('A' for Active; 'I' for Inactive)
ROOT
HETATM    1  C1  UNL     1      28.289   1.945  53.666  1.00  0.00     0.043 C 
HETATM    2  C2  UNL     1      26.877   1.611  53.258  1.00  0.00    -0.084 C 
HETATM    3  C3  UNL     1      26.773   0.618  52.379  1.00  0.00    -0.005 C 
HETATM    4  C4  UNL     1      25.314   0.361  52.034  1.00  0.00     0.147 C 
HETATM    5  N1  UNL     1      24.715   1.582  51.963  1.00  0.00    -0.378 N 
HETATM    6  C5  UNL     1      24.482   2.340  53.106  1.00  0.00     0.089 C 
HETATM    7  C6  UNL     1      25.815   2.429  53.883  1.00  0.00     0.058 C 
HETATM    8  C7  UNL     1      24.009   3.711  52.962  1.00  0.00     0.064 C 
HETATM    9  C8  UNL     1      22.954   4.177  52.114  1.00  0.00    -0.025 C 
HETATM   10  C9  UNL     1      22.530   4.719  50.982  1.00  0.00     0.010 C 
HETATM   11  C10 UNL     1      22.352   5.309  49.668  1.00  0.00     0.319 C 
HETATM   12  N2  UNL     1      23.562   5.072  49.208  1.00  0.00    -0.414 NA
HETATM   13  C11 UNL     1      24.580   4.396  49.954  1.00  0.00     0.232 C 
HETATM   14  N3  UNL     1      24.808   3.306  50.524  1.00  0.00    -0.270 NA
HETATM   15  C12 UNL     1      24.115   2.056  50.760  1.00  0.00     0.261 C 
HETATM   16  C13 UNL     1      22.670   2.419  51.002  1.00  0.00     0.122 C 
HETATM   17  C14 UNL     1      22.085   1.628  51.966  1.00  0.00     0.079 C 
HETATM   18  C15 UNL     1      22.195   0.151  52.144  1.00  0.00     0.079 C 
HETATM   19  O1  UNL     1      21.307   2.496  52.825  1.00  0.00    -0.318 OA
HETATM   20  C16 UNL     1      21.515   3.750  52.192  1.00  0.00     0.303 C 
HETATM   21  O2  UNL     1      21.435   3.178  50.799  1.00  0.00    -0.314 OA
ENDROOT
TORSDOF 0
ENDMDL
