MODEL 1
REMARK VINA RESULT:      -8.4      0.000      0.000
REMARK  1 active torsions:
REMARK  status: ('A' for Active; 'I' for Inactive)
REMARK    1  A    between atoms: C7_8  and  O1_9 
ROOT
HETATM    1  N1  UNL     1      28.675  -0.480  54.572  1.00  0.00    -0.191 NA
HETATM    2  C1  UNL     1      27.561  -0.119  54.405  1.00  0.00     0.103 C 
HETATM    3  C2  UNL     1      26.200   0.339  54.183  1.00  0.00     0.091 C 
HETATM    4  C3  UNL     1      25.365  -0.667  54.346  1.00  0.00     0.038 C 
HETATM    5  C4  UNL     1      23.914  -0.691  54.223  1.00  0.00    -0.032 A 
HETATM    6  C5  UNL     1      22.976  -1.099  55.146  1.00  0.00     0.014 A 
HETATM    7  C6  UNL     1      21.645  -1.033  54.806  1.00  0.00     0.040 A 
HETATM    8  C7  UNL     1      21.209  -0.578  53.589  1.00  0.00     0.099 A 
HETATM    9  C8  UNL     1      22.128  -0.165  52.653  1.00  0.00     0.102 A 
HETATM   10  C9  UNL     1      23.498  -0.220  52.964  1.00  0.00     0.051 A 
HETATM   11  O2  UNL     1      21.904   0.334  51.355  1.00  0.00    -0.348 OA
HETATM   12  C10 UNL     1      21.350   1.610  51.286  1.00  0.00     0.182 C 
HETATM   13  C11 UNL     1      22.115   2.701  51.945  1.00  0.00     0.096 C 
HETATM   14  C12 UNL     1      23.476   2.948  51.492  1.00  0.00     0.092 C 
HETATM   15  F1  UNL     1      23.611   3.224  50.171  1.00  0.00    -0.211 F 
HETATM   16  C13 UNL     1      24.629   2.945  52.199  1.00  0.00     0.019 C 
HETATM   17  C14 UNL     1      24.829   2.682  53.648  1.00  0.00     0.114 C 
HETATM   18  C15 UNL     1      25.869   1.695  53.884  1.00  0.00     0.173 C 
HETATM   19  O3  UNL     1      26.943   2.389  53.765  1.00  0.00    -0.291 OA
ENDROOT
BRANCH   8  20
HETATM   20  O1  UNL     1      19.886  -0.492  53.202  1.00  0.00    -0.358 OA
HETATM   21  H4  UNL     1      19.662  -0.165  52.249  1.00  0.00     0.217 HD
ENDBRANCH   8  20
TORSDOF 1
ENDMDL
MODEL 2
REMARK VINA RESULT:      -8.2      2.768      4.128
REMARK  1 active torsions:
REMARK  status: ('A' for Active; 'I' for Inactive)
REMARK    1  A    between atoms: C7_8  and  O1_9 
ROOT
HETATM    1  N1  UNL     1      27.118   3.996  49.044  1.00  0.00    -0.191 NA
HETATM    2  C1  UNL     1      26.550   3.499  49.954  1.00  0.00     0.103 C 
HETATM    3  C2  UNL     1      25.832   2.888  51.060  1.00  0.00     0.091 C 
HETATM    4  C3  UNL     1      26.618   2.028  51.675  1.00  0.00     0.038 C 
HETATM    5  C4  UNL     1      26.339   1.180  52.825  1.00  0.00    -0.032 A 
HETATM    6  C5  UNL     1      27.020   1.094  54.020  1.00  0.00     0.014 A 
HETATM    7  C6  UNL     1      26.568   0.212  54.974  1.00  0.00     0.040 A 
HETATM    8  C7  UNL     1      25.470  -0.586  54.789  1.00  0.00     0.099 A 
HETATM    9  C8  UNL     1      24.774  -0.516  53.604  1.00  0.00     0.102 A 
HETATM   10  C9  UNL     1      25.208   0.374  52.606  1.00  0.00     0.051 A 
HETATM   11  O2  UNL     1      23.630  -1.234  53.208  1.00  0.00    -0.348 OA
HETATM   12  C10 UNL     1      22.446  -0.888  53.853  1.00  0.00     0.182 C 
HETATM   13  C11 UNL     1      22.017   0.531  53.736  1.00  0.00     0.096 C 
HETATM   14  C12 UNL     1      21.789   1.066  52.402  1.00  0.00     0.092 C 
HETATM   15  F1  UNL     1      20.875   0.398  51.654  1.00  0.00    -0.211 F 
HETATM   16  C13 UNL     1      22.356   2.134  51.798  1.00  0.00     0.019 C 
HETATM   17  C14 UNL     1      23.381   3.067  52.333  1.00  0.00     0.114 C 
HETATM   18  C15 UNL     1      24.494   3.239  51.414  1.00  0.00     0.173 C 
HETATM   19  O3  UNL     1      24.028   4.086  50.568  1.00  0.00    -0.291 OA
ENDROOT
BRANCH   8  20
HETATM   20  O1  UNL     1      24.977  -1.485  55.714  1.00  0.00    -0.358 OA
HETATM   21  H4  UNL     1      24.944  -1.215  56.709  1.00  0.00     0.217 HD
ENDBRANCH   8  20
TORSDOF 1
ENDMDL
MODEL 3
REMARK VINA RESULT:      -8.2      2.483      4.917
REMARK  1 active torsions:
REMARK  status: ('A' for Active; 'I' for Inactive)
REMARK    1  A    between atoms: C7_8  and  O1_9 
ROOT
HETATM    1  N1  UNL     1      21.251  -1.767  54.944  1.00  0.00    -0.191 NA
HETATM    2  C1  UNL     1      21.776  -1.104  54.117  1.00  0.00     0.103 C 
HETATM    3  C2  UNL     1      22.401  -0.278  53.098  1.00  0.00     0.091 C 
HETATM    4  C3  UNL     1      23.657  -0.050  53.425  1.00  0.00     0.038 C 
HETATM    5  C4  UNL     1      24.668   0.724  52.719  1.00  0.00    -0.032 A 
HETATM    6  C5  UNL     1      25.920   0.330  52.298  1.00  0.00     0.014 A 
HETATM    7  C6  UNL     1      26.712   1.243  51.643  1.00  0.00     0.040 A 
HETATM    8  C7  UNL     1      26.313   2.528  51.389  1.00  0.00     0.099 A 
HETATM    9  C8  UNL     1      25.067   2.944  51.799  1.00  0.00     0.102 A 
HETATM   10  C9  UNL     1      24.230   2.038  52.473  1.00  0.00     0.051 A 
HETATM   11  O2  UNL     1      24.460   4.205  51.642  1.00  0.00    -0.348 OA
HETATM   12  C10 UNL     1      24.076   4.532  50.345  1.00  0.00     0.182 C 
HETATM   13  C11 UNL     1      23.118   3.607  49.682  1.00  0.00     0.096 C 
HETATM   14  C12 UNL     1      21.830   3.388  50.323  1.00  0.00     0.092 C 
HETATM   15  F1  UNL     1      21.089   4.504  50.540  1.00  0.00    -0.211 F 
HETATM   16  C13 UNL     1      21.261   2.232  50.731  1.00  0.00     0.019 C 
HETATM   17  C14 UNL     1      21.800   0.849  50.643  1.00  0.00     0.114 C 
HETATM   18  C15 UNL     1      21.725   0.153  51.917  1.00  0.00     0.173 C 
HETATM   19  O3  UNL     1      20.499  -0.227  51.954  1.00  0.00    -0.291 OA
ENDROOT
BRANCH   8  20
HETATM   20  O1  UNL     1      27.071   3.480  50.735  1.00  0.00    -0.358 OA
HETATM   21  H4  UNL     1      27.354   3.312  49.757  1.00  0.00     0.217 HD
ENDBRANCH   8  20
TORSDOF 1
ENDMDL
MODEL 4
REMARK VINA RESULT:      -7.9      2.178      4.079
REMARK  1 active torsions:
REMARK  status: ('A' for Active; 'I' for Inactive)
REMARK    1  A    between atoms: C7_8  and  O1_9 
ROOT
HETATM    1  N1  UNL     1      29.040   0.997  54.950  1.00  0.00    -0.191 NA
HETATM    2  C1  UNL     1      28.067   1.016  54.278  1.00  0.00     0.103 C 
HETATM    3  C2  UNL     1      26.859   1.030  53.471  1.00  0.00     0.091 C 
HETATM    4  C3  UNL     1      26.851   2.104  52.707  1.00  0.00     0.038 C 
HETATM    5  C4  UNL     1      25.853   2.544  51.743  1.00  0.00    -0.032 A 
HETATM    6  C5  UNL     1      26.016   2.849  50.409  1.00  0.00     0.014 A 
HETATM    7  C6  UNL     1      24.916   3.249  49.686  1.00  0.00     0.040 A 
HETATM    8  C7  UNL     1      23.665   3.358  50.232  1.00  0.00     0.099 A 
HETATM    9  C8  UNL     1      23.479   3.058  51.562  1.00  0.00     0.102 A 
HETATM   10  C9  UNL     1      24.580   2.647  52.333  1.00  0.00     0.051 A 
HETATM   11  O2  UNL     1      22.293   3.098  52.319  1.00  0.00    -0.348 OA
HETATM   12  C10 UNL     1      21.356   2.110  52.028  1.00  0.00     0.182 C 
HETATM   13  C11 UNL     1      21.810   0.702  52.178  1.00  0.00     0.096 C 
HETATM   14  C12 UNL     1      22.287   0.276  53.485  1.00  0.00     0.092 C 
HETATM   15  F1  UNL     1      21.409   0.433  54.507  1.00  0.00    -0.211 F 
HETATM   16  C13 UNL     1      23.481  -0.258  53.829  1.00  0.00     0.019 C 
HETATM   17  C14 UNL     1      24.650  -0.557  52.961  1.00  0.00     0.114 C 
HETATM   18  C15 UNL     1      25.883  -0.012  53.502  1.00  0.00     0.173 C 
HETATM   19  O3  UNL     1      26.203  -0.880  54.394  1.00  0.00    -0.291 OA
ENDROOT
BRANCH   8  20
HETATM   20  O1  UNL     1      22.532   3.753  49.549  1.00  0.00    -0.358 OA
HETATM   21  H4  UNL     1      21.929   4.484  49.957  1.00  0.00     0.217 HD
ENDBRANCH   8  20
TORSDOF 1
ENDMDL
MODEL 5
REMARK VINA RESULT:      -7.6      3.139      5.508
REMARK  1 active torsions:
REMARK  status: ('A' for Active; 'I' for Inactive)
REMARK    1  A    between atoms: C7_8  and  O1_9 
ROOT
HETATM    1  N1  UNL     1      24.747   5.118  48.857  1.00  0.00    -0.191 NA
HETATM    2  C1  UNL     1      24.914   4.386  49.770  1.00  0.00     0.103 C 
HETATM    3  C2  UNL     1      25.098   3.476  50.888  1.00  0.00     0.091 C 
HETATM    4  C3  UNL     1      26.360   3.103  50.949  1.00  0.00     0.038 C 
HETATM    5  C4  UNL     1      27.012   2.202  51.890  1.00  0.00    -0.032 A 
HETATM    6  C5  UNL     1      28.107   2.437  52.693  1.00  0.00     0.014 A 
HETATM    7  C6  UNL     1      28.553   1.426  53.512  1.00  0.00     0.040 A 
HETATM    8  C7  UNL     1      27.955   0.195  53.566  1.00  0.00     0.099 A 
HETATM    9  C8  UNL     1      26.860  -0.061  52.775  1.00  0.00     0.102 A 
HETATM   10  C9  UNL     1      26.377   0.948  51.924  1.00  0.00     0.051 A 
HETATM   11  O2  UNL     1      26.099  -1.242  52.675  1.00  0.00    -0.348 OA
HETATM   12  C10 UNL     1      25.298  -1.539  53.775  1.00  0.00     0.182 C 
HETATM   13  C11 UNL     1      24.291  -0.515  54.159  1.00  0.00     0.096 C 
HETATM   14  C12 UNL     1      23.296  -0.133  53.167  1.00  0.00     0.092 C 
HETATM   15  F1  UNL     1      22.541  -1.149  52.678  1.00  0.00    -0.211 F 
HETATM   16  C13 UNL     1      23.013   1.089  52.664  1.00  0.00     0.019 C 
HETATM   17  C14 UNL     1      23.647   2.395  52.982  1.00  0.00     0.114 C 
HETATM   18  C15 UNL     1      24.047   3.113  51.783  1.00  0.00     0.173 C 
HETATM   19  O3  UNL     1      22.942   3.638  51.392  1.00  0.00    -0.291 OA
ENDROOT
BRANCH   8  20
HETATM   20  O1  UNL     1      28.364  -0.850  54.372  1.00  0.00    -0.358 OA
HETATM   21  H4  UNL     1      29.296  -0.811  54.812  1.00  0.00     0.217 HD
ENDBRANCH   8  20
TORSDOF 1
ENDMDL
MODEL 6
REMARK VINA RESULT:      -7.5      2.030      2.909
REMARK  1 active torsions:
REMARK  status: ('A' for Active; 'I' for Inactive)
REMARK    1  A    between atoms: C7_8  and  O1_9 
ROOT
HETATM    1  N1  UNL     1      25.273  -1.157  54.933  1.00  0.00    -0.191 NA
HETATM    2  C1  UNL     1      24.536  -0.528  54.255  1.00  0.00     0.103 C 
HETATM    3  C2  UNL     1      23.649   0.254  53.411  1.00  0.00     0.091 C 
HETATM    4  C3  UNL     1      22.553  -0.435  53.166  1.00  0.00     0.038 C 
HETATM    5  C4  UNL     1      21.390  -0.067  52.371  1.00  0.00    -0.032 A 
HETATM    6  C5  UNL     1      20.063  -0.040  52.742  1.00  0.00     0.014 A 
HETATM    7  C6  UNL     1      19.126   0.345  51.812  1.00  0.00     0.040 A 
HETATM    8  C7  UNL     1      19.453   0.702  50.531  1.00  0.00     0.099 A 
HETATM    9  C8  UNL     1      20.771   0.683  50.138  1.00  0.00     0.102 A 
HETATM   10  C9  UNL     1      21.757   0.294  51.062  1.00  0.00     0.051 A 
HETATM   11  O2  UNL     1      21.325   1.011  48.885  1.00  0.00    -0.348 OA
HETATM   12  C10 UNL     1      21.308   2.362  48.553  1.00  0.00     0.182 C 
HETATM   13  C11 UNL     1      22.007   3.284  49.487  1.00  0.00     0.096 C 
HETATM   14  C12 UNL     1      23.424   3.061  49.731  1.00  0.00     0.092 C 
HETATM   15  F1  UNL     1      24.215   3.071  48.629  1.00  0.00    -0.211 F 
HETATM   16  C13 UNL     1      24.069   2.845  50.899  1.00  0.00     0.019 C 
HETATM   17  C14 UNL     1      23.505   2.772  52.272  1.00  0.00     0.114 C 
HETATM   18  C15 UNL     1      23.947   1.582  52.980  1.00  0.00     0.173 C 
HETATM   19  O3  UNL     1      25.121   1.916  53.379  1.00  0.00    -0.291 OA
ENDROOT
BRANCH   8  20
HETATM   20  O1  UNL     1      18.550   1.096  49.562  1.00  0.00    -0.358 OA
HETATM   21  H4  UNL     1      18.582   0.647  48.634  1.00  0.00     0.217 HD
ENDBRANCH   8  20
TORSDOF 1
ENDMDL
MODEL 7
REMARK VINA RESULT:      -7.4      3.252      5.238
REMARK  1 active torsions:
REMARK  status: ('A' for Active; 'I' for Inactive)
REMARK    1  A    between atoms: C7_8  and  O1_9 
ROOT
HETATM    1  N1  UNL     1      18.681   3.591  51.931  1.00  0.00    -0.191 NA
HETATM    2  C1  UNL     1      19.762   3.129  51.805  1.00  0.00     0.103 C 
HETATM    3  C2  UNL     1      21.097   2.581  51.640  1.00  0.00     0.091 C 
HETATM    4  C3  UNL     1      21.406   1.849  52.691  1.00  0.00     0.038 C 
HETATM    5  C4  UNL     1      22.629   1.111  52.975  1.00  0.00    -0.032 A 
HETATM    6  C5  UNL     1      22.782  -0.224  53.279  1.00  0.00     0.014 A 
HETATM    7  C6  UNL     1      24.048  -0.707  53.512  1.00  0.00     0.040 A 
HETATM    8  C7  UNL     1      25.167   0.082  53.456  1.00  0.00     0.099 A 
HETATM    9  C8  UNL     1      25.038   1.418  53.154  1.00  0.00     0.102 A 
HETATM   10  C9  UNL     1      23.759   1.947  52.911  1.00  0.00     0.051 A 
HETATM   11  O2  UNL     1      26.043   2.399  53.042  1.00  0.00    -0.348 OA
HETATM   12  C10 UNL     1      26.873   2.289  51.930  1.00  0.00     0.182 C 
HETATM   13  C11 UNL     1      26.209   2.327  50.600  1.00  0.00     0.096 C 
HETATM   14  C12 UNL     1      25.424   3.505  50.264  1.00  0.00     0.092 C 
HETATM   15  F1  UNL     1      26.092   4.685  50.315  1.00  0.00    -0.211 F 
HETATM   16  C13 UNL     1      24.124   3.596  49.906  1.00  0.00     0.019 C 
HETATM   17  C14 UNL     1      23.123   2.507  49.757  1.00  0.00     0.114 C 
HETATM   18  C15 UNL     1      21.893   2.796  50.475  1.00  0.00     0.173 C 
HETATM   19  O3  UNL     1      21.284   3.593  49.673  1.00  0.00    -0.291 OA
ENDROOT
BRANCH   8  20
HETATM   20  O1  UNL     1      26.458  -0.355  53.682  1.00  0.00    -0.358 OA
HETATM   21  H4  UNL     1      27.057  -0.588  52.875  1.00  0.00     0.217 HD
ENDBRANCH   8  20
TORSDOF 1
ENDMDL
MODEL 8
REMARK VINA RESULT:      -7.4      2.172      2.693
REMARK  1 active torsions:
REMARK  status: ('A' for Active; 'I' for Inactive)
REMARK    1  A    between atoms: C7_8  and  O1_9 
ROOT
HETATM    1  N1  UNL     1      27.050   1.819  51.609  1.00  0.00    -0.191 NA
HETATM    2  C1  UNL     1      25.905   1.808  51.904  1.00  0.00     0.103 C 
HETATM    3  C2  UNL     1      24.494   1.810  52.249  1.00  0.00     0.091 C 
HETATM    4  C3  UNL     1      24.145   0.616  52.685  1.00  0.00     0.038 C 
HETATM    5  C4  UNL     1      22.845   0.142  53.137  1.00  0.00    -0.032 A 
HETATM    6  C5  UNL     1      22.510  -0.449  54.337  1.00  0.00     0.014 A 
HETATM    7  C6  UNL     1      21.203  -0.819  54.546  1.00  0.00     0.040 A 
HETATM    8  C7  UNL     1      20.216  -0.628  53.615  1.00  0.00     0.099 A 
HETATM    9  C8  UNL     1      20.528  -0.040  52.411  1.00  0.00     0.102 A 
HETATM   10  C9  UNL     1      21.854   0.351  52.161  1.00  0.00     0.051 A 
HETATM   11  O2  UNL     1      19.680   0.251  51.325  1.00  0.00    -0.348 OA
HETATM   12  C10 UNL     1      18.773   1.288  51.528  1.00  0.00     0.182 C 
HETATM   13  C11 UNL     1      19.347   2.614  51.878  1.00  0.00     0.096 C 
HETATM   14  C12 UNL     1      20.279   3.221  50.940  1.00  0.00     0.092 C 
HETATM   15  F1  UNL     1      19.804   3.407  49.682  1.00  0.00    -0.211 F 
HETATM   16  C13 UNL     1      21.552   3.630  51.140  1.00  0.00     0.019 C 
HETATM   17  C14 UNL     1      22.363   3.570  52.384  1.00  0.00     0.114 C 
HETATM   18  C15 UNL     1      23.666   2.969  52.156  1.00  0.00     0.173 C 
HETATM   19  O3  UNL     1      24.337   3.943  51.655  1.00  0.00    -0.291 OA
ENDROOT
BRANCH   8  20
HETATM   20  O1  UNL     1      18.891  -0.982  53.778  1.00  0.00    -0.358 OA
HETATM   21  H4  UNL     1      18.323  -1.199  52.945  1.00  0.00     0.217 HD
ENDBRANCH   8  20
TORSDOF 1
ENDMDL
MODEL 9
REMARK VINA RESULT:      -7.3      3.284      4.920
REMARK  1 active torsions:
REMARK  status: ('A' for Active; 'I' for Inactive)
REMARK    1  A    between atoms: C7_8  and  O1_9 
ROOT
HETATM    1  N1  UNL     1      23.386   7.305  50.844  1.00  0.00    -0.191 NA
HETATM    2  C1  UNL     1      23.579   6.140  50.917  1.00  0.00     0.103 C 
HETATM    3  C2  UNL     1      23.840   4.714  51.010  1.00  0.00     0.091 C 
HETATM    4  C3  UNL     1      22.812   4.115  51.577  1.00  0.00     0.038 C 
HETATM    5  C4  UNL     1      22.620   2.704  51.883  1.00  0.00    -0.032 A 
HETATM    6  C5  UNL     1      21.589   1.871  51.505  1.00  0.00     0.014 A 
HETATM    7  C6  UNL     1      21.618   0.559  51.917  1.00  0.00     0.040 A 
HETATM    8  C7  UNL     1      22.627   0.042  52.686  1.00  0.00     0.099 A 
HETATM    9  C8  UNL     1      23.666   0.856  53.074  1.00  0.00     0.102 A 
HETATM   10  C9  UNL     1      23.669   2.203  52.674  1.00  0.00     0.051 A 
HETATM   11  O2  UNL     1      24.794   0.536  53.855  1.00  0.00    -0.348 OA
HETATM   12  C10 UNL     1      25.741  -0.279  53.242  1.00  0.00     0.182 C 
HETATM   13  C11 UNL     1      26.334   0.228  51.976  1.00  0.00     0.096 C 
HETATM   14  C12 UNL     1      27.029   1.506  52.014  1.00  0.00     0.092 C 
HETATM   15  F1  UNL     1      28.057   1.585  52.896  1.00  0.00    -0.211 F 
HETATM   16  C13 UNL     1      26.800   2.628  51.295  1.00  0.00     0.019 C 
HETATM   17  C14 UNL     1      25.764   2.872  50.259  1.00  0.00     0.114 C 
HETATM   18  C15 UNL     1      25.025   4.099  50.505  1.00  0.00     0.173 C 
HETATM   19  O3  UNL     1      25.823   4.999  50.054  1.00  0.00    -0.291 OA
ENDROOT
BRANCH   8  20
HETATM   20  O1  UNL     1      22.701  -1.266  53.123  1.00  0.00    -0.358 OA
HETATM   21  H4  UNL     1      22.225  -2.004  52.582  1.00  0.00     0.217 HD
ENDBRANCH   8  20
TORSDOF 1
ENDMDL
