MODEL 1
REMARK VINA RESULT:      -9.4      0.000      0.000
REMARK  2 active torsions:
REMARK  status: ('A' for Active; 'I' for Inactive)
REMARK    1  A    between atoms: C1_2  and  C2_3 
REMARK    2  A    between atoms: C1_2  and  C17_22 
ROOT
HETATM    1  C2  UNL     1      25.255   3.044  51.100  1.00  0.00    -0.015 C 
HETATM    2  C3  UNL     1      26.193   2.053  51.217  1.00  0.00     0.053 C 
HETATM    3  C4  UNL     1      26.924   0.801  51.609  1.00  0.00    -0.019 C 
HETATM    4  C5  UNL     1      26.961  -0.372  52.279  1.00  0.00    -0.010 C 
HETATM    5  C6  UNL     1      26.048  -1.145  53.122  1.00  0.00     0.165 C 
HETATM    6  N1  UNL     1      26.129  -0.977  54.571  1.00  0.00    -0.219 N 
HETATM    7  C7  UNL     1      25.466   0.307  54.256  1.00  0.00     0.723 A 
HETATM    8  N2  UNL     1      26.260   1.432  54.220  1.00  0.00    -0.075 NA
HETATM    9  C8  UNL     1      25.607   2.462  53.551  1.00  0.00     0.146 A 
HETATM   10  C9  UNL     1      24.346   2.102  53.097  1.00  0.00    -0.006 A 
HETATM   11  C10 UNL     1      23.543   1.024  53.128  1.00  0.00     0.095 A 
HETATM   12  C11 UNL     1      22.226   0.680  52.691  1.00  0.00     0.011 A 
HETATM   13  C12 UNL     1      21.609   0.747  51.463  1.00  0.00     0.017 A 
HETATM   14  C13 UNL     1      20.293   0.411  51.236  1.00  0.00     0.020 A 
HETATM   15  C14 UNL     1      19.606  -0.012  52.351  1.00  0.00     0.116 A 
HETATM   16  N3  UNL     1      20.131  -0.107  53.583  1.00  0.00    -0.272 NA
HETATM   17  C15 UNL     1      21.439   0.236  53.767  1.00  0.00     0.130 A 
HETATM   18  N4  UNL     1      24.194   0.056  53.777  1.00  0.00    -0.062 NA
HETATM   19  C16 UNL     1      24.008   3.150  52.040  1.00  0.00     0.081 C 
HETATM   20  H6  UNL     1      26.524  -1.618  55.293  1.00  0.00     0.178 HD
ENDROOT
BRANCH   1  21
HETATM   21  C1  UNL     1      25.974   3.847  50.159  1.00  0.00     0.192 C 
HETATM   22  O1  UNL     1      27.189   3.636  50.062  1.00  0.00    -0.287 OA
BRANCH  21  23
HETATM   23  C17 UNL     1      25.279   4.830  49.394  1.00  0.00     0.055 A 
HETATM   24  C18 UNL     1      23.991   5.033  48.846  1.00  0.00     0.023 A 
HETATM   25  C19 UNL     1      23.769   6.178  48.155  1.00  0.00     0.009 A 
HETATM   26  C20 UNL     1      24.770   7.163  47.965  1.00  0.00     0.050 A 
HETATM   27  S1  UNL     1      26.239   6.382  48.886  1.00  0.00    -0.098 SA
ENDBRANCH  21  23
ENDBRANCH   1  21
TORSDOF 2
ENDMDL
MODEL 2
REMARK VINA RESULT:      -9.0      3.462      6.895
REMARK  2 active torsions:
REMARK  status: ('A' for Active; 'I' for Inactive)
REMARK    1  A    between atoms: C1_2  and  C2_3 
REMARK    2  A    between atoms: C1_2  and  C17_22 
ROOT
HETATM    1  C2  UNL     1      24.486   1.571  52.304  1.00  0.00    -0.015 C 
HETATM    2  C3  UNL     1      23.396   1.164  51.583  1.00  0.00     0.053 C 
HETATM    3  C4  UNL     1      22.241   1.112  50.624  1.00  0.00    -0.019 C 
HETATM    4  C5  UNL     1      21.503   1.687  49.649  1.00  0.00    -0.010 C 
HETATM    5  C6  UNL     1      21.531   2.936  48.888  1.00  0.00     0.165 C 
HETATM    6  N1  UNL     1      20.725   4.059  49.363  1.00  0.00    -0.219 N 
HETATM    7  C7  UNL     1      21.793   4.132  50.383  1.00  0.00     0.723 A 
HETATM    8  N2  UNL     1      21.521   3.591  51.620  1.00  0.00    -0.075 NA
HETATM    9  C8  UNL     1      22.700   3.382  52.327  1.00  0.00     0.146 A 
HETATM   10  C9  UNL     1      23.832   3.764  51.620  1.00  0.00    -0.006 A 
HETATM   11  C10 UNL     1      24.129   4.304  50.425  1.00  0.00     0.095 A 
HETATM   12  C11 UNL     1      25.300   4.730  49.725  1.00  0.00     0.011 A 
HETATM   13  C12 UNL     1      26.475   4.089  49.405  1.00  0.00     0.017 A 
HETATM   14  C13 UNL     1      27.533   4.685  48.756  1.00  0.00     0.020 A 
HETATM   15  C14 UNL     1      27.340   6.009  48.434  1.00  0.00     0.116 A 
HETATM   16  N3  UNL     1      26.226   6.708  48.708  1.00  0.00    -0.272 NA
HETATM   17  C15 UNL     1      25.200   6.081  49.353  1.00  0.00     0.130 A 
HETATM   18  N4  UNL     1      22.980   4.494  49.773  1.00  0.00    -0.062 NA
HETATM   19  C16 UNL     1      24.982   3.056  52.332  1.00  0.00     0.081 C 
HETATM   20  H6  UNL     1      19.833   4.444  48.984  1.00  0.00     0.178 HD
ENDROOT
BRANCH   1  21
HETATM   21  C1  UNL     1      24.671   0.353  53.033  1.00  0.00     0.192 C 
HETATM   22  O1  UNL     1      23.669  -0.129  53.573  1.00  0.00    -0.287 OA
BRANCH  21  23
HETATM   23  C17 UNL     1      25.968  -0.237  53.103  1.00  0.00     0.055 A 
HETATM   24  C18 UNL     1      26.668  -1.331  52.542  1.00  0.00     0.023 A 
HETATM   25  C19 UNL     1      27.957  -1.519  52.920  1.00  0.00     0.009 A 
HETATM   26  C20 UNL     1      28.615  -0.669  53.843  1.00  0.00     0.050 A 
HETATM   27  S1  UNL     1      27.238   0.579  54.247  1.00  0.00    -0.098 SA
ENDBRANCH  21  23
ENDBRANCH   1  21
TORSDOF 2
ENDMDL
MODEL 3
REMARK VINA RESULT:      -8.4      4.009      7.393
REMARK  2 active torsions:
REMARK  status: ('A' for Active; 'I' for Inactive)
REMARK    1  A    between atoms: C1_2  and  C2_3 
REMARK    2  A    between atoms: C1_2  and  C17_22 
ROOT
HETATM    1  C2  UNL     1      23.788   2.710  51.437  1.00  0.00    -0.015 C 
HETATM    2  C3  UNL     1      23.017   2.108  50.479  1.00  0.00     0.053 C 
HETATM    3  C4  UNL     1      22.245   1.820  49.223  1.00  0.00    -0.019 C 
HETATM    4  C5  UNL     1      21.840   2.188  47.988  1.00  0.00    -0.010 C 
HETATM    5  C6  UNL     1      22.055   3.325  47.091  1.00  0.00     0.165 C 
HETATM    6  N1  UNL     1      21.083   4.416  47.106  1.00  0.00    -0.219 N 
HETATM    7  C7  UNL     1      21.752   4.725  48.388  1.00  0.00     0.723 A 
HETATM    8  N2  UNL     1      21.115   4.326  49.543  1.00  0.00    -0.075 NA
HETATM    9  C8  UNL     1      22.006   4.326  50.611  1.00  0.00     0.146 A 
HETATM   10  C9  UNL     1      23.287   4.720  50.250  1.00  0.00    -0.006 A 
HETATM   11  C10 UNL     1      23.933   5.127  49.142  1.00  0.00     0.095 A 
HETATM   12  C11 UNL     1      25.246   5.570  48.794  1.00  0.00     0.011 A 
HETATM   13  C12 UNL     1      26.491   5.010  48.967  1.00  0.00     0.017 A 
HETATM   14  C13 UNL     1      27.672   5.617  48.603  1.00  0.00     0.020 A 
HETATM   15  C14 UNL     1      27.530   6.863  48.036  1.00  0.00     0.116 A 
HETATM   16  N3  UNL     1      26.355   7.480  47.830  1.00  0.00    -0.272 NA
HETATM   17  C15 UNL     1      25.206   6.845  48.205  1.00  0.00     0.130 A 
HETATM   18  N4  UNL     1      23.054   5.118  48.139  1.00  0.00    -0.062 NA
HETATM   19  C16 UNL     1      24.173   4.227  51.390  1.00  0.00     0.081 C 
HETATM   20  H6  UNL     1      20.347   4.659  46.408  1.00  0.00     0.178 HD
ENDROOT
BRANCH   1  21
HETATM   21  C1  UNL     1      23.784   1.621  52.366  1.00  0.00     0.192 C 
HETATM   22  O1  UNL     1      22.752   1.458  53.026  1.00  0.00    -0.287 OA
BRANCH  21  23
HETATM   23  C17 UNL     1      24.939   0.792  52.486  1.00  0.00     0.055 A 
HETATM   24  C18 UNL     1      26.206   0.643  51.876  1.00  0.00     0.023 A 
HETATM   25  C19 UNL     1      27.023  -0.334  52.343  1.00  0.00     0.009 A 
HETATM   26  C20 UNL     1      26.655  -1.196  53.406  1.00  0.00     0.050 A 
HETATM   27  S1  UNL     1      24.913  -0.553  53.818  1.00  0.00    -0.098 SA
ENDBRANCH  21  23
ENDBRANCH   1  21
TORSDOF 2
ENDMDL
MODEL 4
REMARK VINA RESULT:      -8.3      2.513      4.885
REMARK  2 active torsions:
REMARK  status: ('A' for Active; 'I' for Inactive)
REMARK    1  A    between atoms: C1_2  and  C2_3 
REMARK    2  A    between atoms: C1_2  and  C17_22 
ROOT
HETATM    1  C2  UNL     1      22.425   3.042  51.808  1.00  0.00    -0.015 C 
HETATM    2  C3  UNL     1      21.468   2.551  52.655  1.00  0.00     0.053 C 
HETATM    3  C4  UNL     1      20.706   1.697  53.627  1.00  0.00    -0.019 C 
HETATM    4  C5  UNL     1      20.633   0.602  54.417  1.00  0.00    -0.010 C 
HETATM    5  C6  UNL     1      21.512  -0.511  54.776  1.00  0.00     0.165 C 
HETATM    6  N1  UNL     1      21.400  -1.757  54.022  1.00  0.00    -0.219 N 
HETATM    7  C7  UNL     1      22.092  -0.958  52.988  1.00  0.00     0.723 A 
HETATM    8  N2  UNL     1      21.319  -0.436  51.974  1.00  0.00    -0.075 NA
HETATM    9  C8  UNL     1      22.005   0.581  51.318  1.00  0.00     0.146 A 
HETATM   10  C9  UNL     1      23.271   0.809  51.842  1.00  0.00    -0.006 A 
HETATM   11  C10 UNL     1      24.054   0.311  52.815  1.00  0.00     0.095 A 
HETATM   12  C11 UNL     1      25.374   0.528  53.317  1.00  0.00     0.011 A 
HETATM   13  C12 UNL     1      26.021   1.655  53.769  1.00  0.00     0.017 A 
HETATM   14  C13 UNL     1      27.336   1.685  54.177  1.00  0.00     0.020 A 
HETATM   15  C14 UNL     1      27.990   0.476  54.103  1.00  0.00     0.116 A 
HETATM   16  N3  UNL     1      27.434  -0.670  53.675  1.00  0.00    -0.272 NA
HETATM   17  C15 UNL     1      26.128  -0.657  53.279  1.00  0.00     0.130 A 
HETATM   18  N4  UNL     1      23.371  -0.662  53.422  1.00  0.00    -0.062 NA
HETATM   19  C16 UNL     1      23.651   2.195  51.329  1.00  0.00     0.081 C 
HETATM   20  H6  UNL     1      20.978  -2.669  54.303  1.00  0.00     0.178 HD
ENDROOT
BRANCH   1  21
HETATM   21  C1  UNL     1      21.742   4.251  51.463  1.00  0.00     0.192 C 
HETATM   22  O1  UNL     1      20.508   4.193  51.398  1.00  0.00    -0.287 OA
BRANCH  21  23
HETATM   23  C17 UNL     1      22.492   5.439  51.216  1.00  0.00     0.055 A 
HETATM   24  C18 UNL     1      23.807   5.922  51.407  1.00  0.00     0.023 A 
HETATM   25  C19 UNL     1      24.085   7.185  50.996  1.00  0.00     0.009 A 
HETATM   26  C20 UNL     1      23.115   8.022  50.391  1.00  0.00     0.050 A 
HETATM   27  S1  UNL     1      21.589   6.887  50.394  1.00  0.00    -0.098 SA
ENDBRANCH  21  23
ENDBRANCH   1  21
TORSDOF 2
ENDMDL
MODEL 5
REMARK VINA RESULT:      -8.3      3.579      6.694
REMARK  2 active torsions:
REMARK  status: ('A' for Active; 'I' for Inactive)
REMARK    1  A    between atoms: C1_2  and  C2_3 
REMARK    2  A    between atoms: C1_2  and  C17_22 
ROOT
HETATM    1  C2  UNL     1      20.910   1.548  51.447  1.00  0.00    -0.015 C 
HETATM    2  C3  UNL     1      21.355   1.996  50.232  1.00  0.00     0.053 C 
HETATM    3  C4  UNL     1      22.192   2.584  49.132  1.00  0.00    -0.019 C 
HETATM    4  C5  UNL     1      23.355   3.127  48.709  1.00  0.00    -0.010 C 
HETATM    5  C6  UNL     1      24.659   3.439  49.294  1.00  0.00     0.165 C 
HETATM    6  N1  UNL     1      24.886   4.788  49.809  1.00  0.00    -0.219 N 
HETATM    7  C7  UNL     1      24.012   4.301  50.899  1.00  0.00     0.723 A 
HETATM    8  N2  UNL     1      22.690   4.684  50.864  1.00  0.00    -0.075 NA
HETATM    9  C8  UNL     1      21.927   3.867  51.692  1.00  0.00     0.146 A 
HETATM   10  C9  UNL     1      22.678   2.888  52.330  1.00  0.00    -0.006 A 
HETATM   11  C10 UNL     1      23.963   2.499  52.395  1.00  0.00     0.095 A 
HETATM   12  C11 UNL     1      24.730   1.513  53.091  1.00  0.00     0.011 A 
HETATM   13  C12 UNL     1      24.610   0.147  53.192  1.00  0.00     0.017 A 
HETATM   14  C13 UNL     1      25.428  -0.650  53.963  1.00  0.00     0.020 A 
HETATM   15  C14 UNL     1      26.409   0.027  54.650  1.00  0.00     0.116 A 
HETATM   16  N3  UNL     1      26.596   1.357  54.606  1.00  0.00    -0.272 NA
HETATM   17  C15 UNL     1      25.763   2.110  53.831  1.00  0.00     0.130 A 
HETATM   18  N4  UNL     1      24.667   3.302  51.595  1.00  0.00    -0.062 NA
HETATM   19  C16 UNL     1      21.649   1.859  52.791  1.00  0.00     0.081 C 
HETATM   20  H6  UNL     1      25.451   5.566  49.407  1.00  0.00     0.178 HD
ENDROOT
BRANCH   1  21
HETATM   21  C1  UNL     1      19.640   1.066  50.995  1.00  0.00     0.192 C 
HETATM   22  O1  UNL     1      19.230   1.510  49.916  1.00  0.00    -0.287 OA
BRANCH  21  23
HETATM   23  C17 UNL     1      18.923   0.120  51.785  1.00  0.00     0.055 A 
HETATM   24  C18 UNL     1      19.106  -0.627  52.972  1.00  0.00     0.023 A 
HETATM   25  C19 UNL     1      18.099  -1.446  53.368  1.00  0.00     0.009 A 
HETATM   26  C20 UNL     1      16.890  -1.576  52.641  1.00  0.00     0.050 A 
HETATM   27  S1  UNL     1      17.196  -0.382  51.193  1.00  0.00    -0.098 SA
ENDBRANCH  21  23
ENDBRANCH   1  21
TORSDOF 2
ENDMDL
MODEL 6
REMARK VINA RESULT:      -8.2      3.919      7.341
REMARK  2 active torsions:
REMARK  status: ('A' for Active; 'I' for Inactive)
REMARK    1  A    between atoms: C1_2  and  C2_3 
REMARK    2  A    between atoms: C1_2  and  C17_22 
ROOT
HETATM    1  C2  UNL     1      24.074   2.234  51.490  1.00  0.00    -0.015 C 
HETATM    2  C3  UNL     1      23.185   1.787  50.550  1.00  0.00     0.053 C 
HETATM    3  C4  UNL     1      22.298   1.679  49.343  1.00  0.00    -0.019 C 
HETATM    4  C5  UNL     1      21.831   2.194  48.184  1.00  0.00    -0.010 C 
HETATM    5  C6  UNL     1      22.069   3.393  47.379  1.00  0.00     0.165 C 
HETATM    6  N1  UNL     1      21.194   4.547  47.574  1.00  0.00    -0.219 N 
HETATM    7  C7  UNL     1      21.982   4.680  48.818  1.00  0.00     0.723 A 
HETATM    8  N2  UNL     1      21.405   4.219  49.981  1.00  0.00    -0.075 NA
HETATM    9  C8  UNL     1      22.373   4.050  50.966  1.00  0.00     0.146 A 
HETATM   10  C9  UNL     1      23.650   4.381  50.536  1.00  0.00    -0.006 A 
HETATM   11  C10 UNL     1      24.240   4.844  49.419  1.00  0.00     0.095 A 
HETATM   12  C11 UNL     1      25.555   5.220  49.003  1.00  0.00     0.011 A 
HETATM   13  C12 UNL     1      26.759   4.555  49.019  1.00  0.00     0.017 A 
HETATM   14  C13 UNL     1      27.955   5.104  48.615  1.00  0.00     0.020 A 
HETATM   15  C14 UNL     1      27.872   6.406  48.176  1.00  0.00     0.116 A 
HETATM   16  N3  UNL     1      26.739   7.126  48.127  1.00  0.00    -0.272 NA
HETATM   17  C15 UNL     1      25.575   6.545  48.538  1.00  0.00     0.130 A 
HETATM   18  N4  UNL     1      23.289   4.997  48.497  1.00  0.00    -0.062 NA
HETATM   19  C16 UNL     1      24.578   3.715  51.549  1.00  0.00     0.081 C 
HETATM   20  H6  UNL     1      20.429   4.911  46.965  1.00  0.00     0.178 HD
ENDROOT
BRANCH   1  21
HETATM   21  C1  UNL     1      24.052   1.063  52.314  1.00  0.00     0.192 C 
HETATM   22  O1  UNL     1      25.107   0.422  52.397  1.00  0.00    -0.287 OA
BRANCH  21  23
HETATM   23  C17 UNL     1      22.849   0.696  52.986  1.00  0.00     0.055 A 
HETATM   24  C18 UNL     1      21.553   1.219  53.203  1.00  0.00     0.023 A 
HETATM   25  C19 UNL     1      20.689   0.484  53.946  1.00  0.00     0.009 A 
HETATM   26  C20 UNL     1      21.037  -0.773  54.503  1.00  0.00     0.050 A 
HETATM   27  S1  UNL     1      22.832  -0.960  53.904  1.00  0.00    -0.098 SA
ENDBRANCH  21  23
ENDBRANCH   1  21
TORSDOF 2
ENDMDL
MODEL 7
REMARK VINA RESULT:      -8.1      2.107      4.632
REMARK  2 active torsions:
REMARK  status: ('A' for Active; 'I' for Inactive)
REMARK    1  A    between atoms: C1_2  and  C2_3 
REMARK    2  A    between atoms: C1_2  and  C17_22 
ROOT
HETATM    1  C2  UNL     1      23.369   3.858  50.345  1.00  0.00    -0.015 C 
HETATM    2  C3  UNL     1      22.102   3.890  50.863  1.00  0.00     0.053 C 
HETATM    3  C4  UNL     1      20.838   3.549  51.598  1.00  0.00    -0.019 C 
HETATM    4  C5  UNL     1      20.144   2.724  52.414  1.00  0.00    -0.010 C 
HETATM    5  C6  UNL     1      20.405   1.484  53.147  1.00  0.00     0.165 C 
HETATM    6  N1  UNL     1      20.052   0.215  52.515  1.00  0.00    -0.219 N 
HETATM    7  C7  UNL     1      21.251   0.516  51.704  1.00  0.00     0.723 A 
HETATM    8  N2  UNL     1      21.046   1.041  50.447  1.00  0.00    -0.075 NA
HETATM    9  C8  UNL     1      22.216   1.622  49.969  1.00  0.00     0.146 A 
HETATM   10  C9  UNL     1      23.274   1.529  50.863  1.00  0.00    -0.006 A 
HETATM   11  C10 UNL     1      23.509   1.014  52.083  1.00  0.00     0.095 A 
HETATM   12  C11 UNL     1      24.617   0.890  52.977  1.00  0.00     0.011 A 
HETATM   13  C12 UNL     1      25.484   1.813  53.514  1.00  0.00     0.017 A 
HETATM   14  C13 UNL     1      26.544   1.497  54.334  1.00  0.00     0.020 A 
HETATM   15  C14 UNL     1      26.692   0.154  54.594  1.00  0.00     0.116 A 
HETATM   16  N3  UNL     1      25.892  -0.811  54.111  1.00  0.00    -0.272 NA
HETATM   17  C15 UNL     1      24.852  -0.457  53.301  1.00  0.00     0.130 A 
HETATM   18  N4  UNL     1      22.371   0.463  52.512  1.00  0.00    -0.062 NA
HETATM   19  C16 UNL     1      24.272   2.580  50.383  1.00  0.00     0.081 C 
HETATM   20  H6  UNL     1      19.259  -0.431  52.720  1.00  0.00     0.178 HD
ENDROOT
BRANCH   1  21
HETATM   21  C1  UNL     1      23.313   5.125  49.682  1.00  0.00     0.192 C 
HETATM   22  O1  UNL     1      22.211   5.474  49.241  1.00  0.00    -0.287 OA
BRANCH  21  23
HETATM   23  C17 UNL     1      24.497   5.912  49.562  1.00  0.00     0.055 A 
HETATM   24  C18 UNL     1      25.732   5.871  48.875  1.00  0.00     0.023 A 
HETATM   25  C19 UNL     1      26.603   6.892  49.075  1.00  0.00     0.009 A 
HETATM   26  C20 UNL     1      26.319   7.980  49.937  1.00  0.00     0.050 A 
HETATM   27  S1  UNL     1      24.584   7.517  50.562  1.00  0.00    -0.098 SA
ENDBRANCH  21  23
ENDBRANCH   1  21
TORSDOF 2
ENDMDL
MODEL 8
REMARK VINA RESULT:      -7.9      7.231     10.728
REMARK  2 active torsions:
REMARK  status: ('A' for Active; 'I' for Inactive)
REMARK    1  A    between atoms: C1_2  and  C2_3 
REMARK    2  A    between atoms: C1_2  and  C17_22 
ROOT
HETATM    1  C2  UNL     1      29.084   6.748  47.974  1.00  0.00    -0.015 C 
HETATM    2  C3  UNL     1      29.133   7.447  46.797  1.00  0.00     0.053 C 
HETATM    3  C4  UNL     1      29.608   8.135  45.549  1.00  0.00    -0.019 C 
HETATM    4  C5  UNL     1      30.611   8.472  44.708  1.00  0.00    -0.010 C 
HETATM    5  C6  UNL     1      32.051   8.230  44.617  1.00  0.00     0.165 C 
HETATM    6  N1  UNL     1      32.962   9.225  45.178  1.00  0.00    -0.219 N 
HETATM    7  C7  UNL     1      32.491   8.642  46.453  1.00  0.00     0.723 A 
HETATM    8  N2  UNL     1      31.524   9.338  47.144  1.00  0.00    -0.075 NA
HETATM    9  C8  UNL     1      30.913   8.513  48.083  1.00  0.00     0.146 A 
HETATM   10  C9  UNL     1      31.422   7.222  48.085  1.00  0.00    -0.006 A 
HETATM   11  C10 UNL     1      32.369   6.520  47.438  1.00  0.00     0.095 A 
HETATM   12  C11 UNL     1      32.911   5.198  47.479  1.00  0.00     0.011 A 
HETATM   13  C12 UNL     1      32.331   3.954  47.387  1.00  0.00     0.017 A 
HETATM   14  C13 UNL     1      33.019   2.766  47.500  1.00  0.00     0.020 A 
HETATM   15  C14 UNL     1      34.372   2.902  47.719  1.00  0.00     0.116 A 
HETATM   16  N3  UNL     1      35.016   4.076  47.821  1.00  0.00    -0.272 NA
HETATM   17  C15 UNL     1      34.298   5.231  47.703  1.00  0.00     0.130 A 
HETATM   18  N4  UNL     1      32.936   7.336  46.548  1.00  0.00    -0.062 NA
HETATM   19  C16 UNL     1      30.361   6.395  48.807  1.00  0.00     0.081 C 
HETATM   20  H6  UNL     1      33.566   9.922  44.692  1.00  0.00     0.178 HD
ENDROOT
BRANCH   1  21
HETATM   21  C1  UNL     1      27.662   6.784  48.132  1.00  0.00     0.192 C 
HETATM   22  O1  UNL     1      27.077   7.774  47.677  1.00  0.00    -0.287 OA
BRANCH  21  23
HETATM   23  C17 UNL     1      26.998   5.706  48.789  1.00  0.00     0.055 A 
HETATM   24  C18 UNL     1      27.159   4.312  48.967  1.00  0.00     0.023 A 
HETATM   25  C19 UNL     1      26.232   3.657  49.710  1.00  0.00     0.009 A 
HETATM   26  C20 UNL     1      25.125   4.314  50.304  1.00  0.00     0.050 A 
HETATM   27  S1  UNL     1      25.416   6.109  49.748  1.00  0.00    -0.098 SA
ENDBRANCH  21  23
ENDBRANCH   1  21
TORSDOF 2
ENDMDL
MODEL 9
REMARK VINA RESULT:      -7.8      2.908      5.211
REMARK  2 active torsions:
REMARK  status: ('A' for Active; 'I' for Inactive)
REMARK    1  A    between atoms: C1_2  and  C2_3 
REMARK    2  A    between atoms: C1_2  and  C17_22 
ROOT
HETATM    1  C2  UNL     1      22.233   3.083  51.484  1.00  0.00    -0.015 C 
HETATM    2  C3  UNL     1      21.316   2.592  52.374  1.00  0.00     0.053 C 
HETATM    3  C4  UNL     1      20.618   1.759  53.411  1.00  0.00    -0.019 C 
HETATM    4  C5  UNL     1      20.622   0.716  54.271  1.00  0.00    -0.010 C 
HETATM    5  C6  UNL     1      21.572  -0.314  54.692  1.00  0.00     0.165 C 
HETATM    6  N1  UNL     1      21.532  -1.612  54.022  1.00  0.00    -0.219 N 
HETATM    7  C7  UNL     1      22.162  -0.842  52.929  1.00  0.00     0.723 A 
HETATM    8  N2  UNL     1      21.349  -0.437  51.893  1.00  0.00    -0.075 NA
HETATM    9  C8  UNL     1      21.964   0.574  51.163  1.00  0.00     0.146 A 
HETATM   10  C9  UNL     1      23.217   0.914  51.654  1.00  0.00    -0.006 A 
HETATM   11  C10 UNL     1      24.039   0.532  52.647  1.00  0.00     0.095 A 
HETATM   12  C11 UNL     1      25.347   0.864  53.116  1.00  0.00     0.011 A 
HETATM   13  C12 UNL     1      25.926   2.056  53.483  1.00  0.00     0.017 A 
HETATM   14  C13 UNL     1      27.241   2.194  53.870  1.00  0.00     0.020 A 
HETATM   15  C14 UNL     1      27.968   1.026  53.868  1.00  0.00     0.116 A 
HETATM   16  N3  UNL     1      27.481  -0.178  53.524  1.00  0.00    -0.272 NA
HETATM   17  C15 UNL     1      26.174  -0.272  53.146  1.00  0.00     0.130 A 
HETATM   18  N4  UNL     1      23.424  -0.439  53.325  1.00  0.00    -0.062 NA
HETATM   19  C16 UNL     1      23.505   2.284  51.045  1.00  0.00     0.081 C 
HETATM   20  H6  UNL     1      21.170  -2.527  54.369  1.00  0.00     0.178 HD
ENDROOT
BRANCH   1  21
HETATM   21  C1  UNL     1      21.472   4.222  51.069  1.00  0.00     0.192 C 
HETATM   22  O1  UNL     1      21.596   5.250  51.745  1.00  0.00    -0.287 OA
BRANCH  21  23
HETATM   23  C17 UNL     1      20.626   4.127  49.924  1.00  0.00     0.055 A 
HETATM   24  C18 UNL     1      20.480   3.311  48.778  1.00  0.00     0.023 A 
HETATM   25  C19 UNL     1      19.480   3.609  47.911  1.00  0.00     0.009 A 
HETATM   26  C20 UNL     1      18.591   4.695  48.113  1.00  0.00     0.050 A 
HETATM   27  S1  UNL     1      19.241   5.407  49.752  1.00  0.00    -0.098 SA
ENDBRANCH  21  23
ENDBRANCH   1  21
TORSDOF 2
ENDMDL
