MODEL 1
REMARK VINA RESULT:      -8.0      0.000      0.000
REMARK  7 active torsions:
REMARK  status: ('A' for Active; 'I' for Inactive)
REMARK    1  A    between atoms: O1_2  and  C2_3 
REMARK    2  A    between atoms: C2_3  and  N1_5 
REMARK    3  A    between atoms: C6_8  and  N2_9 
REMARK    4  A    between atoms: C6_8  and  C17_26 
REMARK    5  A    between atoms: N2_9  and  C7_10 
REMARK    6  A    between atoms: C9_13  and  N4_14 
REMARK    7  A    between atoms: N4_14  and  C10_15 
ROOT
HETATM    1  C7  UNL     1      26.519   1.857  52.231  1.00  0.00     0.122 C 
HETATM    2  C8  UNL     1      26.028   0.423  52.495  1.00  0.00     0.134 C 
HETATM    3  N3  UNL     1      25.580   0.629  53.672  1.00  0.00    -0.076 NA
HETATM    4  C9  UNL     1      24.989  -0.350  54.461  1.00  0.00     0.738 C 
HETATM    5  N7  UNL     1      26.065  -0.424  55.232  1.00  0.00    -0.005 NA
HETATM    6  N8  UNL     1      27.126   0.418  54.906  1.00  0.00    -0.178 NA
HETATM    7  C14 UNL     1      28.419   0.267  54.305  1.00  0.00     0.078 C 
HETATM    8  C15 UNL     1      28.506   1.313  53.483  1.00  0.00    -0.011 C 
HETATM    9  C16 UNL     1      27.324   2.266  53.446  1.00  0.00     0.058 C 
HETATM   10  H21 UNL     1      27.277  -0.619  54.693  1.00  0.00     0.154 HD
ENDROOT
BRANCH   1  11
HETATM   11  N2  UNL     1      25.366   2.586  51.947  1.00  0.00    -0.395 N 
HETATM   12  H12 UNL     1      24.482   2.346  52.396  1.00  0.00     0.155 HD
BRANCH  11  13
HETATM   13  C6  UNL     1      25.187   3.245  50.721  1.00  0.00     0.153 C 
HETATM   14  C5  UNL     1      26.336   3.158  49.782  1.00  0.00     0.072 C 
HETATM   15  C4  UNL     1      26.470   4.564  49.228  1.00  0.00     0.278 C 
HETATM   16  N1  UNL     1      25.399   5.332  49.781  1.00  0.00     0.119 N 
HETATM   17  C18 UNL     1      25.035   4.726  51.020  1.00  0.00     0.315 C 
BRANCH  16  18
HETATM   18  C2  UNL     1      25.618   6.744  49.827  1.00  0.00     0.354 C 
HETATM   19  C3  UNL     1      24.456   7.351  50.581  1.00  0.00     0.073 C 
BRANCH  18  20
HETATM   20  O1  UNL     1      25.700   7.225  48.524  1.00  0.00    -0.362 OA
HETATM   21  C1  UNL     1      24.493   7.547  47.954  1.00  0.00     0.204 C 
ENDBRANCH  18  20
ENDBRANCH  16  18
BRANCH  13  22
HETATM   22  C17 UNL     1      23.873   2.859  50.031  1.00  0.00     0.414 C 
HETATM   23  F1  UNL     1      22.970   3.852  50.371  1.00  0.00    -0.168 F 
HETATM   24  F2  UNL     1      23.984   2.821  48.671  1.00  0.00    -0.168 F 
HETATM   25  F3  UNL     1      23.473   1.665  50.586  1.00  0.00    -0.168 F 
ENDBRANCH  13  22
ENDBRANCH  11  13
ENDBRANCH   1  11
BRANCH   4  26
HETATM   26  N4  UNL     1      23.824  -1.125  54.641  1.00  0.00    -0.184 N 
HETATM   27  H15 UNL     1      24.177  -1.968  55.126  1.00  0.00     0.184 HD
BRANCH  26  28
HETATM   28  C10 UNL     1      22.581  -0.648  54.183  1.00  0.00     0.085 A 
HETATM   29  C11 UNL     1      21.449  -0.312  54.867  1.00  0.00     0.170 A 
HETATM   30  N5  UNL     1      20.583   0.077  53.929  1.00  0.00    -0.183 NA
HETATM   31  N6  UNL     1      21.106   0.003  52.710  1.00  0.00    -0.283 N 
HETATM   32  C12 UNL     1      20.470   0.341  51.435  1.00  0.00     0.179 C 
HETATM   33  C13 UNL     1      22.370  -0.453  52.840  1.00  0.00     0.143 A 
ENDBRANCH  26  28
ENDBRANCH   4  26
TORSDOF 7
ENDMDL
MODEL 2
REMARK VINA RESULT:      -7.5      1.719      2.193
REMARK  7 active torsions:
REMARK  status: ('A' for Active; 'I' for Inactive)
REMARK    1  A    between atoms: O1_2  and  C2_3 
REMARK    2  A    between atoms: C2_3  and  N1_5 
REMARK    3  A    between atoms: C6_8  and  N2_9 
REMARK    4  A    between atoms: C6_8  and  C17_26 
REMARK    5  A    between atoms: N2_9  and  C7_10 
REMARK    6  A    between atoms: C9_13  and  N4_14 
REMARK    7  A    between atoms: N4_14  and  C10_15 
ROOT
HETATM    1  C7  UNL     1      25.686   1.988  52.569  1.00  0.00     0.122 C 
HETATM    2  C8  UNL     1      25.002   0.611  52.571  1.00  0.00     0.134 C 
HETATM    3  N3  UNL     1      24.898   0.493  53.837  1.00  0.00    -0.076 NA
HETATM    4  C9  UNL     1      24.333  -0.606  54.471  1.00  0.00     0.738 C 
HETATM    5  N7  UNL     1      25.526  -1.040  54.853  1.00  0.00    -0.005 NA
HETATM    6  N8  UNL     1      26.622  -0.268  54.474  1.00  0.00    -0.178 NA
HETATM    7  C14 UNL     1      27.679  -0.374  53.511  1.00  0.00     0.078 C 
HETATM    8  C15 UNL     1      27.769   0.857  53.008  1.00  0.00    -0.011 C 
HETATM    9  C16 UNL     1      26.823   1.905  53.566  1.00  0.00     0.058 C 
HETATM   10  H21 UNL     1      26.512  -1.198  53.958  1.00  0.00     0.154 HD
ENDROOT
BRANCH   1  11
HETATM   11  N2  UNL     1      24.664   2.898  52.832  1.00  0.00    -0.395 N 
HETATM   12  H12 UNL     1      23.990   2.714  53.575  1.00  0.00     0.155 HD
BRANCH  11  13
HETATM   13  C6  UNL     1      24.155   3.751  51.840  1.00  0.00     0.153 C 
HETATM   14  C5  UNL     1      23.280   3.098  50.832  1.00  0.00     0.072 C 
HETATM   15  C4  UNL     1      23.734   3.686  49.509  1.00  0.00     0.278 C 
HETATM   16  N1  UNL     1      24.738   4.657  49.809  1.00  0.00     0.119 N 
HETATM   17  C18 UNL     1      25.338   4.282  51.049  1.00  0.00     0.315 C 
BRANCH  16  18
HETATM   18  C2  UNL     1      25.650   4.944  48.746  1.00  0.00     0.354 C 
HETATM   19  C3  UNL     1      26.982   4.339  49.127  1.00  0.00     0.073 C 
BRANCH  18  20
HETATM   20  O1  UNL     1      25.732   6.324  48.589  1.00  0.00    -0.362 OA
HETATM   21  C1  UNL     1      26.985   6.850  48.785  1.00  0.00     0.204 C 
ENDBRANCH  18  20
ENDBRANCH  16  18
BRANCH  13  22
HETATM   22  C17 UNL     1      23.493   5.005  52.424  1.00  0.00     0.414 C 
HETATM   23  F1  UNL     1      23.750   4.961  53.784  1.00  0.00    -0.168 F 
HETATM   24  F2  UNL     1      24.018   6.160  51.920  1.00  0.00    -0.168 F 
HETATM   25  F3  UNL     1      22.141   4.872  52.208  1.00  0.00    -0.168 F 
ENDBRANCH  13  22
ENDBRANCH  11  13
ENDBRANCH   1  11
BRANCH   4  26
HETATM   26  N4  UNL     1      23.117  -1.259  54.764  1.00  0.00    -0.184 N 
HETATM   27  H15 UNL     1      23.414  -2.055  55.353  1.00  0.00     0.184 HD
BRANCH  26  28
HETATM   28  C10 UNL     1      21.904  -0.752  54.258  1.00  0.00     0.085 A 
HETATM   29  C11 UNL     1      21.575   0.497  53.819  1.00  0.00     0.170 A 
HETATM   30  N5  UNL     1      20.295   0.406  53.452  1.00  0.00    -0.183 NA
HETATM   31  N6  UNL     1      19.812  -0.818  53.635  1.00  0.00    -0.283 N 
HETATM   32  C12 UNL     1      18.460  -1.303  53.353  1.00  0.00     0.179 C 
HETATM   33  C13 UNL     1      20.808  -1.572  54.144  1.00  0.00     0.143 A 
ENDBRANCH  26  28
ENDBRANCH   4  26
TORSDOF 7
ENDMDL
MODEL 3
REMARK VINA RESULT:      -7.5      1.666      4.446
REMARK  7 active torsions:
REMARK  status: ('A' for Active; 'I' for Inactive)
REMARK    1  A    between atoms: O1_2  and  C2_3 
REMARK    2  A    between atoms: C2_3  and  N1_5 
REMARK    3  A    between atoms: C6_8  and  N2_9 
REMARK    4  A    between atoms: C6_8  and  C17_26 
REMARK    5  A    between atoms: N2_9  and  C7_10 
REMARK    6  A    between atoms: C9_13  and  N4_14 
REMARK    7  A    between atoms: N4_14  and  C10_15 
ROOT
HETATM    1  C7  UNL     1      22.121   1.653  51.624  1.00  0.00     0.122 C 
HETATM    2  C8  UNL     1      22.660   1.429  53.047  1.00  0.00     0.134 C 
HETATM    3  N3  UNL     1      22.981   0.203  52.898  1.00  0.00    -0.076 NA
HETATM    4  C9  UNL     1      23.545  -0.579  53.898  1.00  0.00     0.738 C 
HETATM    5  N7  UNL     1      22.406  -1.234  54.073  1.00  0.00    -0.005 NA
HETATM    6  N8  UNL     1      21.338  -0.857  53.263  1.00  0.00    -0.178 NA
HETATM    7  C14 UNL     1      20.118  -0.123  53.434  1.00  0.00     0.078 C 
HETATM    8  C15 UNL     1      20.055   0.639  52.342  1.00  0.00    -0.011 C 
HETATM    9  C16 UNL     1      21.182   0.500  51.334  1.00  0.00     0.058 C 
HETATM   10  H21 UNL     1      21.263  -0.567  54.289  1.00  0.00     0.154 HD
ENDROOT
BRANCH   1  11
HETATM   11  N2  UNL     1      23.255   1.775  50.825  1.00  0.00    -0.395 N 
HETATM   12  H12 UNL     1      24.104   1.256  51.051  1.00  0.00     0.155 HD
BRANCH  11  13
HETATM   13  C6  UNL     1      23.517   2.936  50.079  1.00  0.00     0.153 C 
HETATM   14  C5  UNL     1      24.952   3.201  49.804  1.00  0.00     0.072 C 
HETATM   15  C4  UNL     1      25.109   4.690  50.052  1.00  0.00     0.278 C 
HETATM   16  N1  UNL     1      23.810   5.198  50.362  1.00  0.00     0.119 N 
HETATM   17  C18 UNL     1      23.049   4.121  50.906  1.00  0.00     0.315 C 
BRANCH  16  18
HETATM   18  C2  UNL     1      23.791   6.410  51.121  1.00  0.00     0.354 C 
HETATM   19  C3  UNL     1      22.531   7.154  50.741  1.00  0.00     0.073 C 
BRANCH  18  20
HETATM   20  O1  UNL     1      24.936   7.140  50.822  1.00  0.00    -0.362 OA
HETATM   21  C1  UNL     1      24.705   8.335  50.185  1.00  0.00     0.204 C 
ENDBRANCH  18  20
ENDBRANCH  16  18
BRANCH  13  22
HETATM   22  C17 UNL     1      22.679   3.013  48.796  1.00  0.00     0.414 C 
HETATM   23  F1  UNL     1      21.462   3.551  49.179  1.00  0.00    -0.168 F 
HETATM   24  F2  UNL     1      23.237   3.826  47.852  1.00  0.00    -0.168 F 
HETATM   25  F3  UNL     1      22.493   1.718  48.370  1.00  0.00    -0.168 F 
ENDBRANCH  13  22
ENDBRANCH  11  13
ENDBRANCH   1  11
BRANCH   4  26
HETATM   26  N4  UNL     1      24.727  -0.827  54.629  1.00  0.00    -0.184 N 
HETATM   27  H15 UNL     1      24.373  -1.191  55.530  1.00  0.00     0.184 HD
BRANCH  26  28
HETATM   28  C10 UNL     1      25.983  -0.561  54.050  1.00  0.00     0.085 A 
HETATM   29  C11 UNL     1      26.533  -0.992  52.878  1.00  0.00     0.170 A 
HETATM   30  N5  UNL     1      27.741  -0.427  52.837  1.00  0.00    -0.183 NA
HETATM   31  N6  UNL     1      27.974   0.325  53.907  1.00  0.00    -0.283 N 
HETATM   32  C12 UNL     1      29.177   1.099  54.219  1.00  0.00     0.179 C 
HETATM   33  C13 UNL     1      26.878   0.259  54.692  1.00  0.00     0.143 A 
ENDBRANCH  26  28
ENDBRANCH   4  26
TORSDOF 7
ENDMDL
MODEL 4
REMARK VINA RESULT:      -7.5      3.019      6.651
REMARK  7 active torsions:
REMARK  status: ('A' for Active; 'I' for Inactive)
REMARK    1  A    between atoms: O1_2  and  C2_3 
REMARK    2  A    between atoms: C2_3  and  N1_5 
REMARK    3  A    between atoms: C6_8  and  N2_9 
REMARK    4  A    between atoms: C6_8  and  C17_26 
REMARK    5  A    between atoms: N2_9  and  C7_10 
REMARK    6  A    between atoms: C9_13  and  N4_14 
REMARK    7  A    between atoms: N4_14  and  C10_15 
ROOT
HETATM    1  C7  UNL     1      23.253   0.937  52.453  1.00  0.00     0.122 C 
HETATM    2  C8  UNL     1      22.387   1.734  51.462  1.00  0.00     0.134 C 
HETATM    3  N3  UNL     1      21.863   2.523  52.317  1.00  0.00    -0.076 NA
HETATM    4  C9  UNL     1      20.945   3.516  51.998  1.00  0.00     0.738 C 
HETATM    5  N7  UNL     1      19.952   2.810  52.520  1.00  0.00    -0.005 NA
HETATM    6  N8  UNL     1      20.284   1.572  53.064  1.00  0.00    -0.178 NA
HETATM    7  C14 UNL     1      20.117   0.198  52.689  1.00  0.00     0.078 C 
HETATM    8  C15 UNL     1      21.291  -0.354  52.993  1.00  0.00    -0.011 C 
HETATM    9  C16 UNL     1      22.347   0.552  53.602  1.00  0.00     0.058 C 
HETATM   10  H21 UNL     1      19.746   1.541  52.141  1.00  0.00     0.154 HD
ENDROOT
BRANCH   1  11
HETATM   11  N2  UNL     1      24.334   1.769  52.737  1.00  0.00    -0.395 N 
HETATM   12  H12 UNL     1      24.207   2.781  52.783  1.00  0.00     0.155 HD
BRANCH  11  13
HETATM   13  C6  UNL     1      25.654   1.405  52.426  1.00  0.00     0.153 C 
HETATM   14  C5  UNL     1      25.834  -0.001  51.982  1.00  0.00     0.072 C 
HETATM   15  C4  UNL     1      27.079  -0.465  52.716  1.00  0.00     0.278 C 
HETATM   16  N1  UNL     1      27.575   0.661  53.444  1.00  0.00     0.119 N 
HETATM   17  C18 UNL     1      26.469   1.524  53.701  1.00  0.00     0.315 C 
BRANCH  16  18
HETATM   18  C2  UNL     1      28.389   0.347  54.577  1.00  0.00     0.354 C 
HETATM   19  C3  UNL     1      29.440   1.428  54.683  1.00  0.00     0.073 C 
BRANCH  18  20
HETATM   20  O1  UNL     1      28.953  -0.910  54.386  1.00  0.00    -0.362 OA
HETATM   21  C1  UNL     1      30.197  -0.898  53.805  1.00  0.00     0.204 C 
ENDBRANCH  18  20
ENDBRANCH  16  18
BRANCH  13  22
HETATM   22  C17 UNL     1      26.322   2.386  51.454  1.00  0.00     0.414 C 
HETATM   23  F1  UNL     1      26.709   1.624  50.365  1.00  0.00    -0.168 F 
HETATM   24  F2  UNL     1      25.471   3.361  51.022  1.00  0.00    -0.168 F 
HETATM   25  F3  UNL     1      27.440   2.871  52.093  1.00  0.00    -0.168 F 
ENDBRANCH  13  22
ENDBRANCH  11  13
ENDBRANCH   1  11
BRANCH   4  26
HETATM   26  N4  UNL     1      20.794   4.787  51.404  1.00  0.00    -0.184 N 
HETATM   27  H15 UNL     1      19.777   4.841  51.222  1.00  0.00     0.184 HD
BRANCH  26  28
HETATM   28  C10 UNL     1      21.918   5.613  51.209  1.00  0.00     0.085 A 
HETATM   29  C11 UNL     1      23.182   5.532  51.717  1.00  0.00     0.170 A 
HETATM   30  N5  UNL     1      23.830   6.575  51.194  1.00  0.00    -0.183 NA
HETATM   31  N6  UNL     1      23.050   7.295  50.396  1.00  0.00    -0.283 N 
HETATM   32  C12 UNL     1      23.398   8.503  49.646  1.00  0.00     0.179 C 
HETATM   33  C13 UNL     1      21.834   6.709  50.386  1.00  0.00     0.143 A 
ENDBRANCH  26  28
ENDBRANCH   4  26
TORSDOF 7
ENDMDL
MODEL 5
REMARK VINA RESULT:      -7.2      2.072      4.886
REMARK  7 active torsions:
REMARK  status: ('A' for Active; 'I' for Inactive)
REMARK    1  A    between atoms: O1_2  and  C2_3 
REMARK    2  A    between atoms: C2_3  and  N1_5 
REMARK    3  A    between atoms: C6_8  and  N2_9 
REMARK    4  A    between atoms: C6_8  and  C17_26 
REMARK    5  A    between atoms: N2_9  and  C7_10 
REMARK    6  A    between atoms: C9_13  and  N4_14 
REMARK    7  A    between atoms: N4_14  and  C10_15 
ROOT
HETATM    1  C7  UNL     1      21.915   1.488  51.738  1.00  0.00     0.122 C 
HETATM    2  C8  UNL     1      22.481   1.293  53.155  1.00  0.00     0.134 C 
HETATM    3  N3  UNL     1      22.871   0.088  52.999  1.00  0.00    -0.076 NA
HETATM    4  C9  UNL     1      23.490  -0.663  53.991  1.00  0.00     0.738 C 
HETATM    5  N7  UNL     1      22.392  -1.382  54.177  1.00  0.00    -0.005 NA
HETATM    6  N8  UNL     1      21.295  -1.065  53.378  1.00  0.00    -0.178 NA
HETATM    7  C14 UNL     1      20.037  -0.403  53.565  1.00  0.00     0.078 C 
HETATM    8  C15 UNL     1      19.918   0.356  52.475  1.00  0.00    -0.011 C 
HETATM    9  C16 UNL     1      21.041   0.284  51.455  1.00  0.00     0.058 C 
HETATM   10  H21 UNL     1      21.215  -0.783  54.406  1.00  0.00     0.154 HD
ENDROOT
BRANCH   1  11
HETATM   11  N2  UNL     1      23.031   1.678  50.927  1.00  0.00    -0.395 N 
HETATM   12  H12 UNL     1      23.848   1.075  51.026  1.00  0.00     0.155 HD
BRANCH  11  13
HETATM   13  C6  UNL     1      23.350   2.932  50.383  1.00  0.00     0.153 C 
HETATM   14  C5  UNL     1      22.663   4.089  51.015  1.00  0.00     0.072 C 
HETATM   15  C4  UNL     1      22.234   4.951  49.843  1.00  0.00     0.278 C 
HETATM   16  N1  UNL     1      22.738   4.326  48.661  1.00  0.00     0.119 N 
HETATM   17  C18 UNL     1      22.876   2.934  48.940  1.00  0.00     0.315 C 
BRANCH  16  18
HETATM   18  C2  UNL     1      22.040   4.646  47.454  1.00  0.00     0.354 C 
HETATM   19  C3  UNL     1      21.988   3.384  46.623  1.00  0.00     0.073 C 
BRANCH  18  20
HETATM   20  O1  UNL     1      22.721   5.670  46.804  1.00  0.00    -0.362 OA
HETATM   21  C1  UNL     1      21.929   6.709  46.382  1.00  0.00     0.204 C 
ENDBRANCH  18  20
ENDBRANCH  16  18
BRANCH  13  22
HETATM   22  C17 UNL     1      24.862   3.166  50.287  1.00  0.00     0.414 C 
HETATM   23  F1  UNL     1      25.443   2.138  51.010  1.00  0.00    -0.168 F 
HETATM   24  F2  UNL     1      25.323   3.110  49.004  1.00  0.00    -0.168 F 
HETATM   25  F3  UNL     1      25.115   4.366  50.914  1.00  0.00    -0.168 F 
ENDBRANCH  13  22
ENDBRANCH  11  13
ENDBRANCH   1  11
BRANCH   4  26
HETATM   26  N4  UNL     1      24.691  -0.843  54.708  1.00  0.00    -0.184 N 
HETATM   27  H15 UNL     1      24.368  -1.214  55.618  1.00  0.00     0.184 HD
BRANCH  26  28
HETATM   28  C10 UNL     1      25.925  -0.521  54.110  1.00  0.00     0.085 A 
HETATM   29  C11 UNL     1      26.435  -0.849  52.888  1.00  0.00     0.170 A 
HETATM   30  N5  UNL     1      27.639  -0.275  52.852  1.00  0.00    -0.183 NA
HETATM   31  N6  UNL     1      27.906   0.388  53.972  1.00  0.00    -0.283 N 
HETATM   32  C12 UNL     1      29.117   1.141  54.305  1.00  0.00     0.179 C 
HETATM   33  C13 UNL     1      26.839   0.249  54.787  1.00  0.00     0.143 A 
ENDBRANCH  26  28
ENDBRANCH   4  26
TORSDOF 7
ENDMDL
MODEL 6
REMARK VINA RESULT:      -7.2      3.069      6.289
REMARK  7 active torsions:
REMARK  status: ('A' for Active; 'I' for Inactive)
REMARK    1  A    between atoms: O1_2  and  C2_3 
REMARK    2  A    between atoms: C2_3  and  N1_5 
REMARK    3  A    between atoms: C6_8  and  N2_9 
REMARK    4  A    between atoms: C6_8  and  C17_26 
REMARK    5  A    between atoms: N2_9  and  C7_10 
REMARK    6  A    between atoms: C9_13  and  N4_14 
REMARK    7  A    between atoms: N4_14  and  C10_15 
ROOT
HETATM    1  C7  UNL     1      24.564   2.900  51.474  1.00  0.00     0.122 C 
HETATM    2  C8  UNL     1      23.250   3.662  51.721  1.00  0.00     0.134 C 
HETATM    3  N3  UNL     1      22.671   3.326  50.635  1.00  0.00    -0.076 NA
HETATM    4  C9  UNL     1      21.393   3.735  50.277  1.00  0.00     0.738 C 
HETATM    5  N7  UNL     1      21.880   4.579  49.378  1.00  0.00    -0.005 NA
HETATM    6  N8  UNL     1      23.267   4.628  49.254  1.00  0.00    -0.178 NA
HETATM    7  C14 UNL     1      24.307   5.541  49.630  1.00  0.00     0.078 C 
HETATM    8  C15 UNL     1      25.271   4.744  50.091  1.00  0.00    -0.011 C 
HETATM    9  C16 UNL     1      25.005   3.249  50.068  1.00  0.00     0.058 C 
HETATM   10  H21 UNL     1      22.815   5.476  49.722  1.00  0.00     0.154 HD
ENDROOT
BRANCH   1  11
HETATM   11  N2  UNL     1      24.262   1.567  51.742  1.00  0.00    -0.395 N 
HETATM   12  H12 UNL     1      23.361   1.177  51.463  1.00  0.00     0.155 HD
BRANCH  11  13
HETATM   13  C6  UNL     1      24.839   0.877  52.819  1.00  0.00     0.153 C 
HETATM   14  C5  UNL     1      25.636   1.714  53.753  1.00  0.00     0.072 C 
HETATM   15  C4  UNL     1      26.877   0.885  54.027  1.00  0.00     0.278 C 
HETATM   16  N1  UNL     1      26.707  -0.357  53.341  1.00  0.00     0.119 N 
HETATM   17  C18 UNL     1      25.828  -0.120  52.242  1.00  0.00     0.315 C 
BRANCH  16  18
HETATM   18  C2  UNL     1      27.916  -1.052  53.024  1.00  0.00     0.354 C 
HETATM   19  C3  UNL     1      27.538  -2.482  52.710  1.00  0.00     0.073 C 
BRANCH  18  20
HETATM   20  O1  UNL     1      28.776  -0.969  54.113  1.00  0.00    -0.362 OA
HETATM   21  C1  UNL     1      30.108  -0.891  53.788  1.00  0.00     0.204 C 
ENDBRANCH  18  20
ENDBRANCH  16  18
BRANCH  13  22
HETATM   22  C17 UNL     1      23.824   0.011  53.576  1.00  0.00     0.414 C 
HETATM   23  F1  UNL     1      23.594  -1.088  52.763  1.00  0.00    -0.168 F 
HETATM   24  F2  UNL     1      24.299  -0.429  54.777  1.00  0.00    -0.168 F 
HETATM   25  F3  UNL     1      22.670   0.754  53.676  1.00  0.00    -0.168 F 
ENDBRANCH  13  22
ENDBRANCH  11  13
ENDBRANCH   1  11
BRANCH   4  26
HETATM   26  N4  UNL     1      20.019   3.554  50.537  1.00  0.00    -0.184 N 
HETATM   27  H15 UNL     1      19.632   4.507  50.429  1.00  0.00     0.184 HD
BRANCH  26  28
HETATM   28  C10 UNL     1      19.522   2.273  50.849  1.00  0.00     0.085 A 
HETATM   29  C11 UNL     1      18.712   1.435  50.140  1.00  0.00     0.170 A 
HETATM   30  N5  UNL     1      18.568   0.358  50.915  1.00  0.00    -0.183 NA
HETATM   31  N6  UNL     1      19.238   0.476  52.057  1.00  0.00    -0.283 N 
HETATM   32  C12 UNL     1      19.324  -0.490  53.153  1.00  0.00     0.179 C 
HETATM   33  C13 UNL     1      19.851   1.678  52.042  1.00  0.00     0.143 A 
ENDBRANCH  26  28
ENDBRANCH   4  26
TORSDOF 7
ENDMDL
MODEL 7
REMARK VINA RESULT:      -7.1      2.055      3.052
REMARK  7 active torsions:
REMARK  status: ('A' for Active; 'I' for Inactive)
REMARK    1  A    between atoms: O1_2  and  C2_3 
REMARK    2  A    between atoms: C2_3  and  N1_5 
REMARK    3  A    between atoms: C6_8  and  N2_9 
REMARK    4  A    between atoms: C6_8  and  C17_26 
REMARK    5  A    between atoms: N2_9  and  C7_10 
REMARK    6  A    between atoms: C9_13  and  N4_14 
REMARK    7  A    between atoms: N4_14  and  C10_15 
ROOT
HETATM    1  C7  UNL     1      23.908   1.724  52.066  1.00  0.00     0.122 C 
HETATM    2  C8  UNL     1      22.950   0.523  52.148  1.00  0.00     0.134 C 
HETATM    3  N3  UNL     1      22.786   0.544  53.413  1.00  0.00    -0.076 NA
HETATM    4  C9  UNL     1      21.984  -0.353  54.107  1.00  0.00     0.738 C 
HETATM    5  N7  UNL     1      23.047  -0.987  54.580  1.00  0.00    -0.005 NA
HETATM    6  N8  UNL     1      24.292  -0.495  54.193  1.00  0.00    -0.178 NA
HETATM    7  C14 UNL     1      25.331  -0.904  53.294  1.00  0.00     0.078 C 
HETATM    8  C15 UNL     1      25.693   0.232  52.697  1.00  0.00    -0.011 C 
HETATM    9  C16 UNL     1      24.971   1.498  53.121  1.00  0.00     0.058 C 
HETATM   10  H21 UNL     1      24.005  -1.425  53.750  1.00  0.00     0.154 HD
ENDROOT
BRANCH   1  11
HETATM   11  N2  UNL     1      23.093   2.845  52.204  1.00  0.00    -0.395 N 
HETATM   12  H12 UNL     1      22.319   2.840  52.869  1.00  0.00     0.155 HD
BRANCH  11  13
HETATM   13  C6  UNL     1      22.894   3.753  51.152  1.00  0.00     0.153 C 
HETATM   14  C5  UNL     1      22.877   3.154  49.793  1.00  0.00     0.072 C 
HETATM   15  C4  UNL     1      23.708   4.108  48.956  1.00  0.00     0.278 C 
HETATM   16  N1  UNL     1      24.076   5.195  49.807  1.00  0.00     0.119 N 
HETATM   17  C18 UNL     1      24.077   4.706  51.147  1.00  0.00     0.315 C 
BRANCH  16  18
HETATM   18  C2  UNL     1      25.247   5.913  49.412  1.00  0.00     0.354 C 
HETATM   19  C3  UNL     1      26.337   4.892  49.177  1.00  0.00     0.073 C 
BRANCH  18  20
HETATM   20  O1  UNL     1      25.583   6.808  50.422  1.00  0.00    -0.362 OA
HETATM   21  C1  UNL     1      25.531   8.131  50.058  1.00  0.00     0.204 C 
ENDBRANCH  18  20
ENDBRANCH  16  18
BRANCH  13  22
HETATM   22  C17 UNL     1      21.677   4.659  51.378  1.00  0.00     0.414 C 
HETATM   23  F1  UNL     1      20.969   4.077  52.416  1.00  0.00    -0.168 F 
HETATM   24  F2  UNL     1      22.025   5.926  51.745  1.00  0.00    -0.168 F 
HETATM   25  F3  UNL     1      20.928   4.604  50.225  1.00  0.00    -0.168 F 
ENDBRANCH  13  22
ENDBRANCH  11  13
ENDBRANCH   1  11
BRANCH   4  26
HETATM   26  N4  UNL     1      20.650  -0.712  54.392  1.00  0.00    -0.184 N 
HETATM   27  H15 UNL     1      20.711  -1.102  55.348  1.00  0.00     0.184 HD
BRANCH  26  28
HETATM   28  C10 UNL     1      19.639  -0.490  53.437  1.00  0.00     0.085 A 
HETATM   29  C11 UNL     1      19.564   0.407  52.411  1.00  0.00     0.170 A 
HETATM   30  N5  UNL     1      18.386   0.170  51.832  1.00  0.00    -0.183 NA
HETATM   31  N6  UNL     1      17.727  -0.816  52.432  1.00  0.00    -0.283 N 
HETATM   32  C12 UNL     1      16.412  -1.360  52.088  1.00  0.00     0.179 C 
HETATM   33  C13 UNL     1      18.497  -1.252  53.452  1.00  0.00     0.143 A 
ENDBRANCH  26  28
ENDBRANCH   4  26
TORSDOF 7
ENDMDL
MODEL 8
REMARK VINA RESULT:      -6.9      6.298      9.771
REMARK  7 active torsions:
REMARK  status: ('A' for Active; 'I' for Inactive)
REMARK    1  A    between atoms: O1_2  and  C2_3 
REMARK    2  A    between atoms: C2_3  and  N1_5 
REMARK    3  A    between atoms: C6_8  and  N2_9 
REMARK    4  A    between atoms: C6_8  and  C17_26 
REMARK    5  A    between atoms: N2_9  and  C7_10 
REMARK    6  A    between atoms: C9_13  and  N4_14 
REMARK    7  A    between atoms: N4_14  and  C10_15 
ROOT
HETATM    1  C7  UNL     1      30.884   9.303  48.177  1.00  0.00     0.122 C 
HETATM    2  C8  UNL     1      30.112   9.299  49.508  1.00  0.00     0.134 C 
HETATM    3  N3  UNL     1      28.940   9.302  49.005  1.00  0.00    -0.076 NA
HETATM    4  C9  UNL     1      27.772   9.303  49.758  1.00  0.00     0.738 C 
HETATM    5  N7  UNL     1      27.549  10.578  49.469  1.00  0.00    -0.005 NA
HETATM    6  N8  UNL     1      28.486  11.206  48.651  1.00  0.00    -0.178 NA
HETATM    7  C14 UNL     1      29.536  12.166  48.828  1.00  0.00     0.078 C 
HETATM    8  C15 UNL     1      30.529  11.686  48.081  1.00  0.00    -0.011 C 
HETATM    9  C16 UNL     1      30.267  10.394  47.327  1.00  0.00     0.058 C 
HETATM   10  H21 UNL     1      28.500  11.500  49.679  1.00  0.00     0.154 HD
ENDROOT
BRANCH   1  11
HETATM   11  N2  UNL     1      30.798   7.995  47.707  1.00  0.00    -0.395 N 
HETATM   12  H12 UNL     1      29.888   7.562  47.551  1.00  0.00     0.155 HD
BRANCH  11  13
HETATM   13  C6  UNL     1      31.810   7.051  47.947  1.00  0.00     0.153 C 
HETATM   14  C5  UNL     1      33.119   7.619  48.364  1.00  0.00     0.072 C 
HETATM   15  C4  UNL     1      34.137   6.829  47.563  1.00  0.00     0.278 C 
HETATM   16  N1  UNL     1      33.412   5.843  46.826  1.00  0.00     0.119 N 
HETATM   17  C18 UNL     1      32.089   6.342  46.634  1.00  0.00     0.315 C 
BRANCH  16  18
HETATM   18  C2  UNL     1      34.063   5.356  45.650  1.00  0.00     0.354 C 
HETATM   19  C3  UNL     1      33.004   4.698  44.795  1.00  0.00     0.073 C 
BRANCH  18  20
HETATM   20  O1  UNL     1      35.056   4.459  46.029  1.00  0.00    -0.362 OA
HETATM   21  C1  UNL     1      34.612   3.182  46.274  1.00  0.00     0.204 C 
ENDBRANCH  18  20
ENDBRANCH  16  18
BRANCH  13  22
HETATM   22  C17 UNL     1      31.360   5.934  48.896  1.00  0.00     0.414 C 
HETATM   23  F1  UNL     1      29.975   5.965  48.877  1.00  0.00    -0.168 F 
HETATM   24  F2  UNL     1      31.772   4.699  48.488  1.00  0.00    -0.168 F 
HETATM   25  F3  UNL     1      31.808   6.279  50.151  1.00  0.00    -0.168 F 
ENDBRANCH  13  22
ENDBRANCH  11  13
ENDBRANCH   1  11
BRANCH   4  26
HETATM   26  N4  UNL     1      26.933   8.512  50.570  1.00  0.00    -0.184 N 
HETATM   27  H15 UNL     1      27.063   8.921  51.511  1.00  0.00     0.184 HD
BRANCH  26  28
HETATM   28  C10 UNL     1      26.185   7.463  50.000  1.00  0.00     0.085 A 
HETATM   29  C11 UNL     1      26.449   6.660  48.930  1.00  0.00     0.170 A 
HETATM   30  N5  UNL     1      25.398   5.842  48.845  1.00  0.00    -0.183 NA
HETATM   31  N6  UNL     1      24.501   6.087  49.795  1.00  0.00    -0.283 N 
HETATM   32  C12 UNL     1      23.227   5.405  50.027  1.00  0.00     0.179 C 
HETATM   33  C13 UNL     1      24.973   7.108  50.541  1.00  0.00     0.143 A 
ENDBRANCH  26  28
ENDBRANCH   4  26
TORSDOF 7
ENDMDL
MODEL 9
REMARK VINA RESULT:      -6.8      3.247      5.617
REMARK  7 active torsions:
REMARK  status: ('A' for Active; 'I' for Inactive)
REMARK    1  A    between atoms: O1_2  and  C2_3 
REMARK    2  A    between atoms: C2_3  and  N1_5 
REMARK    3  A    between atoms: C6_8  and  N2_9 
REMARK    4  A    between atoms: C6_8  and  C17_26 
REMARK    5  A    between atoms: N2_9  and  C7_10 
REMARK    6  A    between atoms: C9_13  and  N4_14 
REMARK    7  A    between atoms: N4_14  and  C10_15 
ROOT
HETATM    1  C7  UNL     1      24.231   4.840  49.692  1.00  0.00     0.122 C 
HETATM    2  C8  UNL     1      24.560   3.338  49.754  1.00  0.00     0.134 C 
HETATM    3  N3  UNL     1      25.181   3.363  50.868  1.00  0.00    -0.076 NA
HETATM    4  C9  UNL     1      25.741   2.243  51.470  1.00  0.00     0.738 C 
HETATM    5  N7  UNL     1      26.964   2.643  51.148  1.00  0.00    -0.005 NA
HETATM    6  N8  UNL     1      27.065   3.844  50.451  1.00  0.00    -0.178 NA
HETATM    7  C14 UNL     1      27.350   4.236  49.101  1.00  0.00     0.078 C 
HETATM    8  C15 UNL     1      26.465   5.205  48.863  1.00  0.00    -0.011 C 
HETATM    9  C16 UNL     1      25.521   5.574  49.993  1.00  0.00     0.058 C 
HETATM   10  H21 UNL     1      27.265   2.962  49.881  1.00  0.00     0.154 HD
ENDROOT
BRANCH   1  11
HETATM   11  N2  UNL     1      23.170   5.014  50.578  1.00  0.00    -0.395 N 
HETATM   12  H12 UNL     1      22.978   4.313  51.294  1.00  0.00     0.155 HD
BRANCH  11  13
HETATM   13  C6  UNL     1      22.034   5.763  50.238  1.00  0.00     0.153 C 
HETATM   14  C5  UNL     1      20.757   5.279  50.824  1.00  0.00     0.072 C 
HETATM   15  C4  UNL     1      19.765   5.367  49.679  1.00  0.00     0.278 C 
HETATM   16  N1  UNL     1      20.460   5.944  48.571  1.00  0.00     0.119 N 
HETATM   17  C18 UNL     1      21.846   5.646  48.735  1.00  0.00     0.315 C 
BRANCH  16  18
HETATM   18  C2  UNL     1      19.914   5.646  47.284  1.00  0.00     0.354 C 
HETATM   19  C3  UNL     1      18.427   5.441  47.468  1.00  0.00     0.073 C 
BRANCH  18  20
HETATM   20  O1  UNL     1      20.538   4.505  46.788  1.00  0.00    -0.362 OA
HETATM   21  C1  UNL     1      19.685   3.481  46.459  1.00  0.00     0.204 C 
ENDBRANCH  18  20
ENDBRANCH  16  18
BRANCH  13  22
HETATM   22  C17 UNL     1      22.224   7.266  50.481  1.00  0.00     0.414 C 
HETATM   23  F1  UNL     1      22.606   7.794  49.259  1.00  0.00    -0.168 F 
HETATM   24  F2  UNL     1      21.075   7.884  50.882  1.00  0.00    -0.168 F 
HETATM   25  F3  UNL     1      23.261   7.390  51.377  1.00  0.00    -0.168 F 
ENDBRANCH  13  22
ENDBRANCH  11  13
ENDBRANCH   1  11
BRANCH   4  26
HETATM   26  N4  UNL     1      25.450   1.056  52.173  1.00  0.00    -0.184 N 
HETATM   27  H15 UNL     1      24.492   0.826  51.859  1.00  0.00     0.184 HD
BRANCH  26  28
HETATM   28  C10 UNL     1      26.406   0.499  53.045  1.00  0.00     0.085 A 
HETATM   29  C11 UNL     1      26.498   0.536  54.406  1.00  0.00     0.170 A 
HETATM   30  N5  UNL     1      27.600  -0.159  54.695  1.00  0.00    -0.183 NA
HETATM   31  N6  UNL     1      28.195  -0.623  53.601  1.00  0.00    -0.283 N 
HETATM   32  C12 UNL     1      29.418  -1.422  53.513  1.00  0.00     0.179 C 
HETATM   33  C13 UNL     1      27.461  -0.221  52.542  1.00  0.00     0.143 A 
ENDBRANCH  26  28
ENDBRANCH   4  26
TORSDOF 7
ENDMDL
