MODEL 1
REMARK VINA RESULT:      -7.7      0.000      0.000
REMARK  0 active torsions:
REMARK  status: ('A' for Active; 'I' for Inactive)
ROOT
HETATM    1  C1  UNL     1      22.327   1.865  49.165  1.00  0.00    -0.002 C 
HETATM    2  C2  UNL     1      22.691   3.157  49.245  1.00  0.00    -0.024 C 
HETATM    3  C3  UNL     1      22.656   4.246  50.242  1.00  0.00     0.054 C 
HETATM    4  C4  UNL     1      22.684   3.766  51.665  1.00  0.00     0.111 C 
HETATM    5  C5  UNL     1      21.308   3.570  52.252  1.00  0.00     0.200 C 
HETATM    6  O1  UNL     1      20.794   2.269  52.079  1.00  0.00    -0.353 OA
HETATM    7  C6  UNL     1      20.777   1.280  51.105  1.00  0.00     0.046 C 
HETATM    8  C7  UNL     1      21.530   0.986  50.029  1.00  0.00     0.032 C 
HETATM    9  C8  UNL     1      19.706   0.264  51.195  1.00  0.00     0.064 C 
HETATM   10  C9  UNL     1      19.165   0.018  52.539  1.00  0.00     0.006 C 
HETATM   11  C10 UNL     1      19.932  -0.667  53.579  1.00  0.00     0.001 C 
HETATM   12  C11 UNL     1      21.270  -0.180  54.003  1.00  0.00     0.012 C 
HETATM   13  C12 UNL     1      22.345  -0.376  53.001  1.00  0.00     0.059 A 
HETATM   14  C13 UNL     1      23.697  -0.589  53.682  1.00  0.00     0.122 A 
HETATM   15  N1  UNL     1      24.954  -0.496  54.157  1.00  0.00    -0.263 NA
HETATM   16  C14 UNL     1      25.770   0.550  53.925  1.00  0.00     0.230 A 
HETATM   17  N2  UNL     1      25.345   1.605  53.169  1.00  0.00    -0.225 NA
HETATM   18  C15 UNL     1      24.109   1.620  52.643  1.00  0.00     0.130 A 
HETATM   19  C16 UNL     1      23.383   0.521  52.943  1.00  0.00     0.006 A 
HETATM   20  N3  UNL     1      23.522   2.609  51.839  1.00  0.00    -0.367 N 
HETATM   21  H19 UNL     1      23.976   2.235  50.951  1.00  0.00     0.161 HD
ENDROOT
TORSDOF 0
ENDMDL
MODEL 2
REMARK VINA RESULT:      -7.6      2.010      4.178
REMARK  0 active torsions:
REMARK  status: ('A' for Active; 'I' for Inactive)
ROOT
HETATM    1  C1  UNL     1      23.385   4.275  53.108  1.00  0.00    -0.002 C 
HETATM    2  C2  UNL     1      22.348   4.508  52.284  1.00  0.00    -0.024 C 
HETATM    3  C3  UNL     1      21.699   3.857  51.128  1.00  0.00     0.054 C 
HETATM    4  C4  UNL     1      21.863   2.365  51.101  1.00  0.00     0.111 C 
HETATM    5  C5  UNL     1      23.069   1.915  50.314  1.00  0.00     0.200 C 
HETATM    6  O1  UNL     1      24.240   1.786  51.088  1.00  0.00    -0.353 OA
HETATM    7  C6  UNL     1      24.873   2.448  52.131  1.00  0.00     0.046 C 
HETATM    8  C7  UNL     1      24.487   3.305  53.093  1.00  0.00     0.032 C 
HETATM    9  C8  UNL     1      26.324   2.212  52.296  1.00  0.00     0.064 C 
HETATM   10  C9  UNL     1      26.828   0.926  51.792  1.00  0.00     0.006 C 
HETATM   11  C10 UNL     1      26.524  -0.344  52.449  1.00  0.00     0.001 C 
HETATM   12  C11 UNL     1      25.124  -0.776  52.693  1.00  0.00     0.012 C 
HETATM   13  C12 UNL     1      24.412  -0.001  53.738  1.00  0.00     0.059 A 
HETATM   14  C13 UNL     1      23.383  -0.871  54.460  1.00  0.00     0.122 A 
HETATM   15  N1  UNL     1      22.269  -1.448  54.950  1.00  0.00    -0.263 NA
HETATM   16  C14 UNL     1      21.019  -1.039  54.661  1.00  0.00     0.230 A 
HETATM   17  N2  UNL     1      20.814   0.022  53.825  1.00  0.00    -0.225 NA
HETATM   18  C15 UNL     1      21.852   0.675  53.277  1.00  0.00     0.130 A 
HETATM   19  C16 UNL     1      23.054   0.175  53.638  1.00  0.00     0.006 A 
HETATM   20  N3  UNL     1      21.821   1.783  52.416  1.00  0.00    -0.367 N 
HETATM   21  H19 UNL     1      21.714   2.474  53.219  1.00  0.00     0.161 HD
ENDROOT
TORSDOF 0
ENDMDL
MODEL 3
REMARK VINA RESULT:      -7.6      2.360      5.190
REMARK  0 active torsions:
REMARK  status: ('A' for Active; 'I' for Inactive)
ROOT
HETATM    1  C1  UNL     1      27.273  -0.751  52.132  1.00  0.00    -0.002 C 
HETATM    2  C2  UNL     1      27.838  -0.880  53.346  1.00  0.00    -0.024 C 
HETATM    3  C3  UNL     1      27.771  -0.216  54.663  1.00  0.00     0.054 C 
HETATM    4  C4  UNL     1      26.454   0.451  54.939  1.00  0.00     0.111 C 
HETATM    5  C5  UNL     1      26.426   1.901  54.525  1.00  0.00     0.200 C 
HETATM    6  O1  UNL     1      25.978   2.110  53.205  1.00  0.00    -0.353 OA
HETATM    7  C6  UNL     1      26.106   1.511  51.959  1.00  0.00     0.046 C 
HETATM    8  C7  UNL     1      26.430   0.282  51.517  1.00  0.00     0.032 C 
HETATM    9  C8  UNL     1      25.842   2.358  50.775  1.00  0.00     0.064 C 
HETATM   10  C9  UNL     1      24.930   3.491  50.986  1.00  0.00     0.006 C 
HETATM   11  C10 UNL     1      23.496   3.311  51.204  1.00  0.00     0.001 C 
HETATM   12  C11 UNL     1      22.980   2.451  52.300  1.00  0.00     0.012 C 
HETATM   13  C12 UNL     1      23.189   0.997  52.094  1.00  0.00     0.059 A 
HETATM   14  C13 UNL     1      22.072   0.185  52.751  1.00  0.00     0.122 A 
HETATM   15  N1  UNL     1      21.319  -0.622  53.523  1.00  0.00    -0.263 NA
HETATM   16  C14 UNL     1      21.797  -1.323  54.568  1.00  0.00     0.230 A 
HETATM   17  N2  UNL     1      23.118  -1.247  54.908  1.00  0.00    -0.225 NA
HETATM   18  C15 UNL     1      23.963  -0.472  54.208  1.00  0.00     0.130 A 
HETATM   19  C16 UNL     1      23.371   0.183  53.184  1.00  0.00     0.006 A 
HETATM   20  N3  UNL     1      25.340  -0.290  54.410  1.00  0.00    -0.367 N 
HETATM   21  H19 UNL     1      25.592  -1.176  53.877  1.00  0.00     0.161 HD
ENDROOT
TORSDOF 0
ENDMDL
MODEL 4
REMARK VINA RESULT:      -7.5      1.405      2.093
REMARK  0 active torsions:
REMARK  status: ('A' for Active; 'I' for Inactive)
ROOT
HETATM    1  C1  UNL     1      24.513   4.117  49.574  1.00  0.00    -0.002 C 
HETATM    2  C2  UNL     1      24.583   5.282  50.243  1.00  0.00    -0.024 C 
HETATM    3  C3  UNL     1      24.009   5.880  51.465  1.00  0.00     0.054 C 
HETATM    4  C4  UNL     1      23.637   4.873  52.516  1.00  0.00     0.111 C 
HETATM    5  C5  UNL     1      22.205   4.410  52.414  1.00  0.00     0.200 C 
HETATM    6  O1  UNL     1      22.030   3.270  51.605  1.00  0.00    -0.353 OA
HETATM    7  C6  UNL     1      22.530   2.752  50.418  1.00  0.00     0.046 C 
HETATM    8  C7  UNL     1      23.645   2.939  49.688  1.00  0.00     0.032 C 
HETATM    9  C8  UNL     1      21.700   1.747  49.718  1.00  0.00     0.064 C 
HETATM   10  C9  UNL     1      20.787   0.966  50.565  1.00  0.00     0.006 C 
HETATM   11  C10 UNL     1      21.265  -0.049  51.502  1.00  0.00     0.001 C 
HETATM   12  C11 UNL     1      22.263   0.275  52.554  1.00  0.00     0.012 C 
HETATM   13  C12 UNL     1      23.633   0.533  52.047  1.00  0.00     0.059 A 
HETATM   14  C13 UNL     1      24.685   0.114  53.074  1.00  0.00     0.122 A 
HETATM   15  N1  UNL     1      25.664   0.054  53.997  1.00  0.00    -0.263 NA
HETATM   16  C14 UNL     1      26.302   1.134  54.488  1.00  0.00     0.230 A 
HETATM   17  N2  UNL     1      25.975   2.388  54.056  1.00  0.00    -0.225 NA
HETATM   18  C15 UNL     1      25.012   2.567  53.136  1.00  0.00     0.130 A 
HETATM   19  C16 UNL     1      24.444   1.415  52.719  1.00  0.00     0.006 A 
HETATM   20  N3  UNL     1      24.564   3.774  52.576  1.00  0.00    -0.367 N 
HETATM   21  H19 UNL     1      25.354   3.802  51.864  1.00  0.00     0.161 HD
ENDROOT
TORSDOF 0
ENDMDL
MODEL 5
REMARK VINA RESULT:      -7.2      2.749      5.747
REMARK  0 active torsions:
REMARK  status: ('A' for Active; 'I' for Inactive)
ROOT
HETATM    1  C1  UNL     1      26.598   2.226  51.183  1.00  0.00    -0.002 C 
HETATM    2  C2  UNL     1      26.258   2.013  52.467  1.00  0.00    -0.024 C 
HETATM    3  C3  UNL     1      25.231   2.478  53.421  1.00  0.00     0.054 C 
HETATM    4  C4  UNL     1      23.950   2.913  52.768  1.00  0.00     0.111 C 
HETATM    5  C5  UNL     1      23.916   4.388  52.454  1.00  0.00     0.200 C 
HETATM    6  O1  UNL     1      24.397   4.709  51.168  1.00  0.00    -0.353 OA
HETATM    7  C6  UNL     1      25.410   4.308  50.309  1.00  0.00     0.046 C 
HETATM    8  C7  UNL     1      26.172   3.206  50.177  1.00  0.00     0.032 C 
HETATM    9  C8  UNL     1      25.815   5.262  49.253  1.00  0.00     0.064 C 
HETATM   10  C9  UNL     1      24.786   6.219  48.823  1.00  0.00     0.006 C 
HETATM   11  C10 UNL     1      23.619   5.815  48.040  1.00  0.00     0.001 C 
HETATM   12  C11 UNL     1      22.697   4.752  48.516  1.00  0.00     0.012 C 
HETATM   13  C12 UNL     1      23.265   3.382  48.483  1.00  0.00     0.059 A 
HETATM   14  C13 UNL     1      22.172   2.342  48.233  1.00  0.00     0.122 A 
HETATM   15  N1  UNL     1      21.273   1.342  48.309  1.00  0.00    -0.263 NA
HETATM   16  C14 UNL     1      21.087   0.579  49.402  1.00  0.00     0.230 A 
HETATM   17  N2  UNL     1      21.831   0.791  50.529  1.00  0.00    -0.225 NA
HETATM   18  C15 UNL     1      22.758   1.762  50.567  1.00  0.00     0.130 A 
HETATM   19  C16 UNL     1      22.854   2.461  49.415  1.00  0.00     0.006 A 
HETATM   20  N3  UNL     1      23.611   2.104  51.628  1.00  0.00    -0.367 N 
HETATM   21  H19 UNL     1      24.312   1.341  51.384  1.00  0.00     0.161 HD
ENDROOT
TORSDOF 0
ENDMDL
MODEL 6
REMARK VINA RESULT:      -7.1      1.883      4.391
REMARK  0 active torsions:
REMARK  status: ('A' for Active; 'I' for Inactive)
ROOT
HETATM    1  C1  UNL     1      21.624   4.082  52.349  1.00  0.00    -0.002 C 
HETATM    2  C2  UNL     1      20.635   3.232  52.020  1.00  0.00    -0.024 C 
HETATM    3  C3  UNL     1      20.435   2.080  51.118  1.00  0.00     0.054 C 
HETATM    4  C4  UNL     1      21.692   1.314  50.825  1.00  0.00     0.111 C 
HETATM    5  C5  UNL     1      22.405   1.795  49.585  1.00  0.00     0.200 C 
HETATM    6  O1  UNL     1      23.363   2.799  49.831  1.00  0.00    -0.353 OA
HETATM    7  C6  UNL     1      23.509   3.920  50.637  1.00  0.00     0.046 C 
HETATM    8  C7  UNL     1      22.951   4.352  51.783  1.00  0.00     0.032 C 
HETATM    9  C8  UNL     1      24.493   4.936  50.205  1.00  0.00     0.064 C 
HETATM   10  C9  UNL     1      25.603   4.444  49.376  1.00  0.00     0.006 C 
HETATM   11  C10 UNL     1      26.672   3.607  49.916  1.00  0.00     0.001 C 
HETATM   12  C11 UNL     1      26.379   2.327  50.611  1.00  0.00     0.012 C 
HETATM   13  C12 UNL     1      25.747   2.479  51.944  1.00  0.00     0.059 A 
HETATM   14  C13 UNL     1      26.149   1.334  52.874  1.00  0.00     0.122 A 
HETATM   15  N1  UNL     1      26.199   0.245  53.666  1.00  0.00    -0.263 NA
HETATM   16  C14 UNL     1      25.140  -0.542  53.931  1.00  0.00     0.230 A 
HETATM   17  N2  UNL     1      23.916  -0.261  53.391  1.00  0.00    -0.225 NA
HETATM   18  C15 UNL     1      23.748   0.801  52.587  1.00  0.00     0.130 A 
HETATM   19  C16 UNL     1      24.880   1.514  52.392  1.00  0.00     0.006 A 
HETATM   20  N3  UNL     1      22.569   1.237  51.964  1.00  0.00    -0.367 N 
HETATM   21  H19 UNL     1      22.233   1.750  52.835  1.00  0.00     0.161 HD
ENDROOT
TORSDOF 0
ENDMDL
MODEL 7
REMARK VINA RESULT:      -7.1      2.533      4.377
REMARK  0 active torsions:
REMARK  status: ('A' for Active; 'I' for Inactive)
ROOT
HETATM    1  C1  UNL     1      20.656   3.969  51.593  1.00  0.00    -0.002 C 
HETATM    2  C2  UNL     1      20.175   3.989  50.337  1.00  0.00    -0.024 C 
HETATM    3  C3  UNL     1      20.180   3.115  49.147  1.00  0.00     0.054 C 
HETATM    4  C4  UNL     1      20.310   1.654  49.469  1.00  0.00     0.111 C 
HETATM    5  C5  UNL     1      21.739   1.172  49.477  1.00  0.00     0.200 C 
HETATM    6  O1  UNL     1      22.363   1.256  50.738  1.00  0.00    -0.353 OA
HETATM    7  C6  UNL     1      22.401   2.123  51.822  1.00  0.00     0.046 C 
HETATM    8  C7  UNL     1      21.600   3.094  52.298  1.00  0.00     0.032 C 
HETATM    9  C8  UNL     1      23.570   2.024  52.723  1.00  0.00     0.064 C 
HETATM   10  C9  UNL     1      24.235   0.714  52.771  1.00  0.00     0.006 C 
HETATM   11  C10 UNL     1      23.621  -0.452  53.404  1.00  0.00     0.001 C 
HETATM   12  C11 UNL     1      22.279  -0.941  52.994  1.00  0.00     0.012 C 
HETATM   13  C12 UNL     1      21.154  -0.061  53.394  1.00  0.00     0.059 A 
HETATM   14  C13 UNL     1      19.886  -0.876  53.650  1.00  0.00     0.122 A 
HETATM   15  N1  UNL     1      18.666  -1.447  53.618  1.00  0.00    -0.263 NA
HETATM   16  C14 UNL     1      17.737  -1.183  52.680  1.00  0.00     0.230 A 
HETATM   17  N2  UNL     1      17.996  -0.289  51.680  1.00  0.00    -0.225 NA
HETATM   18  C15 UNL     1      19.181   0.342  51.613  1.00  0.00     0.130 A 
HETATM   19  C16 UNL     1      20.032  -0.004  52.604  1.00  0.00     0.006 A 
HETATM   20  N3  UNL     1      19.604   1.290  50.670  1.00  0.00    -0.367 N 
HETATM   21  H19 UNL     1      19.122   2.092  51.177  1.00  0.00     0.161 HD
ENDROOT
TORSDOF 0
ENDMDL
MODEL 8
REMARK VINA RESULT:      -7.0      2.017      3.174
REMARK  0 active torsions:
REMARK  status: ('A' for Active; 'I' for Inactive)
ROOT
HETATM    1  C1  UNL     1      21.020   1.568  48.968  1.00  0.00    -0.002 C 
HETATM    2  C2  UNL     1      20.432   2.769  48.833  1.00  0.00    -0.024 C 
HETATM    3  C3  UNL     1      20.278   4.010  49.619  1.00  0.00     0.054 C 
HETATM    4  C4  UNL     1      21.398   4.255  50.589  1.00  0.00     0.111 C 
HETATM    5  C5  UNL     1      21.128   3.691  51.961  1.00  0.00     0.200 C 
HETATM    6  O1  UNL     1      21.591   2.371  52.137  1.00  0.00    -0.353 OA
HETATM    7  C6  UNL     1      21.666   1.192  51.408  1.00  0.00     0.046 C 
HETATM    8  C7  UNL     1      21.646   0.873  50.100  1.00  0.00     0.032 C 
HETATM    9  C8  UNL     1      21.802  -0.066  52.174  1.00  0.00     0.064 C 
HETATM   10  C9  UNL     1      22.428   0.052  53.498  1.00  0.00     0.006 C 
HETATM   11  C10 UNL     1      23.853   0.334  53.668  1.00  0.00     0.001 C 
HETATM   12  C11 UNL     1      24.485   1.531  53.056  1.00  0.00     0.012 C 
HETATM   13  C12 UNL     1      24.613   1.474  51.579  1.00  0.00     0.059 A 
HETATM   14  C13 UNL     1      25.844   2.249  51.107  1.00  0.00     0.122 A 
HETATM   15  N1  UNL     1      26.713   3.126  50.568  1.00  0.00    -0.263 NA
HETATM   16  C14 UNL     1      26.345   4.224  49.882  1.00  0.00     0.230 A 
HETATM   17  N2  UNL     1      25.023   4.511  49.691  1.00  0.00    -0.225 NA
HETATM   18  C15 UNL     1      24.068   3.706  50.184  1.00  0.00     0.130 A 
HETATM   19  C16 UNL     1      24.556   2.639  50.854  1.00  0.00     0.006 A 
HETATM   20  N3  UNL     1      22.676   3.844  50.070  1.00  0.00    -0.367 N 
HETATM   21  H19 UNL     1      22.655   3.400  49.103  1.00  0.00     0.161 HD
ENDROOT
TORSDOF 0
ENDMDL
MODEL 9
REMARK VINA RESULT:      -7.0     11.311     13.435
REMARK  0 active torsions:
REMARK  status: ('A' for Active; 'I' for Inactive)
ROOT
HETATM    1  C1  UNL     1      30.213   5.488  47.832  1.00  0.00    -0.002 C 
HETATM    2  C2  UNL     1      30.186   6.764  48.256  1.00  0.00    -0.024 C 
HETATM    3  C3  UNL     1      31.134   7.883  48.424  1.00  0.00     0.054 C 
HETATM    4  C4  UNL     1      32.308   7.830  47.488  1.00  0.00     0.111 C 
HETATM    5  C5  UNL     1      33.498   7.109  48.070  1.00  0.00     0.200 C 
HETATM    6  O1  UNL     1      33.522   5.727  47.790  1.00  0.00    -0.353 OA
HETATM    7  C6  UNL     1      32.626   4.671  47.702  1.00  0.00     0.046 C 
HETATM    8  C7  UNL     1      31.299   4.556  47.508  1.00  0.00     0.032 C 
HETATM    9  C8  UNL     1      33.178   3.306  47.846  1.00  0.00     0.064 C 
HETATM   10  C9  UNL     1      34.590   3.141  47.472  1.00  0.00     0.006 C 
HETATM   11  C10 UNL     1      35.044   3.201  46.084  1.00  0.00     0.001 C 
HETATM   12  C11 UNL     1      34.761   4.381  45.226  1.00  0.00     0.012 C 
HETATM   13  C12 UNL     1      33.341   4.528  44.827  1.00  0.00     0.059 A 
HETATM   14  C13 UNL     1      33.223   5.192  43.455  1.00  0.00     0.122 A 
HETATM   15  N1  UNL     1      32.996   6.015  42.413  1.00  0.00    -0.263 NA
HETATM   16  C14 UNL     1      32.455   7.242  42.528  1.00  0.00     0.230 A 
HETATM   17  N2  UNL     1      32.095   7.729  43.753  1.00  0.00    -0.225 NA
HETATM   18  C15 UNL     1      32.274   6.995  44.863  1.00  0.00     0.130 A 
HETATM   19  C16 UNL     1      32.825   5.784  44.625  1.00  0.00     0.006 A 
HETATM   20  N3  UNL     1      31.951   7.333  46.186  1.00  0.00    -0.367 N 
HETATM   21  H19 UNL     1      30.932   7.045  46.070  1.00  0.00     0.161 HD
ENDROOT
TORSDOF 0
ENDMDL
