MODEL 1
REMARK VINA RESULT:      -8.8      0.000      0.000
REMARK  8 active torsions:
REMARK  status: ('A' for Active; 'I' for Inactive)
REMARK    1  A    between atoms: C2_2  and  N1_3 
REMARK    2  A    between atoms: N1_3  and  C3_4 
REMARK    3  A    between atoms: N1_3  and  C21_29 
REMARK    4  A    between atoms: C3_4  and  C4_5 
REMARK    5  A    between atoms: C5_6  and  C6_7 
REMARK       I    between atoms: C6_7  and  N2_9 
REMARK    6  A    between atoms: N2_9  and  C7_10 
REMARK    7  A    between atoms: C12_15  and  N3_16 
REMARK    8  A    between atoms: N3_16  and  C13_17 
ROOT
HETATM    1  C7  UNL     1      25.930   0.164  52.663  1.00  0.00     0.063 A 
HETATM    2  C8  UNL     1      26.518  -1.084  52.754  1.00  0.00     0.048 A 
HETATM    3  C9  UNL     1      27.872  -1.099  53.079  1.00  0.00     0.025 A 
HETATM    4  C10 UNL     1      28.571   0.068  53.293  1.00  0.00     0.071 A 
HETATM    5  C11 UNL     1      27.974   1.306  53.199  1.00  0.00     0.064 A 
HETATM    6  C12 UNL     1      26.634   1.355  52.879  1.00  0.00     0.062 A 
HETATM    7  N4  UNL     1      29.923  -0.249  53.604  1.00  0.00    -0.258 NA
HETATM    8  C19 UNL     1      30.116  -1.533  53.600  1.00  0.00     0.149 A 
HETATM    9  C20 UNL     1      28.856  -2.159  53.273  1.00  0.00     0.078 A 
HETATM   10  N5  UNL     1      28.646  -3.414  53.173  1.00  0.00    -0.298 NA
HETATM   11  H16 UNL     1      27.688  -3.797  52.928  1.00  0.00     0.187 HD
ENDROOT
BRANCH   1  12
HETATM   12  N2  UNL     1      24.525   0.130  52.328  1.00  0.00    -0.314 N 
HETATM   13  C6  UNL     1      23.792  -0.254  53.505  1.00  0.00     0.301 C 
HETATM   14  O1  UNL     1      24.399  -0.495  54.591  1.00  0.00    -0.258 OA
HETATM   15  H8  UNL     1      23.907   0.298  51.505  1.00  0.00     0.170 HD
BRANCH  13  16
HETATM   16  C5  UNL     1      22.352  -0.379  53.504  1.00  0.00    -0.004 C 
HETATM   17  C4  UNL     1      21.149  -0.465  53.495  1.00  0.00    -0.066 C 
BRANCH  17  18
HETATM   18  C3  UNL     1      19.669  -0.551  53.467  1.00  0.00     0.366 C 
BRANCH  18  19
HETATM   19  N1  UNL     1      19.283  -0.133  52.144  1.00  0.00     0.102 N 
BRANCH  19  20
HETATM   20  C2  UNL     1      19.413   1.313  52.086  1.00  0.00     0.269 C 
HETATM   21  C1  UNL     1      20.292   1.679  50.922  1.00  0.00     0.037 C 
ENDBRANCH  19  20
BRANCH  19  22
HETATM   22  C21 UNL     1      17.954  -0.576  51.831  1.00  0.00     0.216 C 
HETATM   23  C22 UNL     1      17.481  -1.471  52.954  1.00  0.00     0.042 C 
HETATM   24  C23 UNL     1      16.994   0.580  51.627  1.00  0.00     0.042 C 
ENDBRANCH  19  22
ENDBRANCH  18  19
ENDBRANCH  17  18
ENDBRANCH  13  16
ENDBRANCH   1  12
BRANCH   6  25
HETATM   25  N3  UNL     1      25.924   2.585  52.760  1.00  0.00    -0.354 N 
HETATM   26  H11 UNL     1      25.740   3.049  53.675  1.00  0.00     0.166 HD
BRANCH  25  27
HETATM   27  C13 UNL     1      25.449   3.235  51.578  1.00  0.00     0.034 A 
HETATM   28  C14 UNL     1      26.263   3.413  50.476  1.00  0.00     0.032 A 
HETATM   29  C15 UNL     1      25.728   4.048  49.376  1.00  0.00     0.046 A 
HETATM   30  C16 UNL     1      24.437   4.514  49.309  1.00  0.00     0.138 A 
HETATM   31  F1  UNL     1      23.943   5.135  48.209  1.00  0.00    -0.204 F 
HETATM   32  C17 UNL     1      23.598   4.345  50.412  1.00  0.00     0.074 A 
HETATM   33 CL1  UNL     1      21.964   4.919  50.367  1.00  0.00    -0.081 Cl
HETATM   34  C18 UNL     1      24.153   3.703  51.515  1.00  0.00     0.056 A 
ENDBRANCH  25  27
ENDBRANCH   6  25
TORSDOF 8
ENDMDL
MODEL 2
REMARK VINA RESULT:      -8.6      3.784      8.025
REMARK  8 active torsions:
REMARK  status: ('A' for Active; 'I' for Inactive)
REMARK    1  A    between atoms: C2_2  and  N1_3 
REMARK    2  A    between atoms: N1_3  and  C3_4 
REMARK    3  A    between atoms: N1_3  and  C21_29 
REMARK    4  A    between atoms: C3_4  and  C4_5 
REMARK    5  A    between atoms: C5_6  and  C6_7 
REMARK       I    between atoms: C6_7  and  N2_9 
REMARK    6  A    between atoms: N2_9  and  C7_10 
REMARK    7  A    between atoms: C12_15  and  N3_16 
REMARK    8  A    between atoms: N3_16  and  C13_17 
ROOT
HETATM    1  C7  UNL     1      23.663   1.387  51.739  1.00  0.00     0.063 A 
HETATM    2  C8  UNL     1      22.327   1.055  51.871  1.00  0.00     0.048 A 
HETATM    3  C9  UNL     1      22.019   0.148  52.882  1.00  0.00     0.025 A 
HETATM    4  C10 UNL     1      22.999  -0.378  53.696  1.00  0.00     0.071 A 
HETATM    5  C11 UNL     1      24.326  -0.039  53.555  1.00  0.00     0.064 A 
HETATM    6  C12 UNL     1      24.664   0.856  52.562  1.00  0.00     0.062 A 
HETATM    7  N4  UNL     1      22.399  -1.269  54.630  1.00  0.00    -0.258 NA
HETATM    8  C19 UNL     1      21.115  -1.335  54.457  1.00  0.00     0.149 A 
HETATM    9  C20 UNL     1      20.781  -0.459  53.357  1.00  0.00     0.078 A 
HETATM   10  N5  UNL     1      19.610  -0.256  52.889  1.00  0.00    -0.298 NA
HETATM   11  H16 UNL     1      19.447   0.405  52.076  1.00  0.00     0.187 HD
ENDROOT
BRANCH   1  12
HETATM   12  N2  UNL     1      23.933   2.332  50.681  1.00  0.00    -0.314 N 
HETATM   13  C6  UNL     1      24.111   3.631  51.273  1.00  0.00     0.301 C 
HETATM   14  O1  UNL     1      24.019   3.784  52.528  1.00  0.00    -0.258 OA
HETATM   15  H8  UNL     1      24.033   2.346  49.643  1.00  0.00     0.170 HD
BRANCH  13  16
HETATM   16  C5  UNL     1      24.399   4.803  50.478  1.00  0.00    -0.004 C 
HETATM   17  C4  UNL     1      24.660   5.776  49.815  1.00  0.00    -0.066 C 
BRANCH  17  18
HETATM   18  C3  UNL     1      25.004   6.963  48.995  1.00  0.00     0.366 C 
BRANCH  18  19
HETATM   19  N1  UNL     1      26.291   7.400  49.469  1.00  0.00     0.102 N 
BRANCH  19  20
HETATM   20  C2  UNL     1      26.113   8.708  50.077  1.00  0.00     0.269 C 
HETATM   21  C1  UNL     1      27.462   9.335  50.296  1.00  0.00     0.037 C 
ENDBRANCH  19  20
BRANCH  19  22
HETATM   22  C21 UNL     1      27.253   7.419  48.404  1.00  0.00     0.216 C 
HETATM   23  C22 UNL     1      27.891   6.051  48.325  1.00  0.00     0.042 C 
HETATM   24  C23 UNL     1      26.634   7.799  47.073  1.00  0.00     0.042 C 
ENDBRANCH  19  22
ENDBRANCH  18  19
ENDBRANCH  17  18
ENDBRANCH  13  16
ENDBRANCH   1  12
BRANCH   6  25
HETATM   25  N3  UNL     1      26.008   1.272  52.337  1.00  0.00    -0.354 N 
HETATM   26  H11 UNL     1      26.085   2.126  51.744  1.00  0.00     0.166 HD
BRANCH  25  27
HETATM   27  C13 UNL     1      27.221   0.680  52.808  1.00  0.00     0.034 A 
HETATM   28  C14 UNL     1      28.235   1.446  53.350  1.00  0.00     0.032 A 
HETATM   29  C15 UNL     1      29.371   0.798  53.783  1.00  0.00     0.046 A 
HETATM   30  C16 UNL     1      29.556  -0.561  53.709  1.00  0.00     0.138 A 
HETATM   31  F1  UNL     1      30.689  -1.167  54.146  1.00  0.00    -0.204 F 
HETATM   32  C17 UNL     1      28.545  -1.354  53.165  1.00  0.00     0.074 A 
HETATM   33 CL1  UNL     1      28.741  -3.072  53.054  1.00  0.00    -0.081 Cl
HETATM   34  C18 UNL     1      27.404  -0.685  52.731  1.00  0.00     0.056 A 
ENDBRANCH  25  27
ENDBRANCH   6  25
TORSDOF 8
ENDMDL
MODEL 3
REMARK VINA RESULT:      -8.5      4.168      9.000
REMARK  8 active torsions:
REMARK  status: ('A' for Active; 'I' for Inactive)
REMARK    1  A    between atoms: C2_2  and  N1_3 
REMARK    2  A    between atoms: N1_3  and  C3_4 
REMARK    3  A    between atoms: N1_3  and  C21_29 
REMARK    4  A    between atoms: C3_4  and  C4_5 
REMARK    5  A    between atoms: C5_6  and  C6_7 
REMARK       I    between atoms: C6_7  and  N2_9 
REMARK    6  A    between atoms: N2_9  and  C7_10 
REMARK    7  A    between atoms: C12_15  and  N3_16 
REMARK    8  A    between atoms: N3_16  and  C13_17 
ROOT
HETATM    1  C7  UNL     1      24.114   3.709  51.799  1.00  0.00     0.063 A 
HETATM    2  C8  UNL     1      22.739   3.840  51.861  1.00  0.00     0.048 A 
HETATM    3  C9  UNL     1      22.041   2.740  52.353  1.00  0.00     0.025 A 
HETATM    4  C10 UNL     1      22.697   1.596  52.752  1.00  0.00     0.071 A 
HETATM    5  C11 UNL     1      24.067   1.477  52.686  1.00  0.00     0.064 A 
HETATM    6  C12 UNL     1      24.787   2.549  52.202  1.00  0.00     0.062 A 
HETATM    7  N4  UNL     1      21.739   0.645  53.206  1.00  0.00    -0.258 NA
HETATM    8  C19 UNL     1      20.533   1.117  53.119  1.00  0.00     0.149 A 
HETATM    9  C20 UNL     1      20.629   2.455  52.582  1.00  0.00     0.078 A 
HETATM   10  N5  UNL     1      19.651   3.242  52.351  1.00  0.00    -0.298 NA
HETATM   11  H16 UNL     1      19.805   4.214  51.955  1.00  0.00     0.187 HD
ENDROOT
BRANCH   1  12
HETATM   12  N2  UNL     1      24.795   4.875  51.286  1.00  0.00    -0.314 N 
HETATM   13  C6  UNL     1      25.177   4.610  49.925  1.00  0.00     0.301 C 
HETATM   14  O1  UNL     1      24.902   3.496  49.385  1.00  0.00    -0.258 OA
HETATM   15  H8  UNL     1      25.082   5.825  51.607  1.00  0.00     0.170 HD
BRANCH  13  16
HETATM   16  C5  UNL     1      25.880   5.585  49.122  1.00  0.00    -0.004 C 
HETATM   17  C4  UNL     1      26.473   6.408  48.470  1.00  0.00    -0.066 C 
BRANCH  17  18
HETATM   18  C3  UNL     1      27.215   7.426  47.688  1.00  0.00     0.366 C 
BRANCH  18  19
HETATM   19  N1  UNL     1      28.430   7.666  48.422  1.00  0.00     0.102 N 
BRANCH  19  20
HETATM   20  C2  UNL     1      28.490   9.088  48.720  1.00  0.00     0.269 C 
HETATM   21  C1  UNL     1      27.773   9.347  50.017  1.00  0.00     0.037 C 
ENDBRANCH  19  20
BRANCH  19  22
HETATM   22  C21 UNL     1      29.575   7.214  47.686  1.00  0.00     0.216 C 
HETATM   23  C22 UNL     1      30.735   8.128  48.013  1.00  0.00     0.042 C 
HETATM   24  C23 UNL     1      29.928   5.772  47.996  1.00  0.00     0.042 C 
ENDBRANCH  19  22
ENDBRANCH  18  19
ENDBRANCH  17  18
ENDBRANCH  13  16
ENDBRANCH   1  12
BRANCH   6  25
HETATM   25  N3  UNL     1      26.208   2.527  52.097  1.00  0.00    -0.354 N 
HETATM   26  H11 UNL     1      26.595   3.308  51.525  1.00  0.00     0.166 HD
BRANCH  25  27
HETATM   27  C13 UNL     1      27.134   1.594  52.660  1.00  0.00     0.034 A 
HETATM   28  C14 UNL     1      28.207   2.014  53.422  1.00  0.00     0.032 A 
HETATM   29  C15 UNL     1      29.052   1.051  53.931  1.00  0.00     0.046 A 
HETATM   30  C16 UNL     1      28.893  -0.298  53.725  1.00  0.00     0.138 A 
HETATM   31  F1  UNL     1      29.745  -1.219  54.241  1.00  0.00    -0.204 F 
HETATM   32  C17 UNL     1      27.816  -0.744  52.958  1.00  0.00     0.074 A 
HETATM   33 CL1  UNL     1      27.581  -2.437  52.676  1.00  0.00    -0.081 Cl
HETATM   34  C18 UNL     1      26.971   0.241  52.451  1.00  0.00     0.056 A 
ENDBRANCH  25  27
ENDBRANCH   6  25
TORSDOF 8
ENDMDL
MODEL 4
REMARK VINA RESULT:      -8.5      4.535      9.495
REMARK  8 active torsions:
REMARK  status: ('A' for Active; 'I' for Inactive)
REMARK    1  A    between atoms: C2_2  and  N1_3 
REMARK    2  A    between atoms: N1_3  and  C3_4 
REMARK    3  A    between atoms: N1_3  and  C21_29 
REMARK    4  A    between atoms: C3_4  and  C4_5 
REMARK    5  A    between atoms: C5_6  and  C6_7 
REMARK       I    between atoms: C6_7  and  N2_9 
REMARK    6  A    between atoms: N2_9  and  C7_10 
REMARK    7  A    between atoms: C12_15  and  N3_16 
REMARK    8  A    between atoms: N3_16  and  C13_17 
ROOT
HETATM    1  C7  UNL     1      25.081   2.989  50.184  1.00  0.00     0.063 A 
HETATM    2  C8  UNL     1      23.968   2.930  49.366  1.00  0.00     0.048 A 
HETATM    3  C9  UNL     1      22.761   2.637  49.996  1.00  0.00     0.025 A 
HETATM    4  C10 UNL     1      22.696   2.422  51.355  1.00  0.00     0.071 A 
HETATM    5  C11 UNL     1      23.812   2.483  52.160  1.00  0.00     0.064 A 
HETATM    6  C12 UNL     1      25.023   2.771  51.566  1.00  0.00     0.062 A 
HETATM    7  N4  UNL     1      21.347   2.145  51.718  1.00  0.00    -0.258 NA
HETATM    8  C19 UNL     1      20.568   2.174  50.681  1.00  0.00     0.149 A 
HETATM    9  C20 UNL     1      21.387   2.482  49.531  1.00  0.00     0.078 A 
HETATM   10  N5  UNL     1      20.977   2.596  48.327  1.00  0.00    -0.298 NA
HETATM   11  H16 UNL     1      21.645   2.825  47.536  1.00  0.00     0.187 HD
ENDROOT
BRANCH   1  12
HETATM   12  N2  UNL     1      26.308   3.299  49.488  1.00  0.00    -0.314 N 
HETATM   13  C6  UNL     1      26.417   4.730  49.384  1.00  0.00     0.301 C 
HETATM   14  O1  UNL     1      25.515   5.480  49.864  1.00  0.00    -0.258 OA
HETATM   15  H8  UNL     1      27.115   2.801  49.052  1.00  0.00     0.170 HD
BRANCH  13  16
HETATM   16  C5  UNL     1      27.541   5.368  48.737  1.00  0.00    -0.004 C 
HETATM   17  C4  UNL     1      28.466   5.909  48.184  1.00  0.00    -0.066 C 
BRANCH  17  18
HETATM   18  C3  UNL     1      29.588   6.590  47.492  1.00  0.00     0.366 C 
BRANCH  18  19
HETATM   19  N1  UNL     1      30.272   7.340  48.513  1.00  0.00     0.102 N 
BRANCH  19  20
HETATM   20  C2  UNL     1      30.080   8.751  48.222  1.00  0.00     0.269 C 
HETATM   21  C1  UNL     1      29.355   9.394  49.372  1.00  0.00     0.037 C 
ENDBRANCH  19  20
BRANCH  19  22
HETATM   22  C21 UNL     1      31.659   6.979  48.576  1.00  0.00     0.216 C 
HETATM   23  C22 UNL     1      31.840   6.012  49.725  1.00  0.00     0.042 C 
HETATM   24  C23 UNL     1      32.156   6.368  47.280  1.00  0.00     0.042 C 
ENDBRANCH  19  22
ENDBRANCH  18  19
ENDBRANCH  17  18
ENDBRANCH  13  16
ENDBRANCH   1  12
BRANCH   6  25
HETATM   25  N3  UNL     1      26.234   2.860  52.311  1.00  0.00    -0.354 N 
HETATM   26  H11 UNL     1      26.491   3.836  52.571  1.00  0.00     0.166 HD
BRANCH  25  27
HETATM   27  C13 UNL     1      27.109   1.808  52.729  1.00  0.00     0.034 A 
HETATM   28  C14 UNL     1      28.296   2.076  53.383  1.00  0.00     0.032 A 
HETATM   29  C15 UNL     1      29.082   1.006  53.755  1.00  0.00     0.046 A 
HETATM   30  C16 UNL     1      28.757  -0.307  53.514  1.00  0.00     0.138 A 
HETATM   31  F1  UNL     1      29.555  -1.336  53.895  1.00  0.00    -0.204 F 
HETATM   32  C17 UNL     1      27.562  -0.599  52.855  1.00  0.00     0.074 A 
HETATM   33 CL1  UNL     1      27.117  -2.242  52.533  1.00  0.00    -0.081 Cl
HETATM   34  C18 UNL     1      26.779   0.492  52.485  1.00  0.00     0.056 A 
ENDBRANCH  25  27
ENDBRANCH   6  25
TORSDOF 8
ENDMDL
MODEL 5
REMARK VINA RESULT:      -8.3      3.502      7.333
REMARK  8 active torsions:
REMARK  status: ('A' for Active; 'I' for Inactive)
REMARK    1  A    between atoms: C2_2  and  N1_3 
REMARK    2  A    between atoms: N1_3  and  C3_4 
REMARK    3  A    between atoms: N1_3  and  C21_29 
REMARK    4  A    between atoms: C3_4  and  C4_5 
REMARK    5  A    between atoms: C5_6  and  C6_7 
REMARK       I    between atoms: C6_7  and  N2_9 
REMARK    6  A    between atoms: N2_9  and  C7_10 
REMARK    7  A    between atoms: C12_15  and  N3_16 
REMARK    8  A    between atoms: N3_16  and  C13_17 
ROOT
HETATM    1  C7  UNL     1      25.765   2.307  52.330  1.00  0.00     0.063 A 
HETATM    2  C8  UNL     1      26.992   2.509  52.935  1.00  0.00     0.048 A 
HETATM    3  C9  UNL     1      27.566   1.392  53.538  1.00  0.00     0.025 A 
HETATM    4  C10 UNL     1      26.938   0.167  53.525  1.00  0.00     0.071 A 
HETATM    5  C11 UNL     1      25.715  -0.021  52.919  1.00  0.00     0.064 A 
HETATM    6  C12 UNL     1      25.119   1.065  52.312  1.00  0.00     0.062 A 
HETATM    7  N4  UNL     1      27.749  -0.780  54.211  1.00  0.00    -0.258 NA
HETATM    8  C19 UNL     1      28.839  -0.231  54.651  1.00  0.00     0.149 A 
HETATM    9  C20 UNL     1      28.809   1.162  54.266  1.00  0.00     0.078 A 
HETATM   10  N5  UNL     1      29.710   2.029  54.520  1.00  0.00    -0.298 NA
HETATM   11  H16 UNL     1      29.614   3.036  54.202  1.00  0.00     0.187 HD
ENDROOT
BRANCH   1  12
HETATM   12  N2  UNL     1      25.210   3.491  51.715  1.00  0.00    -0.314 N 
HETATM   13  C6  UNL     1      25.923   3.737  50.489  1.00  0.00     0.301 C 
HETATM   14  O1  UNL     1      26.861   2.966  50.125  1.00  0.00    -0.258 OA
HETATM   15  H8  UNL     1      24.465   4.198  51.896  1.00  0.00     0.170 HD
BRANCH  13  16
HETATM   16  C5  UNL     1      25.606   4.854  49.630  1.00  0.00    -0.004 C 
HETATM   17  C4  UNL     1      25.343   5.800  48.929  1.00  0.00    -0.066 C 
BRANCH  17  18
HETATM   18  C3  UNL     1      25.029   6.978  48.084  1.00  0.00     0.366 C 
BRANCH  18  19
HETATM   19  N1  UNL     1      26.136   7.883  48.258  1.00  0.00     0.102 N 
BRANCH  19  20
HETATM   20  C2  UNL     1      25.799   8.783  49.348  1.00  0.00     0.269 C 
HETATM   21  C1  UNL     1      27.033   9.041  50.169  1.00  0.00     0.037 C 
ENDBRANCH  19  20
BRANCH  19  22
HETATM   22  C21 UNL     1      26.425   8.583  47.040  1.00  0.00     0.216 C 
HETATM   23  C22 UNL     1      27.797   8.157  46.567  1.00  0.00     0.042 C 
HETATM   24  C23 UNL     1      25.386   8.327  45.965  1.00  0.00     0.042 C 
ENDBRANCH  19  22
ENDBRANCH  18  19
ENDBRANCH  17  18
ENDBRANCH  13  16
ENDBRANCH   1  12
BRANCH   6  25
HETATM   25  N3  UNL     1      23.858   0.973  51.657  1.00  0.00    -0.354 N 
HETATM   26  H11 UNL     1      23.893   1.240  50.649  1.00  0.00     0.166 HD
BRANCH  25  27
HETATM   27  C13 UNL     1      22.594   0.575  52.195  1.00  0.00     0.034 A 
HETATM   28  C14 UNL     1      22.469   0.154  53.505  1.00  0.00     0.032 A 
HETATM   29  C15 UNL     1      21.215  -0.210  53.947  1.00  0.00     0.046 A 
HETATM   30  C16 UNL     1      20.086  -0.181  53.166  1.00  0.00     0.138 A 
HETATM   31  F1  UNL     1      18.866  -0.547  53.634  1.00  0.00    -0.204 F 
HETATM   32  C17 UNL     1      20.190   0.242  51.840  1.00  0.00     0.074 A 
HETATM   33 CL1  UNL     1      18.788   0.293  50.822  1.00  0.00    -0.081 Cl
HETATM   34  C18 UNL     1      21.462   0.606  51.407  1.00  0.00     0.056 A 
ENDBRANCH  25  27
ENDBRANCH   6  25
TORSDOF 8
ENDMDL
MODEL 6
REMARK VINA RESULT:      -8.2      3.285      6.474
REMARK  8 active torsions:
REMARK  status: ('A' for Active; 'I' for Inactive)
REMARK    1  A    between atoms: C2_2  and  N1_3 
REMARK    2  A    between atoms: N1_3  and  C3_4 
REMARK    3  A    between atoms: N1_3  and  C21_29 
REMARK    4  A    between atoms: C3_4  and  C4_5 
REMARK    5  A    between atoms: C5_6  and  C6_7 
REMARK       I    between atoms: C6_7  and  N2_9 
REMARK    6  A    between atoms: N2_9  and  C7_10 
REMARK    7  A    between atoms: C12_15  and  N3_16 
REMARK    8  A    between atoms: N3_16  and  C13_17 
ROOT
HETATM    1  C7  UNL     1      25.788   2.266  52.377  1.00  0.00     0.063 A 
HETATM    2  C8  UNL     1      27.007   2.501  52.985  1.00  0.00     0.048 A 
HETATM    3  C9  UNL     1      27.625   1.394  53.563  1.00  0.00     0.025 A 
HETATM    4  C10 UNL     1      27.043   0.146  53.522  1.00  0.00     0.071 A 
HETATM    5  C11 UNL     1      25.828  -0.075  52.913  1.00  0.00     0.064 A 
HETATM    6  C12 UNL     1      25.190   1.001  52.332  1.00  0.00     0.062 A 
HETATM    7  N4  UNL     1      27.891  -0.784  54.186  1.00  0.00    -0.258 NA
HETATM    8  C19 UNL     1      28.961  -0.204  54.637  1.00  0.00     0.149 A 
HETATM    9  C20 UNL     1      28.877   1.194  54.284  1.00  0.00     0.078 A 
HETATM   10  N5  UNL     1      29.745   2.089  54.556  1.00  0.00    -0.298 NA
HETATM   11  H16 UNL     1      29.610   3.099  54.261  1.00  0.00     0.187 HD
ENDROOT
BRANCH   1  12
HETATM   12  N2  UNL     1      25.187   3.441  51.789  1.00  0.00    -0.314 N 
HETATM   13  C6  UNL     1      25.826   3.688  50.523  1.00  0.00     0.301 C 
HETATM   14  O1  UNL     1      26.749   2.924  50.110  1.00  0.00    -0.258 OA
HETATM   15  H8  UNL     1      24.448   4.143  52.010  1.00  0.00     0.170 HD
BRANCH  13  16
HETATM   16  C5  UNL     1      25.450   4.798  49.678  1.00  0.00    -0.004 C 
HETATM   17  C4  UNL     1      25.153   5.734  48.978  1.00  0.00    -0.066 C 
BRANCH  17  18
HETATM   18  C3  UNL     1      24.813   6.892  48.117  1.00  0.00     0.366 C 
BRANCH  18  19
HETATM   19  N1  UNL     1      23.405   7.118  48.311  1.00  0.00     0.102 N 
BRANCH  19  20
HETATM   20  C2  UNL     1      22.837   7.483  47.023  1.00  0.00     0.269 C 
HETATM   21  C1  UNL     1      22.442   6.232  46.289  1.00  0.00     0.037 C 
ENDBRANCH  19  20
BRANCH  19  22
HETATM   22  C21 UNL     1      23.176   8.118  49.313  1.00  0.00     0.216 C 
HETATM   23  C22 UNL     1      22.587   9.335  48.635  1.00  0.00     0.042 C 
HETATM   24  C23 UNL     1      22.262   7.629  50.420  1.00  0.00     0.042 C 
ENDBRANCH  19  22
ENDBRANCH  18  19
ENDBRANCH  17  18
ENDBRANCH  13  16
ENDBRANCH   1  12
BRANCH   6  25
HETATM   25  N3  UNL     1      23.932   0.877  51.676  1.00  0.00    -0.354 N 
HETATM   26  H11 UNL     1      23.973   1.083  50.655  1.00  0.00     0.166 HD
BRANCH  25  27
HETATM   27  C13 UNL     1      22.663   0.517  52.230  1.00  0.00     0.034 A 
HETATM   28  C14 UNL     1      22.535   0.137  53.552  1.00  0.00     0.032 A 
HETATM   29  C15 UNL     1      21.277  -0.192  54.009  1.00  0.00     0.046 A 
HETATM   30  C16 UNL     1      20.145  -0.166  53.230  1.00  0.00     0.138 A 
HETATM   31  F1  UNL     1      18.921  -0.496  53.714  1.00  0.00    -0.204 F 
HETATM   32  C17 UNL     1      20.252   0.215  51.892  1.00  0.00     0.074 A 
HETATM   33 CL1  UNL     1      18.848   0.260  50.878  1.00  0.00    -0.081 Cl
HETATM   34  C18 UNL     1      21.529   0.544  51.445  1.00  0.00     0.056 A 
ENDBRANCH  25  27
ENDBRANCH   6  25
TORSDOF 8
ENDMDL
MODEL 7
REMARK VINA RESULT:      -7.8      3.592      6.386
REMARK  8 active torsions:
REMARK  status: ('A' for Active; 'I' for Inactive)
REMARK    1  A    between atoms: C2_2  and  N1_3 
REMARK    2  A    between atoms: N1_3  and  C3_4 
REMARK    3  A    between atoms: N1_3  and  C21_29 
REMARK    4  A    between atoms: C3_4  and  C4_5 
REMARK    5  A    between atoms: C5_6  and  C6_7 
REMARK       I    between atoms: C6_7  and  N2_9 
REMARK    6  A    between atoms: N2_9  and  C7_10 
REMARK    7  A    between atoms: C12_15  and  N3_16 
REMARK    8  A    between atoms: N3_16  and  C13_17 
ROOT
HETATM    1  C7  UNL     1      25.385   4.715  50.480  1.00  0.00     0.063 A 
HETATM    2  C8  UNL     1      25.277   6.070  50.225  1.00  0.00     0.048 A 
HETATM    3  C9  UNL     1      26.192   6.596  49.315  1.00  0.00     0.025 A 
HETATM    4  C10 UNL     1      27.142   5.801  48.714  1.00  0.00     0.071 A 
HETATM    5  C11 UNL     1      27.241   4.452  48.977  1.00  0.00     0.064 A 
HETATM    6  C12 UNL     1      26.349   3.901  49.873  1.00  0.00     0.062 A 
HETATM    7  N4  UNL     1      27.933   6.600  47.841  1.00  0.00    -0.258 NA
HETATM    8  C19 UNL     1      27.542   7.837  47.856  1.00  0.00     0.149 A 
HETATM    9  C20 UNL     1      26.429   7.929  48.773  1.00  0.00     0.078 A 
HETATM   10  N5  UNL     1      25.775   8.989  49.055  1.00  0.00    -0.298 NA
HETATM   11  H16 UNL     1      24.968   8.974  49.742  1.00  0.00     0.187 HD
ENDROOT
BRANCH   1  12
HETATM   12  N2  UNL     1      24.415   4.215  51.425  1.00  0.00    -0.314 N 
HETATM   13  C6  UNL     1      23.364   3.563  50.688  1.00  0.00     0.301 C 
HETATM   14  O1  UNL     1      23.405   3.509  49.422  1.00  0.00    -0.258 OA
HETATM   15  H8  UNL     1      24.258   4.189  52.456  1.00  0.00     0.170 HD
BRANCH  13  16
HETATM   16  C5  UNL     1      22.233   2.950  51.346  1.00  0.00    -0.004 C 
HETATM   17  C4  UNL     1      21.299   2.420  51.894  1.00  0.00    -0.066 C 
BRANCH  17  18
HETATM   18  C3  UNL     1      20.165   1.749  52.574  1.00  0.00     0.366 C 
BRANCH  18  19
HETATM   19  N1  UNL     1      20.271   0.357  52.220  1.00  0.00     0.102 N 
BRANCH  19  20
HETATM   20  C2  UNL     1      18.947  -0.099  51.831  1.00  0.00     0.269 C 
HETATM   21  C1  UNL     1      18.339   0.905  50.891  1.00  0.00     0.037 C 
ENDBRANCH  19  20
BRANCH  19  22
HETATM   22  C21 UNL     1      20.818  -0.410  53.302  1.00  0.00     0.216 C 
HETATM   23  C22 UNL     1      22.248  -0.760  52.953  1.00  0.00     0.042 C 
HETATM   24  C23 UNL     1      20.756   0.330  54.624  1.00  0.00     0.042 C 
ENDBRANCH  19  22
ENDBRANCH  18  19
ENDBRANCH  17  18
ENDBRANCH  13  16
ENDBRANCH   1  12
BRANCH   6  25
HETATM   25  N3  UNL     1      26.366   2.517  50.210  1.00  0.00    -0.354 N 
HETATM   26  H11 UNL     1      26.184   1.889  49.398  1.00  0.00     0.166 HD
BRANCH  25  27
HETATM   27  C13 UNL     1      26.593   1.906  51.483  1.00  0.00     0.034 A 
HETATM   28  C14 UNL     1      25.747   0.933  51.977  1.00  0.00     0.032 A 
HETATM   29  C15 UNL     1      26.037   0.392  53.212  1.00  0.00     0.046 A 
HETATM   30  C16 UNL     1      27.115   0.764  53.979  1.00  0.00     0.138 A 
HETATM   31  F1  UNL     1      27.371   0.210  55.191  1.00  0.00    -0.204 F 
HETATM   32  C17 UNL     1      27.982   1.745  53.499  1.00  0.00     0.074 A 
HETATM   33 CL1  UNL     1      29.352   2.241  54.437  1.00  0.00    -0.081 Cl
HETATM   34  C18 UNL     1      27.676   2.282  52.251  1.00  0.00     0.056 A 
ENDBRANCH  25  27
ENDBRANCH   6  25
TORSDOF 8
ENDMDL
MODEL 8
REMARK VINA RESULT:      -7.6      3.529      7.345
REMARK  8 active torsions:
REMARK  status: ('A' for Active; 'I' for Inactive)
REMARK    1  A    between atoms: C2_2  and  N1_3 
REMARK    2  A    between atoms: N1_3  and  C3_4 
REMARK    3  A    between atoms: N1_3  and  C21_29 
REMARK    4  A    between atoms: C3_4  and  C4_5 
REMARK    5  A    between atoms: C5_6  and  C6_7 
REMARK       I    between atoms: C6_7  and  N2_9 
REMARK    6  A    between atoms: N2_9  and  C7_10 
REMARK    7  A    between atoms: C12_15  and  N3_16 
REMARK    8  A    between atoms: N3_16  and  C13_17 
ROOT
HETATM    1  C7  UNL     1      25.174   3.070  51.566  1.00  0.00     0.063 A 
HETATM    2  C8  UNL     1      26.144   2.365  52.255  1.00  0.00     0.048 A 
HETATM    3  C9  UNL     1      25.741   1.150  52.806  1.00  0.00     0.025 A 
HETATM    4  C10 UNL     1      24.450   0.692  52.663  1.00  0.00     0.071 A 
HETATM    5  C11 UNL     1      23.493   1.404  51.974  1.00  0.00     0.064 A 
HETATM    6  C12 UNL     1      23.860   2.611  51.417  1.00  0.00     0.062 A 
HETATM    7  N4  UNL     1      24.326  -0.563  53.323  1.00  0.00    -0.258 NA
HETATM    8  C19 UNL     1      25.449  -0.920  53.866  1.00  0.00     0.149 A 
HETATM    9  C20 UNL     1      26.414   0.118  53.586  1.00  0.00     0.078 A 
HETATM   10  N5  UNL     1      27.636   0.126  53.957  1.00  0.00    -0.298 NA
HETATM   11  H16 UNL     1      28.284   0.928  53.710  1.00  0.00     0.187 HD
ENDROOT
BRANCH   1  12
HETATM   12  N2  UNL     1      25.639   4.320  51.010  1.00  0.00    -0.314 N 
HETATM   13  C6  UNL     1      26.377   4.031  49.809  1.00  0.00     0.301 C 
HETATM   14  O1  UNL     1      26.522   2.835  49.415  1.00  0.00    -0.258 OA
HETATM   15  H8  UNL     1      25.596   5.340  51.221  1.00  0.00     0.170 HD
BRANCH  13  16
HETATM   16  C5  UNL     1      26.977   5.074  49.009  1.00  0.00    -0.004 C 
HETATM   17  C4  UNL     1      27.496   5.939  48.348  1.00  0.00    -0.066 C 
BRANCH  17  18
HETATM   18  C3  UNL     1      28.156   6.991  47.537  1.00  0.00     0.366 C 
BRANCH  18  19
HETATM   19  N1  UNL     1      27.359   8.176  47.718  1.00  0.00     0.102 N 
BRANCH  19  20
HETATM   20  C2  UNL     1      27.371   8.500  49.136  1.00  0.00     0.269 C 
HETATM   21  C1  UNL     1      28.582   9.339  49.436  1.00  0.00     0.037 C 
ENDBRANCH  19  20
BRANCH  19  22
HETATM   22  C21 UNL     1      26.030   7.986  47.213  1.00  0.00     0.216 C 
HETATM   23  C22 UNL     1      25.067   8.678  48.151  1.00  0.00     0.042 C 
HETATM   24  C23 UNL     1      25.870   8.512  45.799  1.00  0.00     0.042 C 
ENDBRANCH  19  22
ENDBRANCH  18  19
ENDBRANCH  17  18
ENDBRANCH  13  16
ENDBRANCH   1  12
BRANCH   6  25
HETATM   25  N3  UNL     1      22.946   3.420  50.684  1.00  0.00    -0.354 N 
HETATM   26  H11 UNL     1      22.428   4.104  51.276  1.00  0.00     0.166 HD
BRANCH  25  27
HETATM   27  C13 UNL     1      22.662   3.408  49.282  1.00  0.00     0.034 A 
HETATM   28  C14 UNL     1      22.397   2.230  48.611  1.00  0.00     0.032 A 
HETATM   29  C15 UNL     1      22.131   2.303  47.260  1.00  0.00     0.046 A 
HETATM   30  C16 UNL     1      22.113   3.475  46.543  1.00  0.00     0.138 A 
HETATM   31  F1  UNL     1      21.847   3.511  45.213  1.00  0.00    -0.204 F 
HETATM   32  C17 UNL     1      22.378   4.677  47.202  1.00  0.00     0.074 A 
HETATM   33 CL1  UNL     1      22.366   6.175  46.332  1.00  0.00    -0.081 Cl
HETATM   34  C18 UNL     1      22.646   4.586  48.565  1.00  0.00     0.056 A 
ENDBRANCH  25  27
ENDBRANCH   6  25
TORSDOF 8
ENDMDL
MODEL 9
REMARK VINA RESULT:      -7.6      6.793      8.977
REMARK  8 active torsions:
REMARK  status: ('A' for Active; 'I' for Inactive)
REMARK    1  A    between atoms: C2_2  and  N1_3 
REMARK    2  A    between atoms: N1_3  and  C3_4 
REMARK    3  A    between atoms: N1_3  and  C21_29 
REMARK    4  A    between atoms: C3_4  and  C4_5 
REMARK    5  A    between atoms: C5_6  and  C6_7 
REMARK       I    between atoms: C6_7  and  N2_9 
REMARK    6  A    between atoms: N2_9  and  C7_10 
REMARK    7  A    between atoms: C12_15  and  N3_16 
REMARK    8  A    between atoms: N3_16  and  C13_17 
ROOT
HETATM    1  C7  UNL     1      30.442   6.270  48.381  1.00  0.00     0.063 A 
HETATM    2  C8  UNL     1      30.920   5.319  47.499  1.00  0.00     0.048 A 
HETATM    3  C9  UNL     1      32.101   5.641  46.834  1.00  0.00     0.025 A 
HETATM    4  C10 UNL     1      32.743   6.839  47.054  1.00  0.00     0.071 A 
HETATM    5  C11 UNL     1      32.257   7.779  47.936  1.00  0.00     0.064 A 
HETATM    6  C12 UNL     1      31.088   7.491  48.609  1.00  0.00     0.062 A 
HETATM    7  N4  UNL     1      33.913   6.895  46.245  1.00  0.00    -0.258 NA
HETATM    8  C19 UNL     1      34.046   5.816  45.537  1.00  0.00     0.149 A 
HETATM    9  C20 UNL     1      32.929   4.953  45.850  1.00  0.00     0.078 A 
HETATM   10  N5  UNL     1      32.711   3.799  45.351  1.00  0.00    -0.298 NA
HETATM   11  H16 UNL     1      31.865   3.225  45.633  1.00  0.00     0.187 HD
ENDROOT
BRANCH   1  12
HETATM   12  N2  UNL     1      29.218   5.892  49.049  1.00  0.00    -0.314 N 
HETATM   13  C6  UNL     1      28.111   6.308  48.229  1.00  0.00     0.301 C 
HETATM   14  O1  UNL     1      28.314   6.900  47.127  1.00  0.00    -0.258 OA
HETATM   15  H8  UNL     1      28.913   5.419  49.927  1.00  0.00     0.170 HD
BRANCH  13  16
HETATM   16  C5  UNL     1      26.739   6.074  48.618  1.00  0.00    -0.004 C 
HETATM   17  C4  UNL     1      25.600   5.860  48.952  1.00  0.00    -0.066 C 
BRANCH  17  18
HETATM   18  C3  UNL     1      24.208   5.582  49.380  1.00  0.00     0.366 C 
BRANCH  18  19
HETATM   19  N1  UNL     1      24.170   4.174  49.681  1.00  0.00     0.102 N 
BRANCH  19  20
HETATM   20  C2  UNL     1      22.789   3.737  49.563  1.00  0.00     0.269 C 
HETATM   21  C1  UNL     1      22.701   2.677  48.500  1.00  0.00     0.037 C 
ENDBRANCH  19  20
BRANCH  19  22
HETATM   22  C21 UNL     1      24.718   3.911  50.981  1.00  0.00     0.216 C 
HETATM   23  C22 UNL     1      23.576   3.876  51.972  1.00  0.00     0.042 C 
HETATM   24  C23 UNL     1      25.503   2.614  51.024  1.00  0.00     0.042 C 
ENDBRANCH  19  22
ENDBRANCH  18  19
ENDBRANCH  17  18
ENDBRANCH  13  16
ENDBRANCH   1  12
BRANCH   6  25
HETATM   25  N3  UNL     1      30.506   8.395  49.543  1.00  0.00    -0.354 N 
HETATM   26  H11 UNL     1      30.513   8.041  50.524  1.00  0.00     0.166 HD
BRANCH  25  27
HETATM   27  C13 UNL     1      29.931   9.683  49.306  1.00  0.00     0.034 A 
HETATM   28  C14 UNL     1      30.703  10.828  49.310  1.00  0.00     0.032 A 
HETATM   29  C15 UNL     1      30.073  12.031  49.070  1.00  0.00     0.046 A 
HETATM   30  C16 UNL     1      28.726  12.158  48.830  1.00  0.00     0.138 A 
HETATM   31  F1  UNL     1      28.139  13.359  48.598  1.00  0.00    -0.204 F 
HETATM   32  C17 UNL     1      27.928  11.014  48.822  1.00  0.00     0.074 A 
HETATM   33 CL1  UNL     1      26.226  11.133  48.523  1.00  0.00    -0.081 Cl
HETATM   34  C18 UNL     1      28.579   9.807  49.066  1.00  0.00     0.056 A 
ENDBRANCH  25  27
ENDBRANCH   6  25
TORSDOF 8
ENDMDL
