MODEL 1
REMARK VINA RESULT:      -6.5      0.000      0.000
REMARK  4 active torsions:
REMARK  status: ('A' for Active; 'I' for Inactive)
REMARK    1  A    between atoms: C2_2  and  N1_3 
REMARK    2  A    between atoms: N1_3  and  C3_4 
REMARK    3  A    between atoms: C3_4  and  C4_5 
REMARK    4  A    between atoms: C7_8  and  N2_9 
ROOT
HETATM    1  C4  UNL     1      23.218   2.814  48.122  1.00  0.00     0.005 C 
HETATM    2  C5  UNL     1      23.520   3.375  49.304  1.00  0.00     0.001 C 
HETATM    3  C6  UNL     1      23.207   3.712  50.731  1.00  0.00     0.071 C 
HETATM    4  C7  UNL     1      22.720   4.961  51.077  1.00  0.00     0.099 C 
HETATM    5  C9  UNL     1      23.596   6.021  50.443  1.00  0.00     0.145 C 
HETATM    6  N3  UNL     1      24.536   5.437  49.783  1.00  0.00    -0.281 NA
HETATM    7  C10 UNL     1      24.819   4.102  49.456  1.00  0.00     0.217 C 
HETATM    8  C11 UNL     1      25.829   3.342  50.257  1.00  0.00     0.191 C 
HETATM    9  O1  UNL     1      27.070   3.561  50.018  1.00  0.00    -0.290 OA
HETATM   10  C12 UNL     1      25.790   2.311  51.350  1.00  0.00     0.039 A 
HETATM   11  C13 UNL     1      26.868   1.554  51.671  1.00  0.00     0.019 A 
HETATM   12  C14 UNL     1      26.720   0.649  52.694  1.00  0.00     0.020 A 
HETATM   13  C15 UNL     1      25.538   0.483  53.395  1.00  0.00     0.013 A 
HETATM   14 BR1  UNL     1      25.414  -0.800  54.808  1.00  0.00    -0.051 Br
HETATM   15  C16 UNL     1      24.397   1.206  53.139  1.00  0.00     0.049 A 
HETATM   16  C17 UNL     1      24.620   2.072  52.122  1.00  0.00     0.048 A 
HETATM   17  N4  UNL     1      23.371   2.827  51.907  1.00  0.00    -0.353 N 
HETATM   18  H15 UNL     1      22.531   2.839  52.513  1.00  0.00     0.166 HD
ENDROOT
BRANCH   1  19
HETATM   19  C3  UNL     1      22.103   2.062  47.569  1.00  0.00     0.147 C 
BRANCH  19  20
HETATM   20  N1  UNL     1      21.410   1.199  48.490  1.00  0.00    -0.396 N 
HETATM   21  H4  UNL     1      21.486   0.141  48.443  1.00  0.00     0.159 HD
BRANCH  20  22
HETATM   22  C2  UNL     1      20.548   1.126  49.592  1.00  0.00     0.073 C 
HETATM   23  C1  UNL     1      21.023   0.475  50.672  1.00  0.00     0.029 C 
ENDBRANCH  20  22
ENDBRANCH  19  20
ENDBRANCH   1  19
BRANCH   4  24
HETATM   24  N2  UNL     1      21.613   4.756  51.946  1.00  0.00    -0.268 NA
HETATM   25  C8  UNL     1      20.459   4.349  51.615  1.00  0.00     0.150 C 
ENDBRANCH   4  24
TORSDOF 4
ENDMDL
MODEL 2
REMARK VINA RESULT:      -6.5      8.883     11.344
REMARK  4 active torsions:
REMARK  status: ('A' for Active; 'I' for Inactive)
REMARK    1  A    between atoms: C2_2  and  N1_3 
REMARK    2  A    between atoms: N1_3  and  C3_4 
REMARK    3  A    between atoms: C3_4  and  C4_5 
REMARK    4  A    between atoms: C7_8  and  N2_9 
ROOT
HETATM    1  C4  UNL     1      34.984   6.782  48.544  1.00  0.00     0.005 C 
HETATM    2  C5  UNL     1      34.120   6.986  47.535  1.00  0.00     0.001 C 
HETATM    3  C6  UNL     1      33.185   6.496  46.471  1.00  0.00     0.071 C 
HETATM    4  C7  UNL     1      33.592   6.412  45.150  1.00  0.00     0.099 C 
HETATM    5  C9  UNL     1      34.238   7.722  44.752  1.00  0.00     0.145 C 
HETATM    6  N3  UNL     1      34.201   8.522  45.761  1.00  0.00    -0.281 NA
HETATM    7  C10 UNL     1      33.818   8.386  47.104  1.00  0.00     0.217 C 
HETATM    8  C11 UNL     1      32.466   8.857  47.539  1.00  0.00     0.191 C 
HETATM    9  O1  UNL     1      32.301  10.116  47.722  1.00  0.00    -0.290 OA
HETATM   10  C12 UNL     1      31.143   8.214  47.847  1.00  0.00     0.039 A 
HETATM   11  C13 UNL     1      30.167   8.857  48.535  1.00  0.00     0.019 A 
HETATM   12  C14 UNL     1      28.995   8.174  48.750  1.00  0.00     0.020 A 
HETATM   13  C15 UNL     1      28.775   6.883  48.302  1.00  0.00     0.013 A 
HETATM   14 BR1  UNL     1      27.112   6.002  48.644  1.00  0.00    -0.051 Br
HETATM   15  C16 UNL     1      29.706   6.156  47.598  1.00  0.00     0.049 A 
HETATM   16  C17 UNL     1      30.830   6.892  47.426  1.00  0.00     0.048 A 
HETATM   17  N4  UNL     1      31.779   6.069  46.654  1.00  0.00    -0.353 N 
HETATM   18  H15 UNL     1      31.587   5.173  46.171  1.00  0.00     0.166 HD
ENDROOT
BRANCH   1  19
HETATM   19  C3  UNL     1      35.542   5.630  49.234  1.00  0.00     0.147 C 
BRANCH  19  20
HETATM   20  N1  UNL     1      35.050   4.346  48.809  1.00  0.00    -0.396 N 
HETATM   21  H4  UNL     1      34.634   3.645  49.489  1.00  0.00     0.159 HD
BRANCH  20  22
HETATM   22  C2  UNL     1      34.846   3.477  47.730  1.00  0.00     0.073 C 
HETATM   23  C1  UNL     1      33.608   2.956  47.616  1.00  0.00     0.029 C 
ENDBRANCH  20  22
ENDBRANCH  19  20
ENDBRANCH   1  19
BRANCH   4  24
HETATM   24  N2  UNL     1      33.189   5.136  44.665  1.00  0.00    -0.268 NA
HETATM   25  C8  UNL     1      33.314   4.706  43.479  1.00  0.00     0.150 C 
ENDBRANCH   4  24
TORSDOF 4
ENDMDL
MODEL 3
REMARK VINA RESULT:      -6.3      3.196      4.658
REMARK  4 active torsions:
REMARK  status: ('A' for Active; 'I' for Inactive)
REMARK    1  A    between atoms: C2_2  and  N1_3 
REMARK    2  A    between atoms: N1_3  and  C3_4 
REMARK    3  A    between atoms: C3_4  and  C4_5 
REMARK    4  A    between atoms: C7_8  and  N2_9 
ROOT
HETATM    1  C4  UNL     1      22.542   3.738  48.119  1.00  0.00     0.005 C 
HETATM    2  C5  UNL     1      23.308   4.254  49.095  1.00  0.00     0.001 C 
HETATM    3  C6  UNL     1      24.378   4.142  50.139  1.00  0.00     0.071 C 
HETATM    4  C7  UNL     1      24.054   3.966  51.473  1.00  0.00     0.099 C 
HETATM    5  C9  UNL     1      23.011   4.991  51.865  1.00  0.00     0.145 C 
HETATM    6  N3  UNL     1      22.751   5.725  50.838  1.00  0.00    -0.281 NA
HETATM    7  C10 UNL     1      23.126   5.687  49.487  1.00  0.00     0.217 C 
HETATM    8  C11 UNL     1      24.228   6.574  48.999  1.00  0.00     0.191 C 
HETATM    9  O1  UNL     1      23.951   7.809  48.785  1.00  0.00    -0.290 OA
HETATM   10  C12 UNL     1      25.683   6.408  48.662  1.00  0.00     0.039 A 
HETATM   11  C13 UNL     1      26.366   7.322  47.931  1.00  0.00     0.019 A 
HETATM   12  C14 UNL     1      27.696   7.071  47.692  1.00  0.00     0.020 A 
HETATM   13  C15 UNL     1      28.351   5.945  48.160  1.00  0.00     0.013 A 
HETATM   14 BR1  UNL     1      30.206   5.669  47.783  1.00  0.00    -0.051 Br
HETATM   15  C16 UNL     1      27.739   4.968  48.908  1.00  0.00     0.049 A 
HETATM   16  C17 UNL     1      26.436   5.284  49.100  1.00  0.00     0.048 A 
HETATM   17  N4  UNL     1      25.841   4.213  49.920  1.00  0.00    -0.353 N 
HETATM   18  H15 UNL     1      26.337   3.449  50.415  1.00  0.00     0.166 HD
ENDROOT
BRANCH   1  19
HETATM   19  C3  UNL     1      22.392   2.446  47.472  1.00  0.00     0.147 C 
BRANCH  19  20
HETATM   20  N1  UNL     1      21.687   1.444  48.227  1.00  0.00    -0.396 N 
HETATM   21  H4  UNL     1      21.550   0.454  47.868  1.00  0.00     0.159 HD
BRANCH  20  22
HETATM   22  C2  UNL     1      20.995   1.150  49.410  1.00  0.00     0.073 C 
HETATM   23  C1  UNL     1      21.755   0.925  50.499  1.00  0.00     0.029 C 
ENDBRANCH  20  22
ENDBRANCH  19  20
ENDBRANCH   1  19
BRANCH   4  24
HETATM   24  N2  UNL     1      24.878   2.918  51.972  1.00  0.00    -0.268 NA
HETATM   25  C8  UNL     1      24.529   2.003  52.778  1.00  0.00     0.150 C 
ENDBRANCH   4  24
TORSDOF 4
ENDMDL
MODEL 4
REMARK VINA RESULT:      -6.3      1.197      1.351
REMARK  4 active torsions:
REMARK  status: ('A' for Active; 'I' for Inactive)
REMARK    1  A    between atoms: C2_2  and  N1_3 
REMARK    2  A    between atoms: N1_3  and  C3_4 
REMARK    3  A    between atoms: C3_4  and  C4_5 
REMARK    4  A    between atoms: C7_8  and  N2_9 
ROOT
HETATM    1  C4  UNL     1      22.286   3.783  48.024  1.00  0.00     0.005 C 
HETATM    2  C5  UNL     1      22.544   4.019  49.320  1.00  0.00     0.001 C 
HETATM    3  C6  UNL     1      22.312   3.784  50.783  1.00  0.00     0.071 C 
HETATM    4  C7  UNL     1      21.522   4.643  51.526  1.00  0.00     0.099 C 
HETATM    5  C9  UNL     1      21.966   6.067  51.263  1.00  0.00     0.145 C 
HETATM    6  N3  UNL     1      22.953   6.044  50.437  1.00  0.00    -0.281 NA
HETATM    7  C10 UNL     1      23.578   5.037  49.686  1.00  0.00     0.217 C 
HETATM    8  C11 UNL     1      24.853   4.428  50.179  1.00  0.00     0.191 C 
HETATM    9  O1  UNL     1      25.938   5.091  50.009  1.00  0.00    -0.290 OA
HETATM   10  C12 UNL     1      25.247   3.154  50.874  1.00  0.00     0.039 A 
HETATM   11  C13 UNL     1      26.530   2.719  50.914  1.00  0.00     0.019 A 
HETATM   12  C14 UNL     1      26.775   1.545  51.586  1.00  0.00     0.020 A 
HETATM   13  C15 UNL     1      25.784   0.806  52.209  1.00  0.00     0.013 A 
HETATM   14 BR1  UNL     1      26.209  -0.819  53.123  1.00  0.00    -0.051 Br
HETATM   15  C16 UNL     1      24.459   1.172  52.219  1.00  0.00     0.049 A 
HETATM   16  C17 UNL     1      24.297   2.332  51.540  1.00  0.00     0.048 A 
HETATM   17  N4  UNL     1      22.865   2.680  51.601  1.00  0.00    -0.353 N 
HETATM   18  H15 UNL     1      22.135   2.239  52.189  1.00  0.00     0.166 HD
ENDROOT
BRANCH   1  19
HETATM   19  C3  UNL     1      21.386   2.925  47.269  1.00  0.00     0.147 C 
BRANCH  19  20
HETATM   20  N1  UNL     1      20.397   2.221  48.042  1.00  0.00    -0.396 N 
HETATM   21  H4  UNL     1      19.363   2.249  47.800  1.00  0.00     0.159 HD
BRANCH  20  22
HETATM   22  C2  UNL     1      20.156   1.385  49.140  1.00  0.00     0.073 C 
HETATM   23  C1  UNL     1      21.155   0.544  49.473  1.00  0.00     0.029 C 
ENDBRANCH  20  22
ENDBRANCH  19  20
ENDBRANCH   1  19
BRANCH   4  24
HETATM   24  N2  UNL     1      20.632   3.841  52.294  1.00  0.00    -0.268 NA
HETATM   25  C8  UNL     1      19.485   3.435  51.939  1.00  0.00     0.150 C 
ENDBRANCH   4  24
TORSDOF 4
ENDMDL
MODEL 5
REMARK VINA RESULT:      -6.1      3.326      5.232
REMARK  4 active torsions:
REMARK  status: ('A' for Active; 'I' for Inactive)
REMARK    1  A    between atoms: C2_2  and  N1_3 
REMARK    2  A    between atoms: N1_3  and  C3_4 
REMARK    3  A    between atoms: C3_4  and  C4_5 
REMARK    4  A    between atoms: C7_8  and  N2_9 
ROOT
HETATM    1  C4  UNL     1      22.689   3.082  49.369  1.00  0.00     0.005 C 
HETATM    2  C5  UNL     1      23.759   3.350  50.135  1.00  0.00     0.001 C 
HETATM    3  C6  UNL     1      25.173   3.106  50.569  1.00  0.00     0.071 C 
HETATM    4  C7  UNL     1      25.452   2.357  51.700  1.00  0.00     0.099 C 
HETATM    5  C9  UNL     1      24.606   2.869  52.847  1.00  0.00     0.145 C 
HETATM    6  N3  UNL     1      23.893   3.854  52.425  1.00  0.00    -0.281 NA
HETATM    7  C10 UNL     1      23.669   4.432  51.165  1.00  0.00     0.217 C 
HETATM    8  C11 UNL     1      24.404   5.676  50.779  1.00  0.00     0.191 C 
HETATM    9  O1  UNL     1      23.986   6.791  51.255  1.00  0.00    -0.290 OA
HETATM   10  C12 UNL     1      25.592   6.008  49.919  1.00  0.00     0.039 A 
HETATM   11  C13 UNL     1      25.845   7.269  49.491  1.00  0.00     0.019 A 
HETATM   12  C14 UNL     1      26.965   7.457  48.717  1.00  0.00     0.020 A 
HETATM   13  C15 UNL     1      27.826   6.432  48.366  1.00  0.00     0.013 A 
HETATM   14 BR1  UNL     1      29.365   6.779  47.284  1.00  0.00    -0.051 Br
HETATM   15  C16 UNL     1      27.648   5.126  48.755  1.00  0.00     0.049 A 
HETATM   16  C17 UNL     1      26.529   5.020  49.510  1.00  0.00     0.048 A 
HETATM   17  N4  UNL     1      26.402   3.606  49.910  1.00  0.00    -0.353 N 
HETATM   18  H15 UNL     1      27.107   2.855  49.800  1.00  0.00     0.166 HD
ENDROOT
BRANCH   1  19
HETATM   19  C3  UNL     1      22.364   2.144  48.308  1.00  0.00     0.147 C 
BRANCH  19  20
HETATM   20  N1  UNL     1      22.177   2.716  47.000  1.00  0.00    -0.396 N 
HETATM   21  H4  UNL     1      22.827   2.503  46.189  1.00  0.00     0.159 HD
BRANCH  20  22
HETATM   22  C2  UNL     1      21.395   3.560  46.200  1.00  0.00     0.073 C 
HETATM   23  C1  UNL     1      22.033   4.613  45.652  1.00  0.00     0.029 C 
ENDBRANCH  20  22
ENDBRANCH  19  20
ENDBRANCH   1  19
BRANCH   4  24
HETATM   24  N2  UNL     1      26.473   1.430  51.351  1.00  0.00    -0.268 NA
HETATM   25  C8  UNL     1      26.722   0.329  51.928  1.00  0.00     0.150 C 
ENDBRANCH   4  24
TORSDOF 4
ENDMDL
MODEL 6
REMARK VINA RESULT:      -6.0     10.044     12.582
REMARK  4 active torsions:
REMARK  status: ('A' for Active; 'I' for Inactive)
REMARK    1  A    between atoms: C2_2  and  N1_3 
REMARK    2  A    between atoms: N1_3  and  C3_4 
REMARK    3  A    between atoms: C3_4  and  C4_5 
REMARK    4  A    between atoms: C7_8  and  N2_9 
ROOT
HETATM    1  C4  UNL     1      35.127   5.912  48.608  1.00  0.00     0.005 C 
HETATM    2  C5  UNL     1      33.891   6.059  48.103  1.00  0.00     0.001 C 
HETATM    3  C6  UNL     1      32.750   6.899  47.614  1.00  0.00     0.071 C 
HETATM    4  C7  UNL     1      31.670   7.179  48.433  1.00  0.00     0.099 C 
HETATM    5  C9  UNL     1      31.175   5.887  49.050  1.00  0.00     0.145 C 
HETATM    6  N3  UNL     1      31.903   4.918  48.614  1.00  0.00    -0.281 NA
HETATM    7  C10 UNL     1      33.064   4.842  47.829  1.00  0.00     0.217 C 
HETATM    8  C11 UNL     1      32.954   4.521  46.372  1.00  0.00     0.191 C 
HETATM    9  O1  UNL     1      32.769   3.296  46.041  1.00  0.00    -0.290 OA
HETATM   10  C12 UNL     1      33.004   5.298  45.086  1.00  0.00     0.039 A 
HETATM   11  C13 UNL     1      33.196   4.699  43.886  1.00  0.00     0.019 A 
HETATM   12  C14 UNL     1      33.215   5.507  42.775  1.00  0.00     0.020 A 
HETATM   13  C15 UNL     1      33.048   6.881  42.832  1.00  0.00     0.013 A 
HETATM   14 BR1  UNL     1      33.088   7.935  41.237  1.00  0.00    -0.051 Br
HETATM   15  C16 UNL     1      32.848   7.571  44.004  1.00  0.00     0.049 A 
HETATM   16  C17 UNL     1      32.843   6.711  45.050  1.00  0.00     0.048 A 
HETATM   17  N4  UNL     1      32.607   7.504  46.270  1.00  0.00    -0.353 N 
HETATM   18  H15 UNL     1      32.322   8.499  46.328  1.00  0.00     0.166 HD
ENDROOT
BRANCH   1  19
HETATM   19  C3  UNL     1      36.208   6.794  49.016  1.00  0.00     0.147 C 
BRANCH  19  20
HETATM   20  N1  UNL     1      37.162   6.233  49.937  1.00  0.00    -0.396 N 
HETATM   21  H4  UNL     1      37.009   5.295  50.411  1.00  0.00     0.159 HD
BRANCH  20  22
HETATM   22  C2  UNL     1      38.393   6.401  50.583  1.00  0.00     0.073 C 
HETATM   23  C1  UNL     1      39.271   7.226  49.979  1.00  0.00     0.029 C 
ENDBRANCH  20  22
ENDBRANCH  19  20
ENDBRANCH   1  19
BRANCH   4  24
HETATM   24  N2  UNL     1      31.411   8.574  48.329  1.00  0.00    -0.268 NA
HETATM   25  C8  UNL     1      31.040   9.344  49.265  1.00  0.00     0.150 C 
ENDBRANCH   4  24
TORSDOF 4
ENDMDL
MODEL 7
REMARK VINA RESULT:      -6.0      8.379     10.243
REMARK  4 active torsions:
REMARK  status: ('A' for Active; 'I' for Inactive)
REMARK    1  A    between atoms: C2_2  and  N1_3 
REMARK    2  A    between atoms: N1_3  and  C3_4 
REMARK    3  A    between atoms: C3_4  and  C4_5 
REMARK    4  A    between atoms: C7_8  and  N2_9 
ROOT
HETATM    1  C4  UNL     1      32.712   8.181  45.538  1.00  0.00     0.005 C 
HETATM    2  C5  UNL     1      32.335   7.524  46.648  1.00  0.00     0.001 C 
HETATM    3  C6  UNL     1      31.341   6.740  47.451  1.00  0.00     0.071 C 
HETATM    4  C7  UNL     1      30.566   7.355  48.419  1.00  0.00     0.099 C 
HETATM    5  C9  UNL     1      31.464   8.183  49.314  1.00  0.00     0.145 C 
HETATM    6  N3  UNL     1      32.679   8.054  48.909  1.00  0.00    -0.281 NA
HETATM    7  C10 UNL     1      33.282   7.436  47.802  1.00  0.00     0.217 C 
HETATM    8  C11 UNL     1      33.901   6.082  47.955  1.00  0.00     0.191 C 
HETATM    9  O1  UNL     1      35.059   6.012  48.501  1.00  0.00    -0.290 OA
HETATM   10  C12 UNL     1      33.510   4.670  47.619  1.00  0.00     0.039 A 
HETATM   11  C13 UNL     1      34.412   3.659  47.580  1.00  0.00     0.019 A 
HETATM   12  C14 UNL     1      33.941   2.407  47.270  1.00  0.00     0.020 A 
HETATM   13  C15 UNL     1      32.609   2.142  47.002  1.00  0.00     0.013 A 
HETATM   14 BR1  UNL     1      32.034   0.368  46.578  1.00  0.00    -0.051 Br
HETATM   15  C16 UNL     1      31.627   3.104  47.018  1.00  0.00     0.049 A 
HETATM   16  C17 UNL     1      32.166   4.306  47.330  1.00  0.00     0.048 A 
HETATM   17  N4  UNL     1      31.067   5.289  47.349  1.00  0.00    -0.353 N 
HETATM   18  H15 UNL     1      30.049   5.095  47.312  1.00  0.00     0.166 HD
ENDROOT
BRANCH   1  19
HETATM   19  C3  UNL     1      32.116   8.500  44.251  1.00  0.00     0.147 C 
BRANCH  19  20
HETATM   20  N1  UNL     1      32.016   7.408  43.318  1.00  0.00    -0.396 N 
HETATM   21  H4  UNL     1      31.085   7.076  42.931  1.00  0.00     0.159 HD
BRANCH  20  22
HETATM   22  C2  UNL     1      32.711   6.441  42.580  1.00  0.00     0.073 C 
HETATM   23  C1  UNL     1      33.084   5.336  43.256  1.00  0.00     0.029 C 
ENDBRANCH  20  22
ENDBRANCH  19  20
ENDBRANCH   1  19
BRANCH   4  24
HETATM   24  N2  UNL     1      29.225   6.918  48.226  1.00  0.00    -0.268 NA
HETATM   25  C8  UNL     1      28.173   7.531  48.581  1.00  0.00     0.150 C 
ENDBRANCH   4  24
TORSDOF 4
ENDMDL
MODEL 8
REMARK VINA RESULT:      -5.9      5.513      8.062
REMARK  4 active torsions:
REMARK  status: ('A' for Active; 'I' for Inactive)
REMARK    1  A    between atoms: C2_2  and  N1_3 
REMARK    2  A    between atoms: N1_3  and  C3_4 
REMARK    3  A    between atoms: C3_4  and  C4_5 
REMARK    4  A    between atoms: C7_8  and  N2_9 
ROOT
HETATM    1  C4  UNL     1      15.417   2.894  52.197  1.00  0.00     0.005 C 
HETATM    2  C5  UNL     1      16.225   2.139  51.435  1.00  0.00     0.001 C 
HETATM    3  C6  UNL     1      17.522   1.883  50.728  1.00  0.00     0.071 C 
HETATM    4  C7  UNL     1      17.651   2.116  49.369  1.00  0.00     0.099 C 
HETATM    5  C9  UNL     1      16.493   1.458  48.647  1.00  0.00     0.145 C 
HETATM    6  N3  UNL     1      15.748   0.870  49.517  1.00  0.00    -0.281 NA
HETATM    7  C10 UNL     1      15.728   0.825  50.920  1.00  0.00     0.217 C 
HETATM    8  C11 UNL     1      16.324  -0.349  51.632  1.00  0.00     0.191 C 
HETATM    9  O1  UNL     1      15.634  -1.429  51.686  1.00  0.00    -0.290 OA
HETATM   10  C12 UNL     1      17.608  -0.637  52.359  1.00  0.00     0.039 A 
HETATM   11  C13 UNL     1      17.747  -1.698  53.190  1.00  0.00     0.019 A 
HETATM   12  C14 UNL     1      18.969  -1.868  53.794  1.00  0.00     0.020 A 
HETATM   13  C15 UNL     1      20.041  -1.016  53.592  1.00  0.00     0.013 A 
HETATM   14 BR1  UNL     1      21.711  -1.324  54.472  1.00  0.00    -0.051 Br
HETATM   15  C16 UNL     1      19.990   0.083  52.768  1.00  0.00     0.049 A 
HETATM   16  C17 UNL     1      18.760   0.184  52.211  1.00  0.00     0.048 A 
HETATM   17  N4  UNL     1      18.773   1.366  51.329  1.00  0.00    -0.353 N 
HETATM   18  H15 UNL     1      19.596   1.923  51.036  1.00  0.00     0.166 HD
ENDROOT
BRANCH   1  19
HETATM   19  C3  UNL     1      15.498   4.185  52.858  1.00  0.00     0.147 C 
BRANCH  19  20
HETATM   20  N1  UNL     1      14.557   4.404  53.925  1.00  0.00    -0.396 N 
HETATM   21  H4  UNL     1      14.864   4.666  54.908  1.00  0.00     0.159 HD
BRANCH  20  22
HETATM   22  C2  UNL     1      13.207   4.429  54.300  1.00  0.00     0.073 C 
HETATM   23  C1  UNL     1      12.322   4.637  53.305  1.00  0.00     0.029 C 
ENDBRANCH  20  22
ENDBRANCH  19  20
ENDBRANCH   1  19
BRANCH   4  24
HETATM   24  N2  UNL     1      18.860   2.841  49.178  1.00  0.00    -0.268 NA
HETATM   25  C8  UNL     1      19.494   2.977  48.088  1.00  0.00     0.150 C 
ENDBRANCH   4  24
TORSDOF 4
ENDMDL
MODEL 9
REMARK VINA RESULT:      -5.6      6.252      9.026
REMARK  4 active torsions:
REMARK  status: ('A' for Active; 'I' for Inactive)
REMARK    1  A    between atoms: C2_2  and  N1_3 
REMARK    2  A    between atoms: N1_3  and  C3_4 
REMARK    3  A    between atoms: C3_4  and  C4_5 
REMARK    4  A    between atoms: C7_8  and  N2_9 
ROOT
HETATM    1  C4  UNL     1      14.714   0.963  52.969  1.00  0.00     0.005 C 
HETATM    2  C5  UNL     1      15.394   0.145  52.149  1.00  0.00     0.001 C 
HETATM    3  C6  UNL     1      16.013  -0.190  50.825  1.00  0.00     0.071 C 
HETATM    4  C7  UNL     1      15.357  -1.003  49.917  1.00  0.00     0.099 C 
HETATM    5  C9  UNL     1      14.880  -2.250  50.632  1.00  0.00     0.145 C 
HETATM    6  N3  UNL     1      15.242  -2.181  51.866  1.00  0.00    -0.281 NA
HETATM    7  C10 UNL     1      15.844  -1.189  52.655  1.00  0.00     0.217 C 
HETATM    8  C11 UNL     1      17.314  -1.250  52.929  1.00  0.00     0.191 C 
HETATM    9  O1  UNL     1      17.723  -2.072  53.825  1.00  0.00    -0.290 OA
HETATM   10  C12 UNL     1      18.542  -0.560  52.403  1.00  0.00     0.039 A 
HETATM   11  C13 UNL     1      19.724  -0.584  53.065  1.00  0.00     0.019 A 
HETATM   12  C14 UNL     1      20.783   0.074  52.486  1.00  0.00     0.020 A 
HETATM   13  C15 UNL     1      20.691   0.745  51.278  1.00  0.00     0.013 A 
HETATM   14 BR1  UNL     1      22.213   1.637  50.540  1.00  0.00    -0.051 Br
HETATM   15  C16 UNL     1      19.534   0.821  50.540  1.00  0.00     0.049 A 
HETATM   16  C17 UNL     1      18.540   0.153  51.172  1.00  0.00     0.048 A 
HETATM   17  N4  UNL     1      17.336   0.254  50.327  1.00  0.00    -0.353 N 
HETATM   18  H15 UNL     1      17.277   0.607  49.355  1.00  0.00     0.166 HD
ENDROOT
BRANCH   1  19
HETATM   19  C3  UNL     1      14.108   2.281  52.874  1.00  0.00     0.147 C 
BRANCH  19  20
HETATM   20  N1  UNL     1      13.199   2.631  53.934  1.00  0.00    -0.396 N 
HETATM   21  H4  UNL     1      13.495   3.225  54.763  1.00  0.00     0.159 HD
BRANCH  20  22
HETATM   22  C2  UNL     1      11.895   2.518  54.433  1.00  0.00     0.073 C 
HETATM   23  C1  UNL     1      11.750   1.773  55.547  1.00  0.00     0.029 C 
ENDBRANCH  20  22
ENDBRANCH  19  20
ENDBRANCH   1  19
BRANCH   4  24
HETATM   24  N2  UNL     1      15.437  -0.368  48.647  1.00  0.00    -0.268 NA
HETATM   25  C8  UNL     1      15.174  -0.892  47.523  1.00  0.00     0.150 C 
ENDBRANCH   4  24
TORSDOF 4
ENDMDL
