MODEL 1
REMARK VINA RESULT:      -8.3      0.000      0.000
REMARK  7 active torsions:
REMARK  status: ('A' for Active; 'I' for Inactive)
REMARK    1  A    between atoms: C2_2  and  C3_3 
REMARK    2  A    between atoms: C3_3  and  C4_4 
REMARK    3  A    between atoms: C4_4  and  C5_5 
REMARK    4  A    between atoms: C6_6  and  N1_7 
REMARK    5  A    between atoms: N1_7  and  C7_8 
REMARK    6  A    between atoms: C11_14  and  O1_15 
REMARK    7  A    between atoms: C12_16  and  O2_17 
ROOT
HETATM    1  C7  UNL     1      26.958   1.916  52.101  1.00  0.00     0.142 A 
HETATM    2  N2  UNL     1      28.118   2.458  52.455  1.00  0.00    -0.224 NA
HETATM    3  C8  UNL     1      28.727   2.218  53.624  1.00  0.00     0.236 A 
HETATM    4  N3  UNL     1      28.122   1.370  54.500  1.00  0.00    -0.241 NA
HETATM    5  C9  UNL     1      26.940   0.808  54.160  1.00  0.00     0.075 A 
HETATM    6  C10 UNL     1      26.379  -0.038  55.092  1.00  0.00     0.072 A 
HETATM    7  C11 UNL     1      25.164  -0.672  54.853  1.00  0.00     0.101 A 
HETATM    8  C12 UNL     1      24.536  -0.419  53.641  1.00  0.00     0.102 A 
HETATM    9  C14 UNL     1      25.139   0.434  52.743  1.00  0.00     0.057 A 
HETATM   10  C15 UNL     1      26.332   1.068  52.954  1.00  0.00     0.042 A 
ENDROOT
BRANCH   1  11
HETATM   11  N1  UNL     1      26.341   2.197  50.856  1.00  0.00    -0.340 N 
HETATM   12  H6  UNL     1      26.006   1.494  50.191  1.00  0.00     0.167 HD
BRANCH  11  13
HETATM   13  C6  UNL     1      26.012   3.391  50.168  1.00  0.00     0.042 A 
HETATM   14  C5  UNL     1      24.765   3.977  50.176  1.00  0.00    -0.005 A 
HETATM   15  C19 UNL     1      24.579   5.165  49.470  1.00  0.00     0.081 A 
HETATM   16  C18 UNL     1      25.576   5.780  48.767  1.00  0.00     0.138 A 
HETATM   17 CL1  UNL     1      23.002   5.959  49.445  1.00  0.00    -0.080 Cl
HETATM   18  C17 UNL     1      26.845   5.254  48.715  1.00  0.00     0.046 A 
HETATM   19  F1  UNL     1      25.400   6.943  48.072  1.00  0.00    -0.204 F 
HETATM   20  C16 UNL     1      26.994   4.067  49.432  1.00  0.00     0.033 A 
BRANCH  14  21
HETATM   21  C4  UNL     1      23.636   3.401  50.927  1.00  0.00     0.060 C 
BRANCH  21  22
HETATM   22  C3  UNL     1      23.046   2.231  50.239  1.00  0.00     0.071 C 
BRANCH  22  23
HETATM   23  C2  UNL     1      22.621   2.341  48.988  1.00  0.00    -0.176 C 
HETATM   24  C1  UNL     1      22.458   2.324  47.678  1.00  0.00     0.091 C 
ENDBRANCH  22  23
ENDBRANCH  21  22
ENDBRANCH  14  21
ENDBRANCH  11  13
ENDBRANCH   1  11
BRANCH   8  25
HETATM   25  O2  UNL     1      23.342  -1.092  53.499  1.00  0.00    -0.353 OA
HETATM   26  C13 UNL     1      22.258  -0.496  52.827  1.00  0.00     0.210 C 
ENDBRANCH   8  25
BRANCH   7  27
HETATM   27  O1  UNL     1      24.657  -1.514  55.842  1.00  0.00    -0.358 OA
HETATM   28  H9  UNL     1      24.148  -1.056  56.590  1.00  0.00     0.217 HD
ENDBRANCH   7  27
TORSDOF 7
ENDMDL
MODEL 2
REMARK VINA RESULT:      -8.0      3.734      5.901
REMARK  7 active torsions:
REMARK  status: ('A' for Active; 'I' for Inactive)
REMARK    1  A    between atoms: C2_2  and  C3_3 
REMARK    2  A    between atoms: C3_3  and  C4_4 
REMARK    3  A    between atoms: C4_4  and  C5_5 
REMARK    4  A    between atoms: C6_6  and  N1_7 
REMARK    5  A    between atoms: N1_7  and  C7_8 
REMARK    6  A    between atoms: C11_14  and  O1_15 
REMARK    7  A    between atoms: C12_16  and  O2_17 
ROOT
HETATM    1  C7  UNL     1      23.668  -0.665  53.486  1.00  0.00     0.142 A 
HETATM    2  N2  UNL     1      23.810  -1.170  54.706  1.00  0.00    -0.224 NA
HETATM    3  C8  UNL     1      22.784  -1.435  55.527  1.00  0.00     0.236 A 
HETATM    4  N3  UNL     1      21.524  -1.169  55.086  1.00  0.00    -0.241 NA
HETATM    5  C9  UNL     1      21.358  -0.654  53.846  1.00  0.00     0.075 A 
HETATM    6  C10 UNL     1      20.058  -0.405  53.461  1.00  0.00     0.072 A 
HETATM    7  C11 UNL     1      19.764   0.127  52.210  1.00  0.00     0.101 A 
HETATM    8  C12 UNL     1      20.830   0.400  51.363  1.00  0.00     0.102 A 
HETATM    9  C14 UNL     1      22.110   0.132  51.796  1.00  0.00     0.057 A 
HETATM   10  C15 UNL     1      22.424  -0.390  53.019  1.00  0.00     0.042 A 
ENDROOT
BRANCH   1  11
HETATM   11  N1  UNL     1      24.777  -0.394  52.646  1.00  0.00    -0.340 N 
HETATM   12  H6  UNL     1      24.739  -0.310  51.626  1.00  0.00     0.167 HD
BRANCH  11  13
HETATM   13  C6  UNL     1      26.158  -0.177  52.879  1.00  0.00     0.042 A 
HETATM   14  C5  UNL     1      26.727   1.059  53.097  1.00  0.00    -0.005 A 
HETATM   15  C19 UNL     1      28.099   1.131  53.333  1.00  0.00     0.081 A 
HETATM   16  C18 UNL     1      28.912   0.033  53.358  1.00  0.00     0.138 A 
HETATM   17 CL1  UNL     1      28.881   2.688  53.617  1.00  0.00    -0.080 Cl
HETATM   18  C17 UNL     1      28.414  -1.231  53.151  1.00  0.00     0.046 A 
HETATM   19  F1  UNL     1      30.257   0.098  53.587  1.00  0.00    -0.204 F 
HETATM   20  C16 UNL     1      27.040  -1.265  52.918  1.00  0.00     0.033 A 
BRANCH  14  21
HETATM   21  C4  UNL     1      25.926   2.295  53.114  1.00  0.00     0.060 C 
BRANCH  21  22
HETATM   22  C3  UNL     1      25.327   2.591  51.794  1.00  0.00     0.071 C 
BRANCH  22  23
HETATM   23  C2  UNL     1      26.103   2.931  50.774  1.00  0.00    -0.176 C 
HETATM   24  C1  UNL     1      26.635   3.417  49.667  1.00  0.00     0.091 C 
ENDBRANCH  22  23
ENDBRANCH  21  22
ENDBRANCH  14  21
ENDBRANCH  11  13
ENDBRANCH   1  11
BRANCH   8  25
HETATM   25  O2  UNL     1      20.437   0.922  50.150  1.00  0.00    -0.353 OA
HETATM   26  C13 UNL     1      21.377   1.140  49.125  1.00  0.00     0.210 C 
ENDBRANCH   8  25
BRANCH   7  27
HETATM   27  O1  UNL     1      18.426   0.352  51.890  1.00  0.00    -0.358 OA
HETATM   28  H9  UNL     1      18.252   1.103  51.231  1.00  0.00     0.217 HD
ENDBRANCH   7  27
TORSDOF 7
ENDMDL
MODEL 3
REMARK VINA RESULT:      -7.8      1.790      2.977
REMARK  7 active torsions:
REMARK  status: ('A' for Active; 'I' for Inactive)
REMARK    1  A    between atoms: C2_2  and  C3_3 
REMARK    2  A    between atoms: C3_3  and  C4_4 
REMARK    3  A    between atoms: C4_4  and  C5_5 
REMARK    4  A    between atoms: C6_6  and  N1_7 
REMARK    5  A    between atoms: N1_7  and  C7_8 
REMARK    6  A    between atoms: C11_14  and  O1_15 
REMARK    7  A    between atoms: C12_16  and  O2_17 
ROOT
HETATM    1  C7  UNL     1      25.635   1.290  52.443  1.00  0.00     0.142 A 
HETATM    2  N2  UNL     1      26.948   1.377  52.625  1.00  0.00    -0.224 NA
HETATM    3  C8  UNL     1      27.614   0.713  53.580  1.00  0.00     0.236 A 
HETATM    4  N3  UNL     1      26.903  -0.097  54.412  1.00  0.00    -0.241 NA
HETATM    5  C9  UNL     1      25.564  -0.199  54.244  1.00  0.00     0.075 A 
HETATM    6  C10 UNL     1      24.904  -1.033  55.120  1.00  0.00     0.072 A 
HETATM    7  C11 UNL     1      23.527  -1.215  55.045  1.00  0.00     0.101 A 
HETATM    8  C12 UNL     1      22.842  -0.523  54.054  1.00  0.00     0.102 A 
HETATM    9  C14 UNL     1      23.549   0.297  53.203  1.00  0.00     0.057 A 
HETATM   10  C15 UNL     1      24.901   0.491  53.256  1.00  0.00     0.042 A 
ENDROOT
BRANCH   1  11
HETATM   11  N1  UNL     1      24.965   2.012  51.423  1.00  0.00    -0.340 N 
HETATM   12  H6  UNL     1      24.705   1.635  50.506  1.00  0.00     0.167 HD
BRANCH  11  13
HETATM   13  C6  UNL     1      24.480   3.339  51.312  1.00  0.00     0.042 A 
HETATM   14  C5  UNL     1      24.731   4.173  50.245  1.00  0.00    -0.005 A 
HETATM   15  C19 UNL     1      24.177   5.453  50.253  1.00  0.00     0.081 A 
HETATM   16  C18 UNL     1      23.395   5.923  51.270  1.00  0.00     0.138 A 
HETATM   17 CL1  UNL     1      24.466   6.565  48.912  1.00  0.00    -0.080 Cl
HETATM   18  C17 UNL     1      23.102   5.146  52.365  1.00  0.00     0.046 A 
HETATM   19  F1  UNL     1      22.851   7.176  51.283  1.00  0.00    -0.204 F 
HETATM   20  C16 UNL     1      23.672   3.875  52.324  1.00  0.00     0.033 A 
BRANCH  14  21
HETATM   21  C4  UNL     1      25.541   3.745  49.092  1.00  0.00     0.060 C 
BRANCH  21  22
HETATM   22  C3  UNL     1      26.990   3.933  49.326  1.00  0.00     0.071 C 
BRANCH  22  23
HETATM   23  C2  UNL     1      27.642   4.907  48.706  1.00  0.00    -0.176 C 
HETATM   24  C1  UNL     1      28.077   6.047  48.202  1.00  0.00     0.091 C 
ENDBRANCH  22  23
ENDBRANCH  21  22
ENDBRANCH  14  21
ENDBRANCH  11  13
ENDBRANCH   1  11
BRANCH   8  25
HETATM   25  O2  UNL     1      21.486  -0.770  54.062  1.00  0.00    -0.353 OA
HETATM   26  C13 UNL     1      20.568   0.276  54.276  1.00  0.00     0.210 C 
ENDBRANCH   8  25
BRANCH   7  27
HETATM   27  O1  UNL     1      22.927  -2.073  55.966  1.00  0.00    -0.358 OA
HETATM   28  H9  UNL     1      22.426  -2.860  55.570  1.00  0.00     0.217 HD
ENDBRANCH   7  27
TORSDOF 7
ENDMDL
MODEL 4
REMARK VINA RESULT:      -7.8      2.403      4.152
REMARK  7 active torsions:
REMARK  status: ('A' for Active; 'I' for Inactive)
REMARK    1  A    between atoms: C2_2  and  C3_3 
REMARK    2  A    between atoms: C3_3  and  C4_4 
REMARK    3  A    between atoms: C4_4  and  C5_5 
REMARK    4  A    between atoms: C6_6  and  N1_7 
REMARK    5  A    between atoms: N1_7  and  C7_8 
REMARK    6  A    between atoms: C11_14  and  O1_15 
REMARK    7  A    between atoms: C12_16  and  O2_17 
ROOT
HETATM    1  C7  UNL     1      23.456   1.158  51.831  1.00  0.00     0.142 A 
HETATM    2  N2  UNL     1      22.312   0.558  52.140  1.00  0.00    -0.224 NA
HETATM    3  C8  UNL     1      22.198  -0.389  53.081  1.00  0.00     0.236 A 
HETATM    4  N3  UNL     1      23.319  -0.758  53.760  1.00  0.00    -0.241 NA
HETATM    5  C9  UNL     1      24.494  -0.159  53.460  1.00  0.00     0.075 A 
HETATM    6  C10 UNL     1      25.591  -0.579  54.181  1.00  0.00     0.072 A 
HETATM    7  C11 UNL     1      26.853  -0.037  53.959  1.00  0.00     0.101 A 
HETATM    8  C12 UNL     1      26.966   0.944  52.982  1.00  0.00     0.102 A 
HETATM    9  C14 UNL     1      25.839   1.329  52.290  1.00  0.00     0.057 A 
HETATM   10  C15 UNL     1      24.590   0.812  52.490  1.00  0.00     0.042 A 
ENDROOT
BRANCH   1  11
HETATM   11  N1  UNL     1      23.540   2.154  50.825  1.00  0.00    -0.340 N 
HETATM   12  H6  UNL     1      23.794   1.985  49.847  1.00  0.00     0.167 HD
BRANCH  11  13
HETATM   13  C6  UNL     1      23.336   3.556  50.809  1.00  0.00     0.042 A 
HETATM   14  C5  UNL     1      23.993   4.429  49.970  1.00  0.00    -0.005 A 
HETATM   15  C19 UNL     1      23.685   5.787  50.045  1.00  0.00     0.081 A 
HETATM   16  C18 UNL     1      22.760   6.297  50.911  1.00  0.00     0.138 A 
HETATM   17 CL1  UNL     1      24.496   6.951  48.995  1.00  0.00    -0.080 Cl
HETATM   18  C17 UNL     1      22.065   5.485  51.776  1.00  0.00     0.046 A 
HETATM   19  F1  UNL     1      22.454   7.627  50.989  1.00  0.00    -0.204 F 
HETATM   20  C16 UNL     1      22.399   4.136  51.674  1.00  0.00     0.033 A 
BRANCH  14  21
HETATM   21  C4  UNL     1      24.987   3.968  48.986  1.00  0.00     0.060 C 
BRANCH  21  22
HETATM   22  C3  UNL     1      26.338   3.838  49.575  1.00  0.00     0.071 C 
BRANCH  22  23
HETATM   23  C2  UNL     1      27.344   4.555  49.095  1.00  0.00    -0.176 C 
HETATM   24  C1  UNL     1      28.182   5.274  48.369  1.00  0.00     0.091 C 
ENDBRANCH  22  23
ENDBRANCH  21  22
ENDBRANCH  14  21
ENDBRANCH  11  13
ENDBRANCH   1  11
BRANCH   8  25
HETATM   25  O2  UNL     1      28.252   1.417  52.838  1.00  0.00    -0.353 OA
HETATM   26  C13 UNL     1      28.679   2.561  53.539  1.00  0.00     0.210 C 
ENDBRANCH   8  25
BRANCH   7  27
HETATM   27  O1  UNL     1      27.916  -0.511  54.726  1.00  0.00    -0.358 OA
HETATM   28  H9  UNL     1      28.655  -0.976  54.212  1.00  0.00     0.217 HD
ENDBRANCH   7  27
TORSDOF 7
ENDMDL
MODEL 5
REMARK VINA RESULT:      -7.6      4.024      6.217
REMARK  7 active torsions:
REMARK  status: ('A' for Active; 'I' for Inactive)
REMARK    1  A    between atoms: C2_2  and  C3_3 
REMARK    2  A    between atoms: C3_3  and  C4_4 
REMARK    3  A    between atoms: C4_4  and  C5_5 
REMARK    4  A    between atoms: C6_6  and  N1_7 
REMARK    5  A    between atoms: N1_7  and  C7_8 
REMARK    6  A    between atoms: C11_14  and  O1_15 
REMARK    7  A    between atoms: C12_16  and  O2_17 
ROOT
HETATM    1  C7  UNL     1      23.676   0.718  52.906  1.00  0.00     0.142 A 
HETATM    2  N2  UNL     1      24.163  -0.448  53.318  1.00  0.00    -0.224 NA
HETATM    3  C8  UNL     1      25.418  -0.855  53.086  1.00  0.00     0.236 A 
HETATM    4  N3  UNL     1      26.242  -0.028  52.387  1.00  0.00    -0.241 NA
HETATM    5  C9  UNL     1      25.766   1.164  51.958  1.00  0.00     0.075 A 
HETATM    6  C10 UNL     1      26.650   1.952  51.255  1.00  0.00     0.072 A 
HETATM    7  C11 UNL     1      26.273   3.197  50.761  1.00  0.00     0.101 A 
HETATM    8  C12 UNL     1      24.971   3.615  51.004  1.00  0.00     0.102 A 
HETATM    9  C14 UNL     1      24.127   2.789  51.713  1.00  0.00     0.057 A 
HETATM   10  C15 UNL     1      24.474   1.563  52.208  1.00  0.00     0.042 A 
ENDROOT
BRANCH   1  11
HETATM   11  N1  UNL     1      22.341   1.114  53.167  1.00  0.00    -0.340 N 
HETATM   12  H6  UNL     1      22.064   1.968  53.662  1.00  0.00     0.167 HD
BRANCH  11  13
HETATM   13  C6  UNL     1      21.073   0.548  52.884  1.00  0.00     0.042 A 
HETATM   14  C5  UNL     1      20.349   0.792  51.737  1.00  0.00    -0.005 A 
HETATM   15  C19 UNL     1      19.120   0.155  51.574  1.00  0.00     0.081 A 
HETATM   16  C18 UNL     1      18.594  -0.703  52.498  1.00  0.00     0.138 A 
HETATM   17 CL1  UNL     1      18.150   0.432  50.124  1.00  0.00    -0.080 Cl
HETATM   18  C17 UNL     1      19.260  -0.995  53.664  1.00  0.00     0.046 A 
HETATM   19  F1  UNL     1      17.390  -1.329  52.344  1.00  0.00    -0.204 F 
HETATM   20  C16 UNL     1      20.484  -0.340  53.794  1.00  0.00     0.033 A 
BRANCH  14  21
HETATM   21  C4  UNL     1      20.847   1.682  50.674  1.00  0.00     0.060 C 
BRANCH  21  22
HETATM   22  C3  UNL     1      21.578   0.941  49.622  1.00  0.00     0.071 C 
BRANCH  22  23
HETATM   23  C2  UNL     1      21.891   1.542  48.482  1.00  0.00    -0.176 C 
HETATM   24  C1  UNL     1      22.474   2.154  47.467  1.00  0.00     0.091 C 
ENDBRANCH  22  23
ENDBRANCH  21  22
ENDBRANCH  14  21
ENDBRANCH  11  13
ENDBRANCH   1  11
BRANCH   8  25
HETATM   25  O2  UNL     1      24.695   4.858  50.477  1.00  0.00    -0.353 OA
HETATM   26  C13 UNL     1      23.880   4.989  49.336  1.00  0.00     0.210 C 
ENDBRANCH   8  25
BRANCH   7  27
HETATM   27  O1  UNL     1      27.221   3.940  50.058  1.00  0.00    -0.358 OA
HETATM   28  H9  UNL     1      26.909   4.326  49.174  1.00  0.00     0.217 HD
ENDBRANCH   7  27
TORSDOF 7
ENDMDL
MODEL 6
REMARK VINA RESULT:      -7.5      2.416      4.548
REMARK  7 active torsions:
REMARK  status: ('A' for Active; 'I' for Inactive)
REMARK    1  A    between atoms: C2_2  and  C3_3 
REMARK    2  A    between atoms: C3_3  and  C4_4 
REMARK    3  A    between atoms: C4_4  and  C5_5 
REMARK    4  A    between atoms: C6_6  and  N1_7 
REMARK    5  A    between atoms: N1_7  and  C7_8 
REMARK    6  A    between atoms: C11_14  and  O1_15 
REMARK    7  A    between atoms: C12_16  and  O2_17 
ROOT
HETATM    1  C7  UNL     1      21.836   0.799  51.566  1.00  0.00     0.142 A 
HETATM    2  N2  UNL     1      20.532   0.999  51.408  1.00  0.00    -0.224 NA
HETATM    3  C8  UNL     1      19.607   0.613  52.297  1.00  0.00     0.236 A 
HETATM    4  N3  UNL     1      20.027  -0.020  53.427  1.00  0.00    -0.241 NA
HETATM    5  C9  UNL     1      21.350  -0.233  53.606  1.00  0.00     0.075 A 
HETATM    6  C10 UNL     1      21.709  -0.881  54.769  1.00  0.00     0.072 A 
HETATM    7  C11 UNL     1      23.040  -1.157  55.061  1.00  0.00     0.101 A 
HETATM    8  C12 UNL     1      23.996  -0.756  54.136  1.00  0.00     0.102 A 
HETATM    9  C14 UNL     1      23.585  -0.112  52.990  1.00  0.00     0.057 A 
HETATM   10  C15 UNL     1      22.285   0.171  52.681  1.00  0.00     0.042 A 
ENDROOT
BRANCH   1  11
HETATM   11  N1  UNL     1      22.787   1.218  50.601  1.00  0.00    -0.340 N 
HETATM   12  H6  UNL     1      23.493   0.615  50.167  1.00  0.00     0.167 HD
BRANCH  11  13
HETATM   13  C6  UNL     1      23.073   2.456  49.974  1.00  0.00     0.042 A 
HETATM   14  C5  UNL     1      24.032   3.345  50.407  1.00  0.00    -0.005 A 
HETATM   15  C19 UNL     1      24.226   4.523  49.687  1.00  0.00     0.081 A 
HETATM   16  C18 UNL     1      23.510   4.841  48.567  1.00  0.00     0.138 A 
HETATM   17 CL1  UNL     1      25.440   5.699  50.197  1.00  0.00    -0.080 Cl
HETATM   18  C17 UNL     1      22.539   4.001  48.076  1.00  0.00     0.046 A 
HETATM   19  F1  UNL     1      23.695   5.994  47.858  1.00  0.00    -0.204 F 
HETATM   20  C16 UNL     1      22.372   2.835  48.822  1.00  0.00     0.033 A 
BRANCH  14  21
HETATM   21  C4  UNL     1      24.870   3.076  51.588  1.00  0.00     0.060 C 
BRANCH  21  22
HETATM   22  C3  UNL     1      26.072   2.281  51.252  1.00  0.00     0.071 C 
BRANCH  22  23
HETATM   23  C2  UNL     1      27.131   2.309  52.048  1.00  0.00    -0.176 C 
HETATM   24  C1  UNL     1      27.990   2.257  53.050  1.00  0.00     0.091 C 
ENDBRANCH  22  23
ENDBRANCH  21  22
ENDBRANCH  14  21
ENDBRANCH  11  13
ENDBRANCH   1  11
BRANCH   8  25
HETATM   25  O2  UNL     1      25.282  -1.074  54.515  1.00  0.00    -0.353 OA
HETATM   26  C13 UNL     1      26.164  -0.075  54.969  1.00  0.00     0.210 C 
ENDBRANCH   8  25
BRANCH   7  27
HETATM   27  O1  UNL     1      23.328  -1.816  56.255  1.00  0.00    -0.358 OA
HETATM   28  H9  UNL     1      24.127  -1.464  56.770  1.00  0.00     0.217 HD
ENDBRANCH   7  27
TORSDOF 7
ENDMDL
MODEL 7
REMARK VINA RESULT:      -7.4      2.161      2.646
REMARK  7 active torsions:
REMARK  status: ('A' for Active; 'I' for Inactive)
REMARK    1  A    between atoms: C2_2  and  C3_3 
REMARK    2  A    between atoms: C3_3  and  C4_4 
REMARK    3  A    between atoms: C4_4  and  C5_5 
REMARK    4  A    between atoms: C6_6  and  N1_7 
REMARK    5  A    between atoms: N1_7  and  C7_8 
REMARK    6  A    between atoms: C11_14  and  O1_15 
REMARK    7  A    between atoms: C12_16  and  O2_17 
ROOT
HETATM    1  C7  UNL     1      25.308   1.280  52.046  1.00  0.00     0.142 A 
HETATM    2  N2  UNL     1      26.627   1.432  52.075  1.00  0.00    -0.224 NA
HETATM    3  C8  UNL     1      27.424   0.856  52.986  1.00  0.00     0.236 A 
HETATM    4  N3  UNL     1      26.848   0.069  53.936  1.00  0.00    -0.241 NA
HETATM    5  C9  UNL     1      25.505  -0.099  53.923  1.00  0.00     0.075 A 
HETATM    6  C10 UNL     1      24.985  -0.905  54.913  1.00  0.00     0.072 A 
HETATM    7  C11 UNL     1      23.619  -1.149  55.002  1.00  0.00     0.101 A 
HETATM    8  C12 UNL     1      22.798  -0.549  54.056  1.00  0.00     0.102 A 
HETATM    9  C14 UNL     1      23.368   0.247  53.087  1.00  0.00     0.057 A 
HETATM   10  C15 UNL     1      24.706   0.501  52.979  1.00  0.00     0.042 A 
ENDROOT
BRANCH   1  11
HETATM   11  N1  UNL     1      24.497   1.909  51.068  1.00  0.00    -0.340 N 
HETATM   12  H6  UNL     1      24.327   1.552  50.122  1.00  0.00     0.167 HD
BRANCH  11  13
HETATM   13  C6  UNL     1      23.732   3.101  51.043  1.00  0.00     0.042 A 
HETATM   14  C5  UNL     1      23.076   3.584  49.932  1.00  0.00    -0.005 A 
HETATM   15  C19 UNL     1      22.342   4.763  50.048  1.00  0.00     0.081 A 
HETATM   16  C18 UNL     1      22.238   5.468  51.214  1.00  0.00     0.138 A 
HETATM   17 CL1  UNL     1      21.483   5.428  48.656  1.00  0.00    -0.080 Cl
HETATM   18  C17 UNL     1      22.864   5.045  52.363  1.00  0.00     0.046 A 
HETATM   19  F1  UNL     1      21.521   6.624  51.334  1.00  0.00    -0.204 F 
HETATM   20  C16 UNL     1      23.589   3.865  52.210  1.00  0.00     0.033 A 
BRANCH  14  21
HETATM   21  C4  UNL     1      23.109   2.879  48.639  1.00  0.00     0.060 C 
BRANCH  21  22
HETATM   22  C3  UNL     1      21.901   2.052  48.422  1.00  0.00     0.071 C 
BRANCH  22  23
HETATM   23  C2  UNL     1      21.526   1.172  49.339  1.00  0.00    -0.176 C 
HETATM   24  C1  UNL     1      20.945   0.496  50.314  1.00  0.00     0.091 C 
ENDBRANCH  22  23
ENDBRANCH  21  22
ENDBRANCH  14  21
ENDBRANCH  11  13
ENDBRANCH   1  11
BRANCH   8  25
HETATM   25  O2  UNL     1      21.464  -0.851  54.228  1.00  0.00    -0.353 OA
HETATM   26  C13 UNL     1      20.472   0.118  53.987  1.00  0.00     0.210 C 
ENDBRANCH   8  25
BRANCH   7  27
HETATM   27  O1  UNL     1      23.164  -1.974  56.030  1.00  0.00    -0.358 OA
HETATM   28  H9  UNL     1      22.664  -2.805  55.737  1.00  0.00     0.217 HD
ENDBRANCH   7  27
TORSDOF 7
ENDMDL
MODEL 8
REMARK VINA RESULT:      -7.4      2.364      3.905
REMARK  7 active torsions:
REMARK  status: ('A' for Active; 'I' for Inactive)
REMARK    1  A    between atoms: C2_2  and  C3_3 
REMARK    2  A    between atoms: C3_3  and  C4_4 
REMARK    3  A    between atoms: C4_4  and  C5_5 
REMARK    4  A    between atoms: C6_6  and  N1_7 
REMARK    5  A    between atoms: N1_7  and  C7_8 
REMARK    6  A    between atoms: C11_14  and  O1_15 
REMARK    7  A    between atoms: C12_16  and  O2_17 
ROOT
HETATM    1  C7  UNL     1      23.971   1.414  51.708  1.00  0.00     0.142 A 
HETATM    2  N2  UNL     1      25.280   1.273  51.886  1.00  0.00    -0.224 NA
HETATM    3  C8  UNL     1      25.824   0.421  52.766  1.00  0.00     0.236 A 
HETATM    4  N3  UNL     1      24.989  -0.343  53.520  1.00  0.00    -0.241 NA
HETATM    5  C9  UNL     1      23.652  -0.215  53.354  1.00  0.00     0.075 A 
HETATM    6  C10 UNL     1      22.862  -1.015  54.150  1.00  0.00     0.072 A 
HETATM    7  C11 UNL     1      21.474  -0.968  54.070  1.00  0.00     0.101 A 
HETATM    8  C12 UNL     1      20.914  -0.083  53.158  1.00  0.00     0.102 A 
HETATM    9  C14 UNL     1      21.749   0.694  52.385  1.00  0.00     0.057 A 
HETATM   10  C15 UNL     1      23.113   0.666  52.445  1.00  0.00     0.042 A 
ENDROOT
BRANCH   1  11
HETATM   11  N1  UNL     1      23.431   2.330  50.770  1.00  0.00    -0.340 N 
HETATM   12  H6  UNL     1      23.249   2.125  49.782  1.00  0.00     0.167 HD
BRANCH  11  13
HETATM   13  C6  UNL     1      23.008   3.680  50.844  1.00  0.00     0.042 A 
HETATM   14  C5  UNL     1      23.853   4.766  50.785  1.00  0.00    -0.005 A 
HETATM   15  C19 UNL     1      23.304   6.045  50.851  1.00  0.00     0.081 A 
HETATM   16  C18 UNL     1      21.963   6.278  50.972  1.00  0.00     0.138 A 
HETATM   17 CL1  UNL     1      24.340   7.473  50.781  1.00  0.00    -0.080 Cl
HETATM   18  C17 UNL     1      21.060   5.243  51.035  1.00  0.00     0.046 A 
HETATM   19  F1  UNL     1      21.418   7.529  51.038  1.00  0.00    -0.204 F 
HETATM   20  C16 UNL     1      21.644   3.979  50.967  1.00  0.00     0.033 A 
BRANCH  14  21
HETATM   21  C4  UNL     1      25.310   4.614  50.629  1.00  0.00     0.060 C 
BRANCH  21  22
HETATM   22  C3  UNL     1      25.733   4.701  49.214  1.00  0.00     0.071 C 
BRANCH  22  23
HETATM   23  C2  UNL     1      26.974   5.055  48.913  1.00  0.00    -0.176 C 
HETATM   24  C1  UNL     1      28.181   5.207  48.396  1.00  0.00     0.091 C 
ENDBRANCH  22  23
ENDBRANCH  21  22
ENDBRANCH  14  21
ENDBRANCH  11  13
ENDBRANCH   1  11
BRANCH   8  25
HETATM   25  O2  UNL     1      19.536  -0.110  53.153  1.00  0.00    -0.353 OA
HETATM   26  C13 UNL     1      18.823  -0.135  51.940  1.00  0.00     0.210 C 
ENDBRANCH   8  25
BRANCH   7  27
HETATM   27  O1  UNL     1      20.739  -1.806  54.908  1.00  0.00    -0.358 OA
HETATM   28  H9  UNL     1      21.269  -2.527  55.383  1.00  0.00     0.217 HD
ENDBRANCH   7  27
TORSDOF 7
ENDMDL
MODEL 9
REMARK VINA RESULT:      -7.3      1.972      3.393
REMARK  7 active torsions:
REMARK  status: ('A' for Active; 'I' for Inactive)
REMARK    1  A    between atoms: C2_2  and  C3_3 
REMARK    2  A    between atoms: C3_3  and  C4_4 
REMARK    3  A    between atoms: C4_4  and  C5_5 
REMARK    4  A    between atoms: C6_6  and  N1_7 
REMARK    5  A    between atoms: N1_7  and  C7_8 
REMARK    6  A    between atoms: C11_14  and  O1_15 
REMARK    7  A    between atoms: C12_16  and  O2_17 
ROOT
HETATM    1  C7  UNL     1      24.557   1.934  51.897  1.00  0.00     0.142 A 
HETATM    2  N2  UNL     1      25.869   1.827  51.718  1.00  0.00    -0.224 NA
HETATM    3  C8  UNL     1      26.627   0.889  52.304  1.00  0.00     0.236 A 
HETATM    4  N3  UNL     1      26.017  -0.004  53.131  1.00  0.00    -0.241 NA
HETATM    5  C9  UNL     1      24.681   0.089  53.326  1.00  0.00     0.075 A 
HETATM    6  C10 UNL     1      24.126  -0.844  54.176  1.00  0.00     0.072 A 
HETATM    7  C11 UNL     1      22.764  -0.846  54.455  1.00  0.00     0.101 A 
HETATM    8  C12 UNL     1      21.983   0.128  53.845  1.00  0.00     0.102 A 
HETATM    9  C14 UNL     1      22.587   1.036  53.004  1.00  0.00     0.057 A 
HETATM   10  C15 UNL     1      23.922   1.058  52.714  1.00  0.00     0.042 A 
ENDROOT
BRANCH   1  11
HETATM   11  N1  UNL     1      23.789   2.942  51.262  1.00  0.00    -0.340 N 
HETATM   12  H6  UNL     1      23.478   3.814  51.703  1.00  0.00     0.167 HD
BRANCH  11  13
HETATM   13  C6  UNL     1      23.239   3.090  49.965  1.00  0.00     0.042 A 
HETATM   14  C5  UNL     1      23.210   4.274  49.260  1.00  0.00    -0.005 A 
HETATM   15  C19 UNL     1      22.655   4.278  47.982  1.00  0.00     0.081 A 
HETATM   16  C18 UNL     1      22.134   3.163  47.389  1.00  0.00     0.138 A 
HETATM   17 CL1  UNL     1      22.591   5.767  47.034  1.00  0.00    -0.080 Cl
HETATM   18  C17 UNL     1      22.129   1.947  48.032  1.00  0.00     0.046 A 
HETATM   19  F1  UNL     1      21.587   3.161  46.137  1.00  0.00    -0.204 F 
HETATM   20  C16 UNL     1      22.691   1.981  49.307  1.00  0.00     0.033 A 
BRANCH  14  21
HETATM   21  C4  UNL     1      23.771   5.522  49.807  1.00  0.00     0.060 C 
BRANCH  21  22
HETATM   22  C3  UNL     1      25.039   5.902  49.145  1.00  0.00     0.071 C 
BRANCH  22  23
HETATM   23  C2  UNL     1      26.097   5.109  49.230  1.00  0.00    -0.176 C 
HETATM   24  C1  UNL     1      26.971   4.119  49.191  1.00  0.00     0.091 C 
ENDBRANCH  22  23
ENDBRANCH  21  22
ENDBRANCH  14  21
ENDBRANCH  11  13
ENDBRANCH   1  11
BRANCH   8  25
HETATM   25  O2  UNL     1      20.650   0.043  54.184  1.00  0.00    -0.353 OA
HETATM   26  C13 UNL     1      19.673  -0.192  53.198  1.00  0.00     0.210 C 
ENDBRANCH   8  25
BRANCH   7  27
HETATM   27  O1  UNL     1      22.272  -1.818  55.324  1.00  0.00    -0.358 OA
HETATM   28  H9  UNL     1      22.747  -2.714  55.296  1.00  0.00     0.217 HD
ENDBRANCH   7  27
TORSDOF 7
ENDMDL
