MODEL 1
REMARK VINA RESULT:      -7.3      0.000      0.000
REMARK  7 active torsions:
REMARK  status: ('A' for Active; 'I' for Inactive)
REMARK    1  A    between atoms: C5_6  and  C6_7 
REMARK    2  A    between atoms: C12_14  and  C13_15 
REMARK    3  A    between atoms: C13_15  and  C14_17 
REMARK    4  A    between atoms: C15_18  and  C16_19 
REMARK    5  A    between atoms: C16_19  and  N3_20 
REMARK    6  A    between atoms: C19_23  and  N4_24 
REMARK    7  A    between atoms: C19_23  and  C20_25 
ROOT
HETATM    1  C1  UNL     1      21.520   6.172  49.070  1.00  0.00     0.041 C 
HETATM    2  C2  UNL     1      22.698   5.218  49.085  1.00  0.00     0.072 C 
HETATM    3  C3  UNL     1      22.566   4.330  47.885  1.00  0.00     0.041 C 
HETATM    4  N1  UNL     1      23.896   6.033  49.042  1.00  0.00    -0.377 N 
HETATM    5  C4  UNL     1      25.198   5.461  49.026  1.00  0.00     0.052 A 
HETATM    6  C5  UNL     1      26.165   6.285  48.489  1.00  0.00     0.005 A 
HETATM    7  C8  UNL     1      27.498   5.996  48.348  1.00  0.00     0.129 A 
HETATM    8  N2  UNL     1      27.854   4.756  48.797  1.00  0.00    -0.271 NA
HETATM    9  C9  UNL     1      26.967   3.897  49.331  1.00  0.00     0.130 A 
HETATM   10  C10 UNL     1      25.650   4.241  49.447  1.00  0.00     0.009 A 
HETATM   11  C11 UNL     1      24.820   3.181  50.056  1.00  0.00     0.029 C 
HETATM   12  C12 UNL     1      23.534   3.276  50.426  1.00  0.00     0.043 C 
HETATM   13  C19 UNL     1      22.601   4.401  50.347  1.00  0.00     0.305 C 
HETATM   14  H7  UNL     1      23.939   7.076  49.020  1.00  0.00     0.160 HD
ENDROOT
BRANCH  12  15
HETATM   15  C13 UNL     1      22.987   2.052  51.001  1.00  0.00     0.180 C 
HETATM   16  O1  UNL     1      22.304   1.240  50.325  1.00  0.00    -0.288 OA
BRANCH  15  17
HETATM   17  C14 UNL     1      23.156   1.630  52.383  1.00  0.00     0.053 C 
HETATM   18  C15 UNL     1      23.931   0.558  52.448  1.00  0.00     0.007 C 
BRANCH  18  19
HETATM   19  C16 UNL     1      24.321  -0.148  53.693  1.00  0.00     0.299 C 
BRANCH  19  20
HETATM   20  N3  UNL     1      25.726  -0.468  53.690  1.00  0.00     0.083 N 
HETATM   21  C17 UNL     1      26.409   0.239  54.745  1.00  0.00     0.309 C 
HETATM   22  C18 UNL     1      26.302  -0.172  52.402  1.00  0.00     0.309 C 
ENDBRANCH  19  20
ENDBRANCH  18  19
ENDBRANCH  15  17
ENDBRANCH  12  15
BRANCH  13  23
HETATM   23  N4  UNL     1      21.245   3.884  50.400  1.00  0.00     0.104 N 
HETATM   24  H24 UNL     1      21.141   3.078  49.768  1.00  0.00     0.314 HD
HETATM   25  H25 UNL     1      20.540   4.611  50.241  1.00  0.00     0.314 HD
ENDBRANCH  13  23
BRANCH  13  26
HETATM   26  C20 UNL     1      22.750   5.293  51.568  1.00  0.00     0.429 C 
HETATM   27  F1  UNL     1      23.965   5.111  52.161  1.00  0.00    -0.168 F 
HETATM   28  F2  UNL     1      21.738   4.898  52.448  1.00  0.00    -0.168 F 
HETATM   29  F3  UNL     1      22.516   6.609  51.297  1.00  0.00    -0.168 F 
ENDBRANCH  13  26
BRANCH   6  30
HETATM   30  C6  UNL     1      25.791   7.603  48.013  1.00  0.00    -0.011 C 
HETATM   31  C7  UNL     1      25.776   8.251  46.860  1.00  0.00     0.032 C 
ENDBRANCH   6  30
TORSDOF 7
ENDMDL
MODEL 2
REMARK VINA RESULT:      -7.1      2.559      5.054
REMARK  7 active torsions:
REMARK  status: ('A' for Active; 'I' for Inactive)
REMARK    1  A    between atoms: C5_6  and  C6_7 
REMARK    2  A    between atoms: C12_14  and  C13_15 
REMARK    3  A    between atoms: C13_15  and  C14_17 
REMARK    4  A    between atoms: C15_18  and  C16_19 
REMARK    5  A    between atoms: C16_19  and  N3_20 
REMARK    6  A    between atoms: C19_23  and  N4_24 
REMARK    7  A    between atoms: C19_23  and  C20_25 
ROOT
HETATM    1  C1  UNL     1      22.905   6.316  51.142  1.00  0.00     0.041 C 
HETATM    2  C2  UNL     1      23.020   4.837  51.454  1.00  0.00     0.072 C 
HETATM    3  C3  UNL     1      23.424   4.716  52.892  1.00  0.00     0.041 C 
HETATM    4  N1  UNL     1      21.720   4.253  51.193  1.00  0.00    -0.377 N 
HETATM    5  C4  UNL     1      21.459   2.869  51.398  1.00  0.00     0.052 A 
HETATM    6  C5  UNL     1      20.127   2.575  51.597  1.00  0.00     0.005 A 
HETATM    7  C8  UNL     1      19.590   1.332  51.819  1.00  0.00     0.129 A 
HETATM    8  N2  UNL     1      20.505   0.319  51.835  1.00  0.00    -0.271 NA
HETATM    9  C9  UNL     1      21.821   0.530  51.649  1.00  0.00     0.130 A 
HETATM   10  C10 UNL     1      22.299   1.790  51.432  1.00  0.00     0.009 A 
HETATM   11  C11 UNL     1      23.765   1.837  51.247  1.00  0.00     0.029 C 
HETATM   12  C12 UNL     1      24.498   2.899  50.880  1.00  0.00     0.043 C 
HETATM   13  C19 UNL     1      24.096   4.270  50.564  1.00  0.00     0.305 C 
HETATM   14  H7  UNL     1      20.872   4.751  50.843  1.00  0.00     0.160 HD
ENDROOT
BRANCH  12  15
HETATM   15  C13 UNL     1      25.928   2.630  50.782  1.00  0.00     0.180 C 
HETATM   16  O1  UNL     1      26.577   2.825  49.723  1.00  0.00    -0.288 OA
BRANCH  15  17
HETATM   17  C14 UNL     1      26.758   2.120  51.863  1.00  0.00     0.053 C 
HETATM   18  C15 UNL     1      26.721   0.797  51.891  1.00  0.00     0.007 C 
BRANCH  18  19
HETATM   19  C16 UNL     1      27.445  -0.065  52.857  1.00  0.00     0.299 C 
BRANCH  19  20
HETATM   20  N3  UNL     1      27.449   0.521  54.173  1.00  0.00     0.083 N 
HETATM   21  C17 UNL     1      28.693   0.242  54.849  1.00  0.00     0.309 C 
HETATM   22  C18 UNL     1      26.322   0.045  54.935  1.00  0.00     0.309 C 
ENDBRANCH  19  20
ENDBRANCH  18  19
ENDBRANCH  15  17
ENDBRANCH  12  15
BRANCH  13  23
HETATM   23  N4  UNL     1      25.252   5.138  50.712  1.00  0.00     0.104 N 
HETATM   24  H24 UNL     1      25.100   6.027  50.217  1.00  0.00     0.314 HD
HETATM   25  H25 UNL     1      26.128   4.676  50.446  1.00  0.00     0.314 HD
ENDBRANCH  13  23
BRANCH  13  26
HETATM   26  C20 UNL     1      23.687   4.375  49.105  1.00  0.00     0.429 C 
HETATM   27  F1  UNL     1      23.645   3.144  48.520  1.00  0.00    -0.168 F 
HETATM   28  F2  UNL     1      24.675   5.149  48.492  1.00  0.00    -0.168 F 
HETATM   29  F3  UNL     1      22.518   5.055  48.929  1.00  0.00    -0.168 F 
ENDBRANCH  13  26
BRANCH   6  30
HETATM   30  C6  UNL     1      19.151   3.648  51.580  1.00  0.00    -0.011 C 
HETATM   31  C7  UNL     1      17.887   3.805  51.224  1.00  0.00     0.032 C 
ENDBRANCH   6  30
TORSDOF 7
ENDMDL
MODEL 3
REMARK VINA RESULT:      -6.9      2.268      6.132
REMARK  7 active torsions:
REMARK  status: ('A' for Active; 'I' for Inactive)
REMARK    1  A    between atoms: C5_6  and  C6_7 
REMARK    2  A    between atoms: C12_14  and  C13_15 
REMARK    3  A    between atoms: C13_15  and  C14_17 
REMARK    4  A    between atoms: C15_18  and  C16_19 
REMARK    5  A    between atoms: C16_19  and  N3_20 
REMARK    6  A    between atoms: C19_23  and  N4_24 
REMARK    7  A    between atoms: C19_23  and  C20_25 
ROOT
HETATM    1  C1  UNL     1      21.190   3.915  51.981  1.00  0.00     0.041 C 
HETATM    2  C2  UNL     1      22.688   3.768  51.795  1.00  0.00     0.072 C 
HETATM    3  C3  UNL     1      23.350   4.676  52.787  1.00  0.00     0.041 C 
HETATM    4  N1  UNL     1      23.002   2.372  52.024  1.00  0.00    -0.377 N 
HETATM    5  C4  UNL     1      24.334   1.876  51.949  1.00  0.00     0.052 A 
HETATM    6  C5  UNL     1      24.538   0.712  52.660  1.00  0.00     0.005 A 
HETATM    7  C8  UNL     1      25.714   0.016  52.765  1.00  0.00     0.129 A 
HETATM    8  N2  UNL     1      26.758   0.570  52.081  1.00  0.00    -0.271 NA
HETATM    9  C9  UNL     1      26.635   1.704  51.367  1.00  0.00     0.130 A 
HETATM   10  C10 UNL     1      25.437   2.355  51.298  1.00  0.00     0.009 A 
HETATM   11  C11 UNL     1      25.482   3.579  50.471  1.00  0.00     0.029 C 
HETATM   12  C12 UNL     1      24.443   4.343  50.104  1.00  0.00     0.043 C 
HETATM   13  C19 UNL     1      23.014   4.209  50.391  1.00  0.00     0.305 C 
HETATM   14  H7  UNL     1      22.327   1.612  52.258  1.00  0.00     0.160 HD
ENDROOT
BRANCH  12  15
HETATM   15  C13 UNL     1      24.809   5.492  49.283  1.00  0.00     0.180 C 
HETATM   16  O1  UNL     1      24.280   5.712  48.163  1.00  0.00    -0.288 OA
BRANCH  15  17
HETATM   17  C14 UNL     1      25.798   6.496  49.644  1.00  0.00     0.053 C 
HETATM   18  C15 UNL     1      26.679   6.651  48.668  1.00  0.00     0.007 C 
BRANCH  18  19
HETATM   19  C16 UNL     1      27.828   7.588  48.686  1.00  0.00     0.299 C 
BRANCH  19  20
HETATM   20  N3  UNL     1      28.982   7.006  48.049  1.00  0.00     0.083 N 
HETATM   21  C17 UNL     1      29.004   5.577  48.247  1.00  0.00     0.309 C 
HETATM   22  C18 UNL     1      30.189   7.622  48.542  1.00  0.00     0.309 C 
ENDBRANCH  19  20
ENDBRANCH  18  19
ENDBRANCH  15  17
ENDBRANCH  12  15
BRANCH  13  23
HETATM   23  N4  UNL     1      22.381   5.504  50.209  1.00  0.00     0.104 N 
HETATM   24  H24 UNL     1      21.534   5.412  49.630  1.00  0.00     0.314 HD
HETATM   25  H25 UNL     1      23.031   6.214  49.857  1.00  0.00     0.314 HD
ENDBRANCH  13  23
BRANCH  13  26
HETATM   26  C20 UNL     1      22.359   3.285  49.380  1.00  0.00     0.429 C 
HETATM   27  F1  UNL     1      23.294   2.699  48.577  1.00  0.00    -0.168 F 
HETATM   28  F2  UNL     1      21.527   4.100  48.608  1.00  0.00    -0.168 F 
HETATM   29  F3  UNL     1      21.542   2.358  49.957  1.00  0.00    -0.168 F 
ENDBRANCH  13  26
BRANCH   6  30
HETATM   30  C6  UNL     1      23.431   0.119  53.387  1.00  0.00    -0.011 C 
HETATM   31  C7  UNL     1      22.649  -0.941  53.270  1.00  0.00     0.032 C 
ENDBRANCH   6  30
TORSDOF 7
ENDMDL
MODEL 4
REMARK VINA RESULT:      -6.8      2.563      6.484
REMARK  7 active torsions:
REMARK  status: ('A' for Active; 'I' for Inactive)
REMARK    1  A    between atoms: C5_6  and  C6_7 
REMARK    2  A    between atoms: C12_14  and  C13_15 
REMARK    3  A    between atoms: C13_15  and  C14_17 
REMARK    4  A    between atoms: C15_18  and  C16_19 
REMARK    5  A    between atoms: C16_19  and  N3_20 
REMARK    6  A    between atoms: C19_23  and  N4_24 
REMARK    7  A    between atoms: C19_23  and  C20_25 
ROOT
HETATM    1  C1  UNL     1      19.431   1.316  50.895  1.00  0.00     0.041 C 
HETATM    2  C2  UNL     1      20.749   1.876  51.395  1.00  0.00     0.072 C 
HETATM    3  C3  UNL     1      20.435   2.812  52.523  1.00  0.00     0.041 C 
HETATM    4  N1  UNL     1      21.549   0.745  51.820  1.00  0.00    -0.377 N 
HETATM    5  C4  UNL     1      22.853   0.905  52.366  1.00  0.00     0.052 A 
HETATM    6  C5  UNL     1      23.260  -0.147  53.160  1.00  0.00     0.005 A 
HETATM    7  C8  UNL     1      24.461  -0.261  53.811  1.00  0.00     0.129 A 
HETATM    8  N2  UNL     1      25.304   0.798  53.625  1.00  0.00    -0.271 NA
HETATM    9  C9  UNL     1      24.976   1.858  52.865  1.00  0.00     0.130 A 
HETATM   10  C10 UNL     1      23.763   1.917  52.239  1.00  0.00     0.009 A 
HETATM   11  C11 UNL     1      23.572   3.150  51.447  1.00  0.00     0.029 C 
HETATM   12  C12 UNL     1      22.555   3.426  50.617  1.00  0.00     0.043 C 
HETATM   13  C19 UNL     1      21.380   2.632  50.255  1.00  0.00     0.305 C 
HETATM   14  H7  UNL     1      21.277  -0.262  51.776  1.00  0.00     0.160 HD
ENDROOT
BRANCH  12  15
HETATM   15  C13 UNL     1      22.647   4.732  49.975  1.00  0.00     0.180 C 
HETATM   16  O1  UNL     1      21.998   5.728  50.384  1.00  0.00    -0.288 OA
BRANCH  15  17
HETATM   17  C14 UNL     1      23.475   5.038  48.818  1.00  0.00     0.053 C 
HETATM   18  C15 UNL     1      24.455   5.861  49.154  1.00  0.00     0.007 C 
BRANCH  18  19
HETATM   19  C16 UNL     1      25.492   6.387  48.233  1.00  0.00     0.299 C 
BRANCH  19  20
HETATM   20  N3  UNL     1      26.809   6.250  48.801  1.00  0.00     0.083 N 
HETATM   21  C17 UNL     1      27.758   7.066  48.084  1.00  0.00     0.309 C 
HETATM   22  C18 UNL     1      27.209   4.865  48.808  1.00  0.00     0.309 C 
ENDBRANCH  19  20
ENDBRANCH  18  19
ENDBRANCH  15  17
ENDBRANCH  12  15
BRANCH  13  23
HETATM   23  N4  UNL     1      20.358   3.526  49.738  1.00  0.00     0.104 N 
HETATM   24  H24 UNL     1      19.636   2.994  49.233  1.00  0.00     0.314 HD
HETATM   25  H25 UNL     1      20.750   4.294  49.184  1.00  0.00     0.314 HD
ENDBRANCH  13  23
BRANCH  13  26
HETATM   26  C20 UNL     1      21.715   1.688  49.113  1.00  0.00     0.429 C 
HETATM   27  F1  UNL     1      22.987   1.895  48.666  1.00  0.00    -0.168 F 
HETATM   28  F2  UNL     1      20.807   1.991  48.095  1.00  0.00    -0.168 F 
HETATM   29  F3  UNL     1      21.500   0.378  49.427  1.00  0.00    -0.168 F 
ENDBRANCH  13  26
BRANCH   6  30
HETATM   30  C6  UNL     1      22.368  -1.274  53.360  1.00  0.00    -0.011 C 
HETATM   31  C7  UNL     1      21.585  -1.734  54.320  1.00  0.00     0.032 C 
ENDBRANCH   6  30
TORSDOF 7
ENDMDL
MODEL 5
REMARK VINA RESULT:      -6.7      4.066      7.260
REMARK  7 active torsions:
REMARK  status: ('A' for Active; 'I' for Inactive)
REMARK    1  A    between atoms: C5_6  and  C6_7 
REMARK    2  A    between atoms: C12_14  and  C13_15 
REMARK    3  A    between atoms: C13_15  and  C14_17 
REMARK    4  A    between atoms: C15_18  and  C16_19 
REMARK    5  A    between atoms: C16_19  and  N3_20 
REMARK    6  A    between atoms: C19_23  and  N4_24 
REMARK    7  A    between atoms: C19_23  and  C20_25 
ROOT
HETATM    1  C1  UNL     1      23.080   2.548  49.463  1.00  0.00     0.041 C 
HETATM    2  C2  UNL     1      22.270   1.844  50.534  1.00  0.00     0.072 C 
HETATM    3  C3  UNL     1      21.578   0.687  49.881  1.00  0.00     0.041 C 
HETATM    4  N1  UNL     1      23.206   1.424  51.558  1.00  0.00    -0.377 N 
HETATM    5  C4  UNL     1      22.788   0.711  52.716  1.00  0.00     0.052 A 
HETATM    6  C5  UNL     1      23.789  -0.034  53.305  1.00  0.00     0.005 A 
HETATM    7  C8  UNL     1      23.672  -0.815  54.426  1.00  0.00     0.129 A 
HETATM    8  N2  UNL     1      22.423  -0.825  54.977  1.00  0.00    -0.271 NA
HETATM    9  C9  UNL     1      21.398  -0.125  54.458  1.00  0.00     0.130 A 
HETATM   10  C10 UNL     1      21.573   0.637  53.338  1.00  0.00     0.009 A 
HETATM   11  C11 UNL     1      20.345   1.338  52.908  1.00  0.00     0.029 C 
HETATM   12  C12 UNL     1      20.239   2.259  51.939  1.00  0.00     0.043 C 
HETATM   13  C19 UNL     1      21.254   2.829  51.052  1.00  0.00     0.305 C 
HETATM   14  H7  UNL     1      24.237   1.587  51.564  1.00  0.00     0.160 HD
ENDROOT
BRANCH  12  15
HETATM   15  C13 UNL     1      18.886   2.770  51.747  1.00  0.00     0.180 C 
HETATM   16  O1  UNL     1      18.611   3.993  51.843  1.00  0.00    -0.288 OA
BRANCH  15  17
HETATM   17  C14 UNL     1      17.722   1.955  51.431  1.00  0.00     0.053 C 
HETATM   18  C15 UNL     1      16.613   2.667  51.549  1.00  0.00     0.007 C 
BRANCH  18  19
HETATM   19  C16 UNL     1      15.238   2.166  51.306  1.00  0.00     0.299 C 
BRANCH  19  20
HETATM   20  N3  UNL     1      14.363   2.495  52.402  1.00  0.00     0.083 N 
HETATM   21  C17 UNL     1      12.994   2.569  51.955  1.00  0.00     0.309 C 
HETATM   22  C18 UNL     1      14.780   3.729  53.020  1.00  0.00     0.309 C 
ENDBRANCH  19  20
ENDBRANCH  18  19
ENDBRANCH  15  17
ENDBRANCH  12  15
BRANCH  13  23
HETATM   23  N4  UNL     1      20.591   3.388  49.887  1.00  0.00     0.104 N 
HETATM   24  H24 UNL     1      19.975   4.167  50.161  1.00  0.00     0.314 HD
HETATM   25  H25 UNL     1      20.111   2.676  49.328  1.00  0.00     0.314 HD
ENDBRANCH  13  23
BRANCH  13  26
HETATM   26  C20 UNL     1      21.947   3.998  51.731  1.00  0.00     0.429 C 
HETATM   27  F1  UNL     1      21.522   4.137  53.020  1.00  0.00    -0.168 F 
HETATM   28  F2  UNL     1      21.583   5.130  50.996  1.00  0.00    -0.168 F 
HETATM   29  F3  UNL     1      23.307   3.926  51.656  1.00  0.00    -0.168 F 
ENDBRANCH  13  26
BRANCH   6  30
HETATM   30  C6  UNL     1      25.118  -0.025  52.724  1.00  0.00    -0.011 C 
HETATM   31  C7  UNL     1      26.197  -0.789  52.757  1.00  0.00     0.032 C 
ENDBRANCH   6  30
TORSDOF 7
ENDMDL
MODEL 6
REMARK VINA RESULT:      -6.6      2.815      5.744
REMARK  7 active torsions:
REMARK  status: ('A' for Active; 'I' for Inactive)
REMARK    1  A    between atoms: C5_6  and  C6_7 
REMARK    2  A    between atoms: C12_14  and  C13_15 
REMARK    3  A    between atoms: C13_15  and  C14_17 
REMARK    4  A    between atoms: C15_18  and  C16_19 
REMARK    5  A    between atoms: C16_19  and  N3_20 
REMARK    6  A    between atoms: C19_23  and  N4_24 
REMARK    7  A    between atoms: C19_23  and  C20_25 
ROOT
HETATM    1  C1  UNL     1      25.350   5.228  50.122  1.00  0.00     0.041 C 
HETATM    2  C2  UNL     1      24.742   3.900  50.529  1.00  0.00     0.072 C 
HETATM    3  C3  UNL     1      24.764   3.012  49.322  1.00  0.00     0.041 C 
HETATM    4  N1  UNL     1      25.555   3.383  51.612  1.00  0.00    -0.377 N 
HETATM    5  C4  UNL     1      25.281   2.132  52.231  1.00  0.00     0.052 A 
HETATM    6  C5  UNL     1      26.374   1.562  52.849  1.00  0.00     0.005 A 
HETATM    7  C8  UNL     1      26.400   0.366  53.520  1.00  0.00     0.129 A 
HETATM    8  N2  UNL     1      25.202  -0.288  53.551  1.00  0.00    -0.271 NA
HETATM    9  C9  UNL     1      24.093   0.206  52.970  1.00  0.00     0.130 A 
HETATM   10  C10 UNL     1      24.126   1.403  52.315  1.00  0.00     0.009 A 
HETATM   11  C11 UNL     1      22.822   1.793  51.740  1.00  0.00     0.029 C 
HETATM   12  C12 UNL     1      22.509   2.966  51.169  1.00  0.00     0.043 C 
HETATM   13  C19 UNL     1      23.320   4.164  50.951  1.00  0.00     0.305 C 
HETATM   14  H7  UNL     1      26.389   3.843  52.039  1.00  0.00     0.160 HD
ENDROOT
BRANCH  12  15
HETATM   15  C13 UNL     1      21.133   3.049  50.693  1.00  0.00     0.180 C 
HETATM   16  O1  UNL     1      20.838   2.966  49.474  1.00  0.00    -0.288 OA
BRANCH  15  17
HETATM   17  C14 UNL     1      19.965   3.234  51.542  1.00  0.00     0.053 C 
HETATM   18  C15 UNL     1      18.879   2.773  50.943  1.00  0.00     0.007 C 
BRANCH  18  19
HETATM   19  C16 UNL     1      17.508   2.793  51.509  1.00  0.00     0.299 C 
BRANCH  19  20
HETATM   20  N3  UNL     1      16.886   4.079  51.316  1.00  0.00     0.083 N 
HETATM   21  C17 UNL     1      15.913   4.332  52.350  1.00  0.00     0.309 C 
HETATM   22  C18 UNL     1      16.290   4.153  50.005  1.00  0.00     0.309 C 
ENDBRANCH  19  20
ENDBRANCH  18  19
ENDBRANCH  15  17
ENDBRANCH  12  15
BRANCH  13  23
HETATM   23  N4  UNL     1      22.714   4.948  49.889  1.00  0.00     0.104 N 
HETATM   24  H24 UNL     1      23.320   4.956  49.057  1.00  0.00     0.314 HD
HETATM   25  H25 UNL     1      22.444   5.887  50.197  1.00  0.00     0.314 HD
ENDBRANCH  13  23
BRANCH  13  26
HETATM   26  C20 UNL     1      23.290   5.050  52.184  1.00  0.00     0.429 C 
HETATM   27  F1  UNL     1      23.532   4.325  53.313  1.00  0.00    -0.168 F 
HETATM   28  F2  UNL     1      21.996   5.577  52.238  1.00  0.00    -0.168 F 
HETATM   29  F3  UNL     1      24.126   6.124  52.088  1.00  0.00    -0.168 F 
ENDBRANCH  13  26
BRANCH   6  30
HETATM   30  C6  UNL     1      27.649   2.253  52.819  1.00  0.00    -0.011 C 
HETATM   31  C7  UNL     1      28.653   2.474  53.650  1.00  0.00     0.032 C 
ENDBRANCH   6  30
TORSDOF 7
ENDMDL
MODEL 7
REMARK VINA RESULT:      -6.6      3.205      4.744
REMARK  7 active torsions:
REMARK  status: ('A' for Active; 'I' for Inactive)
REMARK    1  A    between atoms: C5_6  and  C6_7 
REMARK    2  A    between atoms: C12_14  and  C13_15 
REMARK    3  A    between atoms: C13_15  and  C14_17 
REMARK    4  A    between atoms: C15_18  and  C16_19 
REMARK    5  A    between atoms: C16_19  and  N3_20 
REMARK    6  A    between atoms: C19_23  and  N4_24 
REMARK    7  A    between atoms: C19_23  and  C20_25 
ROOT
HETATM    1  C1  UNL     1      22.167   4.055  48.122  1.00  0.00     0.041 C 
HETATM    2  C2  UNL     1      22.507   3.193  49.322  1.00  0.00     0.072 C 
HETATM    3  C3  UNL     1      22.281   1.766  48.923  1.00  0.00     0.041 C 
HETATM    4  N1  UNL     1      23.892   3.463  49.652  1.00  0.00    -0.377 N 
HETATM    5  C4  UNL     1      24.554   2.807  50.726  1.00  0.00     0.052 A 
HETATM    6  C5  UNL     1      25.928   2.776  50.602  1.00  0.00     0.005 A 
HETATM    7  C8  UNL     1      26.814   2.212  51.483  1.00  0.00     0.129 A 
HETATM    8  N2  UNL     1      26.232   1.637  52.576  1.00  0.00    -0.271 NA
HETATM    9  C9  UNL     1      24.900   1.627  52.765  1.00  0.00     0.130 A 
HETATM   10  C10 UNL     1      24.064   2.205  51.852  1.00  0.00     0.009 A 
HETATM   11  C11 UNL     1      22.636   2.104  52.219  1.00  0.00     0.029 C 
HETATM   12  C12 UNL     1      21.601   2.693  51.602  1.00  0.00     0.043 C 
HETATM   13  C19 UNL     1      21.565   3.574  50.434  1.00  0.00     0.305 C 
HETATM   14  H7  UNL     1      24.529   4.133  49.166  1.00  0.00     0.160 HD
ENDROOT
BRANCH  12  15
HETATM   15  C13 UNL     1      20.304   2.401  52.202  1.00  0.00     0.180 C 
HETATM   16  O1  UNL     1      19.497   3.308  52.531  1.00  0.00    -0.288 OA
BRANCH  15  17
HETATM   17  C14 UNL     1      19.797   1.067  52.487  1.00  0.00     0.053 C 
HETATM   18  C15 UNL     1      18.787   0.774  51.684  1.00  0.00     0.007 C 
BRANCH  18  19
HETATM   19  C16 UNL     1      18.025  -0.498  51.687  1.00  0.00     0.299 C 
BRANCH  19  20
HETATM   20  N3  UNL     1      16.663  -0.289  51.266  1.00  0.00     0.083 N 
HETATM   21  C17 UNL     1      15.808  -1.334  51.774  1.00  0.00     0.309 C 
HETATM   22  C18 UNL     1      16.592  -0.206  49.828  1.00  0.00     0.309 C 
ENDBRANCH  19  20
ENDBRANCH  18  19
ENDBRANCH  15  17
ENDBRANCH  12  15
BRANCH  13  23
HETATM   23  N4  UNL     1      20.227   3.542  49.870  1.00  0.00     0.104 N 
HETATM   24  H24 UNL     1      20.106   4.301  49.185  1.00  0.00     0.314 HD
HETATM   25  H25 UNL     1      19.496   3.532  50.589  1.00  0.00     0.314 HD
ENDBRANCH  13  23
BRANCH  13  26
HETATM   26  C20 UNL     1      21.799   5.015  50.856  1.00  0.00     0.429 C 
HETATM   27  F1  UNL     1      22.128   5.090  52.177  1.00  0.00    -0.168 F 
HETATM   28  F2  UNL     1      20.585   5.672  50.640  1.00  0.00    -0.168 F 
HETATM   29  F3  UNL     1      22.714   5.656  50.074  1.00  0.00    -0.168 F 
ENDBRANCH  13  26
BRANCH   6  30
HETATM   30  C6  UNL     1      26.551   3.387  49.443  1.00  0.00    -0.011 C 
HETATM   31  C7  UNL     1      27.053   4.566  49.120  1.00  0.00     0.032 C 
ENDBRANCH   6  30
TORSDOF 7
ENDMDL
MODEL 8
REMARK VINA RESULT:      -6.6      1.875      2.310
REMARK  7 active torsions:
REMARK  status: ('A' for Active; 'I' for Inactive)
REMARK    1  A    between atoms: C5_6  and  C6_7 
REMARK    2  A    between atoms: C12_14  and  C13_15 
REMARK    3  A    between atoms: C13_15  and  C14_17 
REMARK    4  A    between atoms: C15_18  and  C16_19 
REMARK    5  A    between atoms: C16_19  and  N3_20 
REMARK    6  A    between atoms: C19_23  and  N4_24 
REMARK    7  A    between atoms: C19_23  and  C20_25 
ROOT
HETATM    1  C1  UNL     1      21.052   3.565  49.514  1.00  0.00     0.041 C 
HETATM    2  C2  UNL     1      22.553   3.777  49.478  1.00  0.00     0.072 C 
HETATM    3  C3  UNL     1      23.127   2.739  48.562  1.00  0.00     0.041 C 
HETATM    4  N1  UNL     1      22.773   5.125  48.994  1.00  0.00    -0.377 N 
HETATM    5  C4  UNL     1      24.079   5.660  48.816  1.00  0.00     0.052 A 
HETATM    6  C5  UNL     1      24.140   6.700  47.912  1.00  0.00     0.005 A 
HETATM    7  C8  UNL     1      25.262   7.399  47.547  1.00  0.00     0.129 A 
HETATM    8  N2  UNL     1      26.407   6.988  48.166  1.00  0.00    -0.271 NA
HETATM    9  C9  UNL     1      26.426   5.981  49.058  1.00  0.00     0.130 A 
HETATM   10  C10 UNL     1      25.276   5.320  49.384  1.00  0.00     0.009 A 
HETATM   11  C11 UNL     1      25.480   4.246  50.379  1.00  0.00     0.029 C 
HETATM   12  C12 UNL     1      24.530   3.525  50.994  1.00  0.00     0.043 C 
HETATM   13  C19 UNL     1      23.072   3.575  50.878  1.00  0.00     0.305 C 
HETATM   14  H7  UNL     1      22.040   5.821  48.735  1.00  0.00     0.160 HD
ENDROOT
BRANCH  12  15
HETATM   15  C13 UNL     1      25.047   2.532  51.929  1.00  0.00     0.180 C 
HETATM   16  O1  UNL     1      24.752   2.544  53.151  1.00  0.00    -0.288 OA
BRANCH  15  17
HETATM   17  C14 UNL     1      25.941   1.439  51.577  1.00  0.00     0.053 C 
HETATM   18  C15 UNL     1      26.269   0.743  52.655  1.00  0.00     0.007 C 
BRANCH  18  19
HETATM   19  C16 UNL     1      27.162  -0.441  52.677  1.00  0.00     0.299 C 
BRANCH  19  20
HETATM   20  N3  UNL     1      28.375  -0.162  53.402  1.00  0.00     0.083 N 
HETATM   21  C17 UNL     1      29.263  -1.299  53.362  1.00  0.00     0.309 C 
HETATM   22  C18 UNL     1      28.070   0.217  54.759  1.00  0.00     0.309 C 
ENDBRANCH  19  20
ENDBRANCH  18  19
ENDBRANCH  15  17
ENDBRANCH  12  15
BRANCH  13  23
HETATM   23  N4  UNL     1      22.526   2.311  51.342  1.00  0.00     0.104 N 
HETATM   24  H24 UNL     1      21.511   2.391  51.491  1.00  0.00     0.314 HD
HETATM   25  H25 UNL     1      23.024   1.944  52.159  1.00  0.00     0.314 HD
ENDBRANCH  13  23
BRANCH  13  26
HETATM   26  C20 UNL     1      22.508   4.634  51.810  1.00  0.00     0.429 C 
HETATM   27  F1  UNL     1      23.507   5.290  52.466  1.00  0.00    -0.168 F 
HETATM   28  F2  UNL     1      21.720   3.941  52.733  1.00  0.00    -0.168 F 
HETATM   29  F3  UNL     1      21.666   5.503  51.180  1.00  0.00    -0.168 F 
ENDBRANCH  13  26
BRANCH   6  30
HETATM   30  C6  UNL     1      22.926   7.140  47.253  1.00  0.00    -0.011 C 
HETATM   31  C7  UNL     1      22.458   7.199  46.017  1.00  0.00     0.032 C 
ENDBRANCH   6  30
TORSDOF 7
ENDMDL
MODEL 9
REMARK VINA RESULT:      -6.4      3.108      6.589
REMARK  7 active torsions:
REMARK  status: ('A' for Active; 'I' for Inactive)
REMARK    1  A    between atoms: C5_6  and  C6_7 
REMARK    2  A    between atoms: C12_14  and  C13_15 
REMARK    3  A    between atoms: C13_15  and  C14_17 
REMARK    4  A    between atoms: C15_18  and  C16_19 
REMARK    5  A    between atoms: C16_19  and  N3_20 
REMARK    6  A    between atoms: C19_23  and  N4_24 
REMARK    7  A    between atoms: C19_23  and  C20_25 
ROOT
HETATM    1  C1  UNL     1      20.579   1.705  51.670  1.00  0.00     0.041 C 
HETATM    2  C2  UNL     1      21.794   2.509  51.252  1.00  0.00     0.072 C 
HETATM    3  C3  UNL     1      21.809   3.756  52.082  1.00  0.00     0.041 C 
HETATM    4  N1  UNL     1      22.952   1.671  51.489  1.00  0.00    -0.377 N 
HETATM    5  C4  UNL     1      24.275   2.119  51.221  1.00  0.00     0.052 A 
HETATM    6  C5  UNL     1      25.247   1.455  51.941  1.00  0.00     0.005 A 
HETATM    7  C8  UNL     1      26.599   1.677  51.885  1.00  0.00     0.129 A 
HETATM    8  N2  UNL     1      26.971   2.664  51.018  1.00  0.00    -0.271 NA
HETATM    9  C9  UNL     1      26.080   3.356  50.284  1.00  0.00     0.130 A 
HETATM   10  C10 UNL     1      24.744   3.090  50.380  1.00  0.00     0.009 A 
HETATM   11  C11 UNL     1      23.913   3.941  49.504  1.00  0.00     0.029 C 
HETATM   12  C12 UNL     1      22.597   3.822  49.275  1.00  0.00     0.043 C 
HETATM   13  C19 UNL     1      21.624   2.859  49.796  1.00  0.00     0.305 C 
HETATM   14  H7  UNL     1      22.949   0.696  51.862  1.00  0.00     0.160 HD
ENDROOT
BRANCH  12  15
HETATM   15  C13 UNL     1      22.058   4.817  48.356  1.00  0.00     0.180 C 
HETATM   16  O1  UNL     1      21.339   5.772  48.747  1.00  0.00    -0.288 OA
BRANCH  15  17
HETATM   17  C14 UNL     1      22.277   4.831  46.918  1.00  0.00     0.053 C 
HETATM   18  C15 UNL     1      21.315   4.166  46.296  1.00  0.00     0.007 C 
BRANCH  18  19
HETATM   19  C16 UNL     1      21.211   3.972  44.830  1.00  0.00     0.299 C 
BRANCH  19  20
HETATM   20  N3  UNL     1      19.908   4.353  44.347  1.00  0.00     0.083 N 
HETATM   21  C17 UNL     1      19.895   5.743  43.961  1.00  0.00     0.309 C 
HETATM   22  C18 UNL     1      18.905   4.077  45.346  1.00  0.00     0.309 C 
ENDBRANCH  19  20
ENDBRANCH  18  19
ENDBRANCH  15  17
ENDBRANCH  12  15
BRANCH  13  23
HETATM   23  N4  UNL     1      20.293   3.426  49.661  1.00  0.00     0.104 N 
HETATM   24  H24 UNL     1      19.989   3.401  48.677  1.00  0.00     0.314 HD
HETATM   25  H25 UNL     1      20.218   4.359  50.079  1.00  0.00     0.314 HD
ENDBRANCH  13  23
BRANCH  13  26
HETATM   26  C20 UNL     1      21.623   1.601  48.945  1.00  0.00     0.429 C 
HETATM   27  F1  UNL     1      22.650   1.618  48.047  1.00  0.00    -0.168 F 
HETATM   28  F2  UNL     1      20.405   1.610  48.260  1.00  0.00    -0.168 F 
HETATM   29  F3  UNL     1      21.625   0.457  49.687  1.00  0.00    -0.168 F 
ENDBRANCH  13  26
BRANCH   6  30
HETATM   30  C6  UNL     1      24.856   0.405  52.862  1.00  0.00    -0.011 C 
HETATM   31  C7  UNL     1      25.444  -0.366  53.762  1.00  0.00     0.032 C 
ENDBRANCH   6  30
TORSDOF 7
ENDMDL
