MODEL 1
REMARK VINA RESULT:      -7.7      0.000      0.000
REMARK  2 active torsions:
REMARK  status: ('A' for Active; 'I' for Inactive)
REMARK    1  A    between atoms: O1_3  and  S2_4 
REMARK    2  A    between atoms: C2_5  and  N1_6 
ROOT
HETATM    1  C1  UNL     1      20.719   5.157  50.689  1.00  0.00     0.038 C 
HETATM    2  S1  UNL     1      21.900   5.033  51.190  1.00  0.00     0.073 SA
HETATM    3  O1  UNL     1      23.234   4.868  51.756  1.00  0.00    -0.237 OA
ENDROOT
BRANCH   3   4
HETATM    4  S2  UNL     1      24.528   4.468  50.689  1.00  0.00     0.005 SA
HETATM    5  C2  UNL     1      25.221   2.958  50.721  1.00  0.00     0.113 A 
HETATM    6  C11 UNL     1      26.355   3.238  49.877  1.00  0.00     0.040 A 
HETATM    7  C12 UNL     1      26.972   4.120  49.187  1.00  0.00     0.003 A 
HETATM    8  C13 UNL     1      26.534   5.517  49.032  1.00  0.00     0.009 A 
HETATM    9  C14 UNL     1      25.414   5.694  49.712  1.00  0.00     0.070 A 
BRANCH   5  10
HETATM   10  N1  UNL     1      24.809   1.942  51.583  1.00  0.00    -0.244 N 
HETATM   11  N2  UNL     1      23.459   1.661  51.414  1.00  0.00    -0.286 N 
HETATM   12  C3  UNL     1      22.619   0.766  52.098  1.00  0.00     0.225 A 
HETATM   13  H2  UNL     1      22.795   2.052  50.681  1.00  0.00     0.188 HD
HETATM   14  N3  UNL     1      23.250   0.119  53.027  1.00  0.00    -0.233 NA
HETATM   15  C4  UNL     1      24.636   0.370  53.245  1.00  0.00     0.128 A 
HETATM   16  S3  UNL     1      25.686  -0.398  54.542  1.00  0.00    -0.072 SA
HETATM   17  C7  UNL     1      25.511   1.247  52.597  1.00  0.00     0.100 A 
HETATM   18  C5  UNL     1      27.134   0.496  54.116  1.00  0.00    -0.007 A 
HETATM   19  C6  UNL     1      26.800   1.307  53.057  1.00  0.00    -0.013 A 
HETATM   20  C10 UNL     1      28.490   0.563  54.612  1.00  0.00     0.047 C 
HETATM   21  C8  UNL     1      28.063   2.034  52.819  1.00  0.00     0.042 C 
HETATM   22  C9  UNL     1      28.894   1.925  54.084  1.00  0.00     0.010 C 
ENDBRANCH   5  10
ENDBRANCH   3   4
TORSDOF 2
ENDMDL
MODEL 2
REMARK VINA RESULT:      -7.5      1.452      3.652
REMARK  2 active torsions:
REMARK  status: ('A' for Active; 'I' for Inactive)
REMARK    1  A    between atoms: O1_3  and  S2_4 
REMARK    2  A    between atoms: C2_5  and  N1_6 
ROOT
HETATM    1  C1  UNL     1      21.206   6.233  50.653  1.00  0.00     0.038 C 
HETATM    2  S1  UNL     1      22.311   5.771  51.129  1.00  0.00     0.073 SA
HETATM    3  O1  UNL     1      23.554   5.223  51.660  1.00  0.00    -0.237 OA
ENDROOT
BRANCH   3   4
HETATM    4  S2  UNL     1      24.816   4.841  50.549  1.00  0.00     0.005 SA
HETATM    5  C2  UNL     1      25.703   3.446  50.715  1.00  0.00     0.113 A 
HETATM    6  C11 UNL     1      26.732   3.745  49.751  1.00  0.00     0.040 A 
HETATM    7  C12 UNL     1      27.180   4.592  48.905  1.00  0.00     0.003 A 
HETATM    8  C13 UNL     1      26.552   5.890  48.609  1.00  0.00     0.009 A 
HETATM    9  C14 UNL     1      25.466   6.021  49.352  1.00  0.00     0.070 A 
BRANCH   5  10
HETATM   10  N1  UNL     1      25.488   2.516  51.731  1.00  0.00    -0.244 N 
HETATM   11  N2  UNL     1      26.602   2.411  52.555  1.00  0.00    -0.286 N 
HETATM   12  C3  UNL     1      26.851   1.571  53.654  1.00  0.00     0.225 A 
HETATM   13  H2  UNL     1      27.488   2.998  52.537  1.00  0.00     0.188 HD
HETATM   14  N3  UNL     1      25.851   0.783  53.901  1.00  0.00    -0.233 NA
HETATM   15  C4  UNL     1      24.684   0.847  53.085  1.00  0.00     0.128 A 
HETATM   16  S3  UNL     1      23.194  -0.218  53.239  1.00  0.00    -0.072 SA
HETATM   17  C7  UNL     1      24.390   1.660  51.986  1.00  0.00     0.100 A 
HETATM   18  C5  UNL     1      22.358   0.492  51.869  1.00  0.00    -0.007 A 
HETATM   19  C6  UNL     1      23.186   1.466  51.363  1.00  0.00    -0.013 A 
HETATM   20  C10 UNL     1      21.090   0.277  51.209  1.00  0.00     0.047 C 
HETATM   21  C8  UNL     1      22.410   1.954  50.204  1.00  0.00     0.042 C 
HETATM   22  C9  UNL     1      21.398   0.879  49.853  1.00  0.00     0.010 C 
ENDBRANCH   5  10
ENDBRANCH   3   4
TORSDOF 2
ENDMDL
MODEL 3
REMARK VINA RESULT:      -7.3      2.748      5.126
REMARK  2 active torsions:
REMARK  status: ('A' for Active; 'I' for Inactive)
REMARK    1  A    between atoms: O1_3  and  S2_4 
REMARK    2  A    between atoms: C2_5  and  N1_6 
ROOT
HETATM    1  C1  UNL     1      17.898   3.318  51.557  1.00  0.00     0.038 C 
HETATM    2  S1  UNL     1      18.912   2.535  51.409  1.00  0.00     0.073 SA
HETATM    3  O1  UNL     1      20.073   1.667  51.254  1.00  0.00    -0.237 OA
ENDROOT
BRANCH   3   4
HETATM    4  S2  UNL     1      20.584   0.739  52.615  1.00  0.00     0.005 SA
HETATM    5  C2  UNL     1      22.119   0.905  53.231  1.00  0.00     0.113 A 
HETATM    6  C11 UNL     1      22.102  -0.227  54.123  1.00  0.00     0.040 A 
HETATM    7  C12 UNL     1      21.426  -1.214  54.572  1.00  0.00     0.003 A 
HETATM    8  C13 UNL     1      20.052  -1.545  54.157  1.00  0.00     0.009 A 
HETATM    9  C14 UNL     1      19.650  -0.659  53.261  1.00  0.00     0.070 A 
BRANCH   5  10
HETATM   10  N1  UNL     1      23.065   1.784  52.707  1.00  0.00    -0.244 N 
HETATM   11  N2  UNL     1      22.468   2.966  52.285  1.00  0.00    -0.286 N 
HETATM   12  C3  UNL     1      23.019   4.093  51.652  1.00  0.00     0.225 A 
HETATM   13  H2  UNL     1      21.456   3.268  52.407  1.00  0.00     0.188 HD
HETATM   14  N3  UNL     1      24.292   3.965  51.449  1.00  0.00    -0.233 NA
HETATM   15  C4  UNL     1      24.955   2.772  51.860  1.00  0.00     0.128 A 
HETATM   16  S3  UNL     1      26.733   2.378  51.610  1.00  0.00    -0.072 SA
HETATM   17  C7  UNL     1      24.455   1.627  52.488  1.00  0.00     0.100 A 
HETATM   18  C5  UNL     1      26.639   0.783  52.335  1.00  0.00    -0.007 A 
HETATM   19  C6  UNL     1      25.333   0.603  52.726  1.00  0.00    -0.013 A 
HETATM   20  C10 UNL     1      27.567  -0.299  52.575  1.00  0.00     0.047 C 
HETATM   21  C8  UNL     1      25.363  -0.769  53.270  1.00  0.00     0.042 C 
HETATM   22  C9  UNL     1      26.595  -1.453  52.704  1.00  0.00     0.010 C 
ENDBRANCH   5  10
ENDBRANCH   3   4
TORSDOF 2
ENDMDL
MODEL 4
REMARK VINA RESULT:      -7.2      3.137      6.113
REMARK  2 active torsions:
REMARK  status: ('A' for Active; 'I' for Inactive)
REMARK    1  A    between atoms: O1_3  and  S2_4 
REMARK    2  A    between atoms: C2_5  and  N1_6 
ROOT
HETATM    1  C1  UNL     1      29.338  -1.211  53.424  1.00  0.00     0.038 C 
HETATM    2  S1  UNL     1      28.060  -1.044  53.451  1.00  0.00     0.073 SA
HETATM    3  O1  UNL     1      26.617  -0.838  53.501  1.00  0.00    -0.237 OA
ENDROOT
BRANCH   3   4
HETATM    4  S2  UNL     1      25.970   0.578  52.758  1.00  0.00     0.005 SA
HETATM    5  C2  UNL     1      24.351   0.934  52.871  1.00  0.00     0.113 A 
HETATM    6  C11 UNL     1      24.311   2.003  51.905  1.00  0.00     0.040 A 
HETATM    7  C12 UNL     1      24.979   2.707  51.074  1.00  0.00     0.003 A 
HETATM    8  C13 UNL     1      26.421   2.552  50.816  1.00  0.00     0.009 A 
HETATM    9  C14 UNL     1      26.892   1.582  51.581  1.00  0.00     0.070 A 
BRANCH   5  10
HETATM   10  N1  UNL     1      23.436   0.138  53.559  1.00  0.00    -0.244 N 
HETATM   11  N2  UNL     1      24.056  -0.558  54.590  1.00  0.00    -0.286 N 
HETATM   12  C3  UNL     1      23.542  -1.505  55.492  1.00  0.00     0.225 A 
HETATM   13  H2  UNL     1      25.059  -0.468  54.930  1.00  0.00     0.188 HD
HETATM   14  N3  UNL     1      22.282  -1.735  55.292  1.00  0.00    -0.233 NA
HETATM   15  C4  UNL     1      21.598  -1.050  54.247  1.00  0.00     0.128 A 
HETATM   16  S3  UNL     1      19.837  -1.279  53.772  1.00  0.00    -0.072 SA
HETATM   17  C7  UNL     1      22.061  -0.106  53.326  1.00  0.00     0.100 A 
HETATM   18  C5  UNL     1      19.889  -0.142  52.437  1.00  0.00    -0.007 A 
HETATM   19  C6  UNL     1      21.171   0.356  52.393  1.00  0.00    -0.013 A 
HETATM   20  C10 UNL     1      18.949   0.334  51.448  1.00  0.00     0.047 C 
HETATM   21  C8  UNL     1      21.110   1.252  51.220  1.00  0.00     0.042 C 
HETATM   22  C9  UNL     1      19.913   0.828  50.389  1.00  0.00     0.010 C 
ENDBRANCH   5  10
ENDBRANCH   3   4
TORSDOF 2
ENDMDL
MODEL 5
REMARK VINA RESULT:      -7.0      2.276      4.213
REMARK  2 active torsions:
REMARK  status: ('A' for Active; 'I' for Inactive)
REMARK    1  A    between atoms: O1_3  and  S2_4 
REMARK    2  A    between atoms: C2_5  and  N1_6 
ROOT
HETATM    1  C1  UNL     1      22.014   7.647  49.211  1.00  0.00     0.038 C 
HETATM    2  S1  UNL     1      22.850   6.937  49.888  1.00  0.00     0.073 SA
HETATM    3  O1  UNL     1      23.785   6.113  50.645  1.00  0.00    -0.237 OA
ENDROOT
BRANCH   3   4
HETATM    4  S2  UNL     1      25.152   5.463  49.818  1.00  0.00     0.005 SA
HETATM    5  C2  UNL     1      25.700   3.931  50.153  1.00  0.00     0.113 A 
HETATM    6  C11 UNL     1      26.944   3.998  49.427  1.00  0.00     0.040 A 
HETATM    7  C12 UNL     1      27.711   4.717  48.701  1.00  0.00     0.003 A 
HETATM    8  C13 UNL     1      27.418   6.101  48.292  1.00  0.00     0.009 A 
HETATM    9  C14 UNL     1      26.249   6.459  48.794  1.00  0.00     0.070 A 
BRANCH   5  10
HETATM   10  N1  UNL     1      25.105   3.091  51.094  1.00  0.00    -0.244 N 
HETATM   11  N2  UNL     1      25.900   2.970  52.228  1.00  0.00    -0.286 N 
HETATM   12  C3  UNL     1      25.727   2.195  53.387  1.00  0.00     0.225 A 
HETATM   13  H2  UNL     1      26.796   3.495  52.458  1.00  0.00     0.188 HD
HETATM   14  N3  UNL     1      24.637   1.495  53.347  1.00  0.00    -0.233 NA
HETATM   15  C4  UNL     1      23.786   1.579  52.207  1.00  0.00     0.128 A 
HETATM   16  S3  UNL     1      22.236   0.629  51.938  1.00  0.00    -0.072 SA
HETATM   17  C7  UNL     1      23.914   2.330  51.034  1.00  0.00     0.100 A 
HETATM   18  C5  UNL     1      21.923   1.295  50.345  1.00  0.00    -0.007 A 
HETATM   19  C6  UNL     1      22.947   2.173  50.077  1.00  0.00    -0.013 A 
HETATM   20  C10 UNL     1      20.906   1.118  49.334  1.00  0.00     0.047 C 
HETATM   21  C8  UNL     1      22.608   2.629  48.713  1.00  0.00     0.042 C 
HETATM   22  C9  UNL     1      21.664   1.601  48.114  1.00  0.00     0.010 C 
ENDBRANCH   5  10
ENDBRANCH   3   4
TORSDOF 2
ENDMDL
MODEL 6
REMARK VINA RESULT:      -7.0      2.225      4.186
REMARK  2 active torsions:
REMARK  status: ('A' for Active; 'I' for Inactive)
REMARK    1  A    between atoms: O1_3  and  S2_4 
REMARK    2  A    between atoms: C2_5  and  N1_6 
ROOT
HETATM    1  C1  UNL     1      21.650   7.311  50.735  1.00  0.00     0.038 C 
HETATM    2  S1  UNL     1      22.258   6.180  50.839  1.00  0.00     0.073 SA
HETATM    3  O1  UNL     1      22.931   4.894  50.977  1.00  0.00    -0.237 OA
ENDROOT
BRANCH   3   4
HETATM    4  S2  UNL     1      22.146   3.491  50.352  1.00  0.00     0.005 SA
HETATM    5  C2  UNL     1      22.751   1.973  50.649  1.00  0.00     0.113 A 
HETATM    6  C11 UNL     1      21.921   1.240  49.725  1.00  0.00     0.040 A 
HETATM    7  C12 UNL     1      20.994   1.308  48.849  1.00  0.00     0.003 A 
HETATM    8  C13 UNL     1      20.326   2.553  48.433  1.00  0.00     0.009 A 
HETATM    9  C14 UNL     1      20.841   3.564  49.112  1.00  0.00     0.070 A 
BRANCH   5  10
HETATM   10  N1  UNL     1      23.897   1.738  51.407  1.00  0.00    -0.244 N 
HETATM   11  N2  UNL     1      24.999   2.383  50.858  1.00  0.00    -0.286 N 
HETATM   12  C3  UNL     1      26.349   2.380  51.248  1.00  0.00     0.225 A 
HETATM   13  H2  UNL     1      25.020   3.060  50.038  1.00  0.00     0.188 HD
HETATM   14  N3  UNL     1      26.552   1.641  52.294  1.00  0.00    -0.233 NA
HETATM   15  C4  UNL     1      25.457   0.955  52.896  1.00  0.00     0.128 A 
HETATM   16  S3  UNL     1      25.551  -0.177  54.340  1.00  0.00    -0.072 SA
HETATM   17  C7  UNL     1      24.104   0.924  52.546  1.00  0.00     0.100 A 
HETATM   18  C5  UNL     1      23.841  -0.573  54.335  1.00  0.00    -0.007 A 
HETATM   19  C6  UNL     1      23.277   0.129  53.295  1.00  0.00    -0.013 A 
HETATM   20  C10 UNL     1      22.974  -1.421  55.121  1.00  0.00     0.047 C 
HETATM   21  C8  UNL     1      21.869  -0.312  53.357  1.00  0.00     0.042 C 
HETATM   22  C9  UNL     1      21.836  -1.613  54.139  1.00  0.00     0.010 C 
ENDBRANCH   5  10
ENDBRANCH   3   4
TORSDOF 2
ENDMDL
MODEL 7
REMARK VINA RESULT:      -6.8      2.280      4.856
REMARK  2 active torsions:
REMARK  status: ('A' for Active; 'I' for Inactive)
REMARK    1  A    between atoms: O1_3  and  S2_4 
REMARK    2  A    between atoms: C2_5  and  N1_6 
ROOT
HETATM    1  C1  UNL     1      26.174   5.556  48.883  1.00  0.00     0.038 C 
HETATM    2  S1  UNL     1      25.606   4.952  49.871  1.00  0.00     0.073 SA
HETATM    3  O1  UNL     1      24.953   4.254  50.971  1.00  0.00    -0.237 OA
ENDROOT
BRANCH   3   4
HETATM    4  S2  UNL     1      25.565   2.710  51.436  1.00  0.00     0.005 SA
HETATM    5  C2  UNL     1      24.568   1.382  51.499  1.00  0.00     0.113 A 
HETATM    6  C11 UNL     1      25.474   0.481  52.167  1.00  0.00     0.040 A 
HETATM    7  C12 UNL     1      26.634   0.331  52.681  1.00  0.00     0.003 A 
HETATM    8  C13 UNL     1      27.667   1.380  52.735  1.00  0.00     0.009 A 
HETATM    9  C14 UNL     1      27.195   2.477  52.168  1.00  0.00     0.070 A 
BRANCH   5  10
HETATM   10  N1  UNL     1      23.211   1.426  51.184  1.00  0.00    -0.244 N 
HETATM   11  N2  UNL     1      22.966   2.330  50.158  1.00  0.00    -0.286 N 
HETATM   12  C3  UNL     1      21.758   2.734  49.565  1.00  0.00     0.225 A 
HETATM   13  H2  UNL     1      23.674   2.870  49.578  1.00  0.00     0.188 HD
HETATM   14  N3  UNL     1      20.733   2.142  50.094  1.00  0.00    -0.233 NA
HETATM   15  C4  UNL     1      20.928   1.207  51.152  1.00  0.00     0.128 A 
HETATM   16  S3  UNL     1      19.606   0.312  52.063  1.00  0.00    -0.072 SA
HETATM   17  C7  UNL     1      22.102   0.774  51.775  1.00  0.00     0.100 A 
HETATM   18  C5  UNL     1      20.706  -0.517  53.151  1.00  0.00    -0.007 A 
HETATM   19  C6  UNL     1      21.976  -0.115  52.809  1.00  0.00    -0.013 A 
HETATM   20  C10 UNL     1      20.568  -1.447  54.249  1.00  0.00     0.047 C 
HETATM   21  C8  UNL     1      22.801  -0.829  53.806  1.00  0.00     0.042 C 
HETATM   22  C9  UNL     1      21.887  -1.214  54.956  1.00  0.00     0.010 C 
ENDBRANCH   5  10
ENDBRANCH   3   4
TORSDOF 2
ENDMDL
MODEL 8
REMARK VINA RESULT:      -6.8      2.113      4.031
REMARK  2 active torsions:
REMARK  status: ('A' for Active; 'I' for Inactive)
REMARK    1  A    between atoms: O1_3  and  S2_4 
REMARK    2  A    between atoms: C2_5  and  N1_6 
ROOT
HETATM    1  C1  UNL     1      23.817   6.269  51.422  1.00  0.00     0.038 C 
HETATM    2  S1  UNL     1      22.997   5.351  51.805  1.00  0.00     0.073 SA
HETATM    3  O1  UNL     1      22.052   4.322  52.224  1.00  0.00    -0.237 OA
ENDROOT
BRANCH   3   4
HETATM    4  S2  UNL     1      21.717   3.030  51.132  1.00  0.00     0.005 SA
HETATM    5  C2  UNL     1      22.951   2.182  50.413  1.00  0.00     0.113 A 
HETATM    6  C11 UNL     1      22.162   1.451  49.453  1.00  0.00     0.040 A 
HETATM    7  C12 UNL     1      20.992   1.234  48.987  1.00  0.00     0.003 A 
HETATM    8  C13 UNL     1      19.764   1.884  49.475  1.00  0.00     0.009 A 
HETATM    9  C14 UNL     1      20.077   2.709  50.459  1.00  0.00     0.070 A 
BRANCH   5  10
HETATM   10  N1  UNL     1      24.301   2.446  50.643  1.00  0.00    -0.244 N 
HETATM   11  N2  UNL     1      24.828   3.255  49.643  1.00  0.00    -0.286 N 
HETATM   12  C3  UNL     1      26.138   3.720  49.438  1.00  0.00     0.225 A 
HETATM   13  H2  UNL     1      24.311   3.727  48.842  1.00  0.00     0.188 HD
HETATM   14  N3  UNL     1      26.952   3.301  50.356  1.00  0.00    -0.233 NA
HETATM   15  C4  UNL     1      26.465   2.467  51.404  1.00  0.00     0.128 A 
HETATM   16  S3  UNL     1      27.466   1.730  52.757  1.00  0.00    -0.072 SA
HETATM   17  C7  UNL     1      25.178   1.978  51.649  1.00  0.00     0.100 A 
HETATM   18  C5  UNL     1      26.124   0.867  53.487  1.00  0.00    -0.007 A 
HETATM   19  C6  UNL     1      25.014   1.149  52.727  1.00  0.00    -0.013 A 
HETATM   20  C10 UNL     1      25.958  -0.015  54.620  1.00  0.00     0.047 C 
HETATM   21  C8  UNL     1      23.972   0.344  53.398  1.00  0.00     0.042 C 
HETATM   22  C9  UNL     1      24.681  -0.722  54.214  1.00  0.00     0.010 C 
ENDBRANCH   5  10
ENDBRANCH   3   4
TORSDOF 2
ENDMDL
MODEL 9
REMARK VINA RESULT:      -6.8      2.370      3.120
REMARK  2 active torsions:
REMARK  status: ('A' for Active; 'I' for Inactive)
REMARK    1  A    between atoms: O1_3  and  S2_4 
REMARK    2  A    between atoms: C2_5  and  N1_6 
ROOT
HETATM    1  C1  UNL     1      23.370   9.443  48.218  1.00  0.00     0.038 C 
HETATM    2  S1  UNL     1      23.783   8.507  49.002  1.00  0.00     0.073 SA
HETATM    3  O1  UNL     1      24.236   7.431  49.877  1.00  0.00    -0.237 OA
ENDROOT
BRANCH   3   4
HETATM    4  S2  UNL     1      25.444   6.353  49.284  1.00  0.00     0.005 SA
HETATM    5  C2  UNL     1      25.337   4.718  49.563  1.00  0.00     0.113 A 
HETATM    6  C11 UNL     1      26.658   4.350  49.118  1.00  0.00     0.040 A 
HETATM    7  C12 UNL     1      27.770   4.762  48.643  1.00  0.00     0.003 A 
HETATM    8  C13 UNL     1      28.076   6.168  48.330  1.00  0.00     0.009 A 
HETATM    9  C14 UNL     1      27.021   6.911  48.616  1.00  0.00     0.070 A 
BRANCH   5  10
HETATM   10  N1  UNL     1      24.290   4.127  50.269  1.00  0.00    -0.244 N 
HETATM   11  N2  UNL     1      23.115   4.854  50.122  1.00  0.00    -0.286 N 
HETATM   12  C3  UNL     1      21.845   4.665  50.692  1.00  0.00     0.225 A 
HETATM   13  H2  UNL     1      22.939   5.694  49.494  1.00  0.00     0.188 HD
HETATM   14  N3  UNL     1      21.812   3.632  51.474  1.00  0.00    -0.233 NA
HETATM   15  C4  UNL     1      22.989   2.851  51.663  1.00  0.00     0.128 A 
HETATM   16  S3  UNL     1      23.157   1.393  52.768  1.00  0.00    -0.072 SA
HETATM   17  C7  UNL     1      24.270   2.999  51.123  1.00  0.00     0.100 A 
HETATM   18  C5  UNL     1      24.858   1.134  52.422  1.00  0.00    -0.007 A 
HETATM   19  C6  UNL     1      25.230   2.107  51.525  1.00  0.00    -0.013 A 
HETATM   20  C10 UNL     1      25.870   0.198  52.857  1.00  0.00     0.047 C 
HETATM   21  C8  UNL     1      26.669   1.824  51.346  1.00  0.00     0.042 C 
HETATM   22  C9  UNL     1      27.117   0.995  52.536  1.00  0.00     0.010 C 
ENDBRANCH   5  10
ENDBRANCH   3   4
TORSDOF 2
ENDMDL
