MODEL 1
REMARK VINA RESULT:      -7.8      0.000      0.000
REMARK  7 active torsions:
REMARK  status: ('A' for Active; 'I' for Inactive)
REMARK    1  A    between atoms: C6_9  and  N3_10 
REMARK    2  A    between atoms: C7_11  and  C8_12 
REMARK    3  A    between atoms: C8_12  and  C9_13 
REMARK    4  A    between atoms: C12_18  and  N6_19 
REMARK    5  A    between atoms: N6_19  and  C13_20 
REMARK    6  A    between atoms: C13_20  and  C14_21 
REMARK    7  A    between atoms: C16_24  and  C17_25 
ROOT
HETATM    1  C9  UNL     1      23.034   4.750  51.537  1.00  0.00     0.070 A 
HETATM    2  N4  UNL     1      22.009   5.509  51.752  1.00  0.00    -0.244 NA
HETATM    3  C10 UNL     1      22.022   6.580  50.802  1.00  0.00     0.234 A 
HETATM    4  N5  UNL     1      23.038   6.501  50.000  1.00  0.00    -0.239 NA
HETATM    5  C11 UNL     1      23.774   5.326  50.398  1.00  0.00     0.098 A 
HETATM    6  C12 UNL     1      24.884   5.023  49.716  1.00  0.00     0.122 C 
ENDROOT
BRANCH   1   7
HETATM    7  C8  UNL     1      23.624   3.514  52.115  1.00  0.00     0.108 C 
BRANCH   7   8
HETATM    8  C7  UNL     1      22.861   2.340  51.619  1.00  0.00     0.265 C 
HETATM    9  N3  UNL     1      23.382   1.156  51.809  1.00  0.00    -0.377 NA
BRANCH   9  10
HETATM   10  C6  UNL     1      24.628   1.006  52.470  1.00  0.00     0.095 C 
HETATM   11  N2  UNL     1      25.947   1.520  52.428  1.00  0.00    -0.311 N 
HETATM   12  C5  UNL     1      27.250   2.078  52.318  1.00  0.00     0.246 C 
HETATM   13  H8  UNL     1      25.399   1.883  51.622  1.00  0.00     0.170 HD
HETATM   14  C4  UNL     1      28.378   1.824  53.232  1.00  0.00     0.072 C 
HETATM   15  O1  UNL     1      27.220   2.819  51.312  1.00  0.00    -0.268 OA
HETATM   16  C3  UNL     1      29.010   1.222  54.270  1.00  0.00    -0.002 C 
HETATM   17  C2  UNL     1      28.068   0.184  54.894  1.00  0.00     0.144 C 
HETATM   18  N1  UNL     1      26.981  -0.026  54.060  1.00  0.00    -0.410 N 
HETATM   19  C1  UNL     1      27.442  -0.781  52.872  1.00  0.00     0.143 C 
HETATM   20  C19 UNL     1      25.711  -0.449  54.379  1.00  0.00     0.147 C 
HETATM   21  C18 UNL     1      24.666   0.100  53.429  1.00  0.00     0.040 C 
ENDBRANCH   9  10
ENDBRANCH   7   8
ENDBRANCH   1   7
BRANCH   6  22
HETATM   22  N6  UNL     1      25.444   5.728  48.617  1.00  0.00    -0.364 N 
HETATM   23  H14 UNL     1      24.829   5.617  47.778  1.00  0.00     0.165 HD
BRANCH  22  24
HETATM   24  C13 UNL     1      26.639   6.435  48.719  1.00  0.00     0.031 C 
HETATM   25  C16 UNL     1      27.056   7.657  48.923  1.00  0.00     0.033 C 
BRANCH  24  26
HETATM   26  C14 UNL     1      27.767   5.562  48.552  1.00  0.00     0.041 C 
HETATM   27  C15 UNL     1      28.991   5.796  48.180  1.00  0.00     0.220 C 
HETATM   28 CL1  UNL     1      30.608   5.276  47.824  1.00  0.00    -0.230 Cl
ENDBRANCH  24  26
BRANCH  25  29
HETATM   29  C17 UNL     1      26.028   8.691  49.117  1.00  0.00     0.252 C 
HETATM   30  F1  UNL     1      25.480   8.664  50.387  1.00  0.00    -0.251 F 
ENDBRANCH  25  29
ENDBRANCH  22  24
ENDBRANCH   6  22
TORSDOF 7
ENDMDL
MODEL 2
REMARK VINA RESULT:      -7.6      3.612      7.065
REMARK  7 active torsions:
REMARK  status: ('A' for Active; 'I' for Inactive)
REMARK    1  A    between atoms: C6_9  and  N3_10 
REMARK    2  A    between atoms: C7_11  and  C8_12 
REMARK    3  A    between atoms: C8_12  and  C9_13 
REMARK    4  A    between atoms: C12_18  and  N6_19 
REMARK    5  A    between atoms: N6_19  and  C13_20 
REMARK    6  A    between atoms: C13_20  and  C14_21 
REMARK    7  A    between atoms: C16_24  and  C17_25 
ROOT
HETATM    1  C9  UNL     1      21.507  -0.494  53.107  1.00  0.00     0.070 A 
HETATM    2  N4  UNL     1      21.150  -1.350  54.009  1.00  0.00    -0.244 NA
HETATM    3  C10 UNL     1      22.243  -1.548  54.912  1.00  0.00     0.234 A 
HETATM    4  N5  UNL     1      23.274  -0.831  54.587  1.00  0.00    -0.239 NA
HETATM    5  C11 UNL     1      22.894  -0.094  53.405  1.00  0.00     0.098 A 
HETATM    6  C12 UNL     1      23.800   0.728  52.865  1.00  0.00     0.122 C 
ENDROOT
BRANCH   1   7
HETATM    7  C8  UNL     1      20.905   0.152  51.910  1.00  0.00     0.108 C 
BRANCH   7   8
HETATM    8  C7  UNL     1      19.561   0.672  52.270  1.00  0.00     0.265 C 
HETATM    9  N3  UNL     1      19.278   1.903  51.931  1.00  0.00    -0.377 NA
BRANCH   9  10
HETATM   10  C6  UNL     1      20.225   2.705  51.243  1.00  0.00     0.095 C 
HETATM   11  N2  UNL     1      21.097   2.639  50.130  1.00  0.00    -0.311 N 
HETATM   12  C5  UNL     1      21.951   2.494  49.004  1.00  0.00     0.246 C 
HETATM   13  H8  UNL     1      20.672   1.706  50.303  1.00  0.00     0.170 HD
HETATM   14  C4  UNL     1      22.782   3.556  48.406  1.00  0.00     0.072 C 
HETATM   15  O1  UNL     1      21.834   1.305  48.637  1.00  0.00    -0.268 OA
HETATM   16  C3  UNL     1      23.330   4.794  48.332  1.00  0.00    -0.002 C 
HETATM   17  C2  UNL     1      22.874   5.616  49.544  1.00  0.00     0.144 C 
HETATM   18  N1  UNL     1      22.279   4.784  50.479  1.00  0.00    -0.410 N 
HETATM   19  C1  UNL     1      23.335   3.962  51.113  1.00  0.00     0.143 C 
HETATM   20  C19 UNL     1      21.333   5.086  51.432  1.00  0.00     0.147 C 
HETATM   21  C18 UNL     1      20.440   3.904  51.751  1.00  0.00     0.040 C 
ENDBRANCH   9  10
ENDBRANCH   7   8
ENDBRANCH   1   7
BRANCH   6  22
HETATM   22  N6  UNL     1      25.123   0.979  53.319  1.00  0.00    -0.364 N 
HETATM   23  H14 UNL     1      25.092   1.370  54.288  1.00  0.00     0.165 HD
BRANCH  22  24
HETATM   24  C13 UNL     1      26.240   0.720  52.530  1.00  0.00     0.031 C 
HETATM   25  C16 UNL     1      27.011  -0.281  52.198  1.00  0.00     0.033 C 
BRANCH  24  26
HETATM   26  C14 UNL     1      26.693   1.916  51.875  1.00  0.00     0.041 C 
HETATM   27  C15 UNL     1      26.497   2.365  50.670  1.00  0.00     0.220 C 
HETATM   28 CL1  UNL     1      26.720   3.554  49.426  1.00  0.00    -0.230 Cl
ENDBRANCH  24  26
BRANCH  25  29
HETATM   29  C17 UNL     1      26.692  -1.593  52.780  1.00  0.00     0.252 C 
HETATM   30  F1  UNL     1      26.737  -2.614  51.847  1.00  0.00    -0.251 F 
ENDBRANCH  25  29
ENDBRANCH  22  24
ENDBRANCH   6  22
TORSDOF 7
ENDMDL
MODEL 3
REMARK VINA RESULT:      -7.5      3.298      7.051
REMARK  7 active torsions:
REMARK  status: ('A' for Active; 'I' for Inactive)
REMARK    1  A    between atoms: C6_9  and  N3_10 
REMARK    2  A    between atoms: C7_11  and  C8_12 
REMARK    3  A    between atoms: C8_12  and  C9_13 
REMARK    4  A    between atoms: C12_18  and  N6_19 
REMARK    5  A    between atoms: N6_19  and  C13_20 
REMARK    6  A    between atoms: C13_20  and  C14_21 
REMARK    7  A    between atoms: C16_24  and  C17_25 
ROOT
HETATM    1  C9  UNL     1      21.325   0.487  52.778  1.00  0.00     0.070 A 
HETATM    2  N4  UNL     1      20.822  -0.506  53.438  1.00  0.00    -0.244 NA
HETATM    3  C10 UNL     1      21.851  -1.093  54.241  1.00  0.00     0.234 A 
HETATM    4  N5  UNL     1      22.986  -0.483  54.093  1.00  0.00    -0.239 NA
HETATM    5  C11 UNL     1      22.750   0.580  53.145  1.00  0.00     0.098 A 
HETATM    6  C12 UNL     1      23.783   1.364  52.818  1.00  0.00     0.122 C 
ENDROOT
BRANCH   1   7
HETATM    7  C8  UNL     1      20.857   1.500  51.796  1.00  0.00     0.108 C 
BRANCH   7   8
HETATM    8  C7  UNL     1      19.641   2.163  52.334  1.00  0.00     0.265 C 
HETATM    9  N3  UNL     1      19.532   3.455  52.164  1.00  0.00    -0.377 NA
BRANCH   9  10
HETATM   10  C6  UNL     1      20.541   4.189  51.489  1.00  0.00     0.095 C 
HETATM   11  N2  UNL     1      21.863   4.655  51.691  1.00  0.00    -0.311 N 
HETATM   12  C5  UNL     1      23.185   5.094  51.971  1.00  0.00     0.246 C 
HETATM   13  H8  UNL     1      21.495   4.241  52.571  1.00  0.00     0.170 HD
HETATM   14  C4  UNL     1      24.091   5.767  51.022  1.00  0.00     0.072 C 
HETATM   15  O1  UNL     1      23.405   4.780  53.160  1.00  0.00    -0.268 OA
HETATM   16  C3  UNL     1      24.428   6.352  49.846  1.00  0.00    -0.002 C 
HETATM   17  C2  UNL     1      23.200   6.366  48.925  1.00  0.00     0.144 C 
HETATM   18  N1  UNL     1      22.065   6.041  49.651  1.00  0.00    -0.410 N 
HETATM   19  C1  UNL     1      21.732   7.180  50.536  1.00  0.00     0.143 C 
HETATM   20  C19 UNL     1      20.891   5.471  49.215  1.00  0.00     0.147 C 
HETATM   21  C18 UNL     1      20.219   4.642  50.292  1.00  0.00     0.040 C 
ENDBRANCH   9  10
ENDBRANCH   7   8
ENDBRANCH   1   7
BRANCH   6  22
HETATM   22  N6  UNL     1      25.118   1.286  53.299  1.00  0.00    -0.364 N 
HETATM   23  H14 UNL     1      25.142   1.550  54.310  1.00  0.00     0.165 HD
BRANCH  22  24
HETATM   24  C13 UNL     1      26.180   0.907  52.483  1.00  0.00     0.031 C 
HETATM   25  C16 UNL     1      26.831  -0.171  52.136  1.00  0.00     0.033 C 
BRANCH  24  26
HETATM   26  C14 UNL     1      26.739   2.046  51.810  1.00  0.00     0.041 C 
HETATM   27  C15 UNL     1      26.514   2.548  50.631  1.00  0.00     0.220 C 
HETATM   28 CL1  UNL     1      26.799   3.726  49.389  1.00  0.00    -0.230 Cl
ENDBRANCH  24  26
BRANCH  25  29
HETATM   29  C17 UNL     1      26.390  -1.440  52.734  1.00  0.00     0.252 C 
HETATM   30  F1  UNL     1      27.164  -2.515  52.331  1.00  0.00    -0.251 F 
ENDBRANCH  25  29
ENDBRANCH  22  24
ENDBRANCH   6  22
TORSDOF 7
ENDMDL
MODEL 4
REMARK VINA RESULT:      -7.5      4.280      7.457
REMARK  7 active torsions:
REMARK  status: ('A' for Active; 'I' for Inactive)
REMARK    1  A    between atoms: C6_9  and  N3_10 
REMARK    2  A    between atoms: C7_11  and  C8_12 
REMARK    3  A    between atoms: C8_12  and  C9_13 
REMARK    4  A    between atoms: C12_18  and  N6_19 
REMARK    5  A    between atoms: N6_19  and  C13_20 
REMARK    6  A    between atoms: C13_20  and  C14_21 
REMARK    7  A    between atoms: C16_24  and  C17_25 
ROOT
HETATM    1  C9  UNL     1      24.667   3.615  50.490  1.00  0.00     0.070 A 
HETATM    2  N4  UNL     1      25.092   4.330  49.500  1.00  0.00    -0.244 NA
HETATM    3  C10 UNL     1      26.496   4.103  49.337  1.00  0.00     0.234 A 
HETATM    4  N5  UNL     1      26.952   3.258  50.209  1.00  0.00    -0.239 NA
HETATM    5  C11 UNL     1      25.825   2.872  51.023  1.00  0.00     0.098 A 
HETATM    6  C12 UNL     1      26.039   1.998  52.011  1.00  0.00     0.122 C 
ENDROOT
BRANCH   1   7
HETATM    7  C8  UNL     1      23.379   3.366  51.191  1.00  0.00     0.108 C 
BRANCH   7   8
HETATM    8  C7  UNL     1      22.966   4.609  51.891  1.00  0.00     0.265 C 
HETATM    9  N3  UNL     1      21.759   4.648  52.391  1.00  0.00    -0.377 NA
BRANCH   9  10
HETATM   10  C6  UNL     1      20.882   3.540  52.267  1.00  0.00     0.095 C 
HETATM   11  N2  UNL     1      20.793   2.179  52.649  1.00  0.00    -0.311 N 
HETATM   12  C5  UNL     1      20.781   0.820  53.062  1.00  0.00     0.246 C 
HETATM   13  H8  UNL     1      21.731   2.556  52.894  1.00  0.00     0.170 HD
HETATM   14  C4  UNL     1      19.659  -0.123  52.897  1.00  0.00     0.072 C 
HETATM   15  O1  UNL     1      21.894   0.613  53.592  1.00  0.00    -0.268 OA
HETATM   16  C3  UNL     1      18.438  -0.519  52.458  1.00  0.00    -0.002 C 
HETATM   17  C2  UNL     1      17.806   0.618  51.645  1.00  0.00     0.144 C 
HETATM   18  N1  UNL     1      18.760   1.585  51.370  1.00  0.00    -0.410 N 
HETATM   19  C1  UNL     1      19.699   1.043  50.361  1.00  0.00     0.143 C 
HETATM   20  C19 UNL     1      18.589   2.929  51.126  1.00  0.00     0.147 C 
HETATM   21  C18 UNL     1      19.784   3.750  51.567  1.00  0.00     0.040 C 
ENDBRANCH   9  10
ENDBRANCH   7   8
ENDBRANCH   1   7
BRANCH   6  22
HETATM   22  N6  UNL     1      27.267   1.380  52.371  1.00  0.00    -0.364 N 
HETATM   23  H14 UNL     1      28.062   1.894  51.928  1.00  0.00     0.165 HD
BRANCH  22  24
HETATM   24  C13 UNL     1      27.321   0.259  53.195  1.00  0.00     0.031 C 
HETATM   25  C16 UNL     1      28.205  -0.477  53.815  1.00  0.00     0.033 C 
BRANCH  24  26
HETATM   26  C14 UNL     1      26.004  -0.254  53.447  1.00  0.00     0.041 C 
HETATM   27  C15 UNL     1      25.424  -0.640  54.546  1.00  0.00     0.220 C 
HETATM   28 CL1  UNL     1      24.062  -1.268  55.419  1.00  0.00    -0.230 Cl
ENDBRANCH  24  26
BRANCH  25  29
HETATM   29  C17 UNL     1      29.617  -0.093  53.667  1.00  0.00     0.252 C 
HETATM   30  F1  UNL     1      30.481  -1.154  53.874  1.00  0.00    -0.251 F 
ENDBRANCH  25  29
ENDBRANCH  22  24
ENDBRANCH   6  22
TORSDOF 7
ENDMDL
MODEL 5
REMARK VINA RESULT:      -7.3      4.025      6.228
REMARK  7 active torsions:
REMARK  status: ('A' for Active; 'I' for Inactive)
REMARK    1  A    between atoms: C6_9  and  N3_10 
REMARK    2  A    between atoms: C7_11  and  C8_12 
REMARK    3  A    between atoms: C8_12  and  C9_13 
REMARK    4  A    between atoms: C12_18  and  N6_19 
REMARK    5  A    between atoms: N6_19  and  C13_20 
REMARK    6  A    between atoms: C13_20  and  C14_21 
REMARK    7  A    between atoms: C16_24  and  C17_25 
ROOT
HETATM    1  C9  UNL     1      22.653   5.006  51.015  1.00  0.00     0.070 A 
HETATM    2  N4  UNL     1      22.065   5.888  50.273  1.00  0.00    -0.244 NA
HETATM    3  C10 UNL     1      20.657   5.631  50.281  1.00  0.00     0.234 A 
HETATM    4  N5  UNL     1      20.358   4.603  51.015  1.00  0.00    -0.239 NA
HETATM    5  C11 UNL     1      21.606   4.114  51.549  1.00  0.00     0.098 A 
HETATM    6  C12 UNL     1      21.566   3.042  52.347  1.00  0.00     0.122 C 
ENDROOT
BRANCH   1   7
HETATM    7  C8  UNL     1      24.040   4.681  51.441  1.00  0.00     0.108 C 
BRANCH   7   8
HETATM    8  C7  UNL     1      24.910   4.625  50.240  1.00  0.00     0.265 C 
HETATM    9  N3  UNL     1      25.807   3.675  50.187  1.00  0.00    -0.377 NA
BRANCH   9  10
HETATM   10  C6  UNL     1      25.935   2.734  51.240  1.00  0.00     0.095 C 
HETATM   11  N2  UNL     1      26.855   2.350  52.246  1.00  0.00    -0.311 N 
HETATM   12  C5  UNL     1      27.832   2.018  53.223  1.00  0.00     0.246 C 
HETATM   13  H8  UNL     1      27.291   3.055  51.617  1.00  0.00     0.170 HD
HETATM   14  C4  UNL     1      27.667   1.040  54.313  1.00  0.00     0.072 C 
HETATM   15  O1  UNL     1      28.827   2.730  52.966  1.00  0.00    -0.268 OA
HETATM   16  C3  UNL     1      27.022   0.072  55.011  1.00  0.00    -0.002 C 
HETATM   17  C2  UNL     1      25.695  -0.248  54.311  1.00  0.00     0.144 C 
HETATM   18  N1  UNL     1      25.676   0.330  53.052  1.00  0.00    -0.410 N 
HETATM   19  C1  UNL     1      26.610  -0.418  52.179  1.00  0.00     0.143 C 
HETATM   20  C19 UNL     1      24.597   0.726  52.295  1.00  0.00     0.147 C 
HETATM   21  C18 UNL     1      24.929   1.893  51.386  1.00  0.00     0.040 C 
ENDBRANCH   9  10
ENDBRANCH   7   8
ENDBRANCH   1   7
BRANCH   6  22
HETATM   22  N6  UNL     1      20.421   2.305  52.752  1.00  0.00    -0.364 N 
HETATM   23  H14 UNL     1      19.703   2.958  53.140  1.00  0.00     0.165 HD
BRANCH  22  24
HETATM   24  C13 UNL     1      20.344   0.922  52.620  1.00  0.00     0.031 C 
HETATM   25  C16 UNL     1      20.658  -0.159  53.283  1.00  0.00     0.033 C 
BRANCH  24  26
HETATM   26  C14 UNL     1      19.729   0.561  51.373  1.00  0.00     0.041 C 
HETATM   27  C15 UNL     1      18.498   0.266  51.071  1.00  0.00     0.220 C 
HETATM   28 CL1  UNL     1      17.268  -0.190  49.935  1.00  0.00    -0.230 Cl
ENDBRANCH  24  26
BRANCH  25  29
HETATM   29  C17 UNL     1      21.301   0.023  54.593  1.00  0.00     0.252 C 
HETATM   30  F1  UNL     1      22.431  -0.762  54.744  1.00  0.00    -0.251 F 
ENDBRANCH  25  29
ENDBRANCH  22  24
ENDBRANCH   6  22
TORSDOF 7
ENDMDL
MODEL 6
REMARK VINA RESULT:      -7.2      3.103      6.557
REMARK  7 active torsions:
REMARK  status: ('A' for Active; 'I' for Inactive)
REMARK    1  A    between atoms: C6_9  and  N3_10 
REMARK    2  A    between atoms: C7_11  and  C8_12 
REMARK    3  A    between atoms: C8_12  and  C9_13 
REMARK    4  A    between atoms: C12_18  and  N6_19 
REMARK    5  A    between atoms: N6_19  and  C13_20 
REMARK    6  A    between atoms: C13_20  and  C14_21 
REMARK    7  A    between atoms: C16_24  and  C17_25 
ROOT
HETATM    1  C9  UNL     1      25.450   5.298  50.103  1.00  0.00     0.070 A 
HETATM    2  N4  UNL     1      26.270   5.747  49.210  1.00  0.00    -0.244 NA
HETATM    3  C10 UNL     1      27.173   4.698  48.845  1.00  0.00     0.234 A 
HETATM    4  N5  UNL     1      26.928   3.603  49.496  1.00  0.00    -0.239 NA
HETATM    5  C11 UNL     1      25.806   3.889  50.357  1.00  0.00     0.098 A 
HETATM    6  C12 UNL     1      25.357   2.907  51.145  1.00  0.00     0.122 C 
ENDROOT
BRANCH   1   7
HETATM    7  C8  UNL     1      24.302   5.813  50.896  1.00  0.00     0.108 C 
BRANCH   7   8
HETATM    8  C7  UNL     1      23.475   6.690  50.029  1.00  0.00     0.265 C 
HETATM    9  N3  UNL     1      22.311   6.235  49.644  1.00  0.00    -0.377 NA
BRANCH   9  10
HETATM   10  C6  UNL     1      21.861   4.952  50.047  1.00  0.00     0.095 C 
HETATM   11  N2  UNL     1      22.032   3.587  49.710  1.00  0.00    -0.311 N 
HETATM   12  C5  UNL     1      22.249   2.241  49.308  1.00  0.00     0.246 C 
HETATM   13  H8  UNL     1      22.515   4.188  49.013  1.00  0.00     0.170 HD
HETATM   14  C4  UNL     1      21.730   1.041  49.989  1.00  0.00     0.072 C 
HETATM   15  O1  UNL     1      22.968   2.302  48.288  1.00  0.00    -0.268 OA
HETATM   16  C3  UNL     1      20.996   0.370  50.912  1.00  0.00    -0.002 C 
HETATM   17  C2  UNL     1      20.227   1.382  51.771  1.00  0.00     0.144 C 
HETATM   18  N1  UNL     1      20.288   2.637  51.186  1.00  0.00    -0.410 N 
HETATM   19  C1  UNL     1      19.435   2.632  49.976  1.00  0.00     0.143 C 
HETATM   20  C19 UNL     1      20.194   3.876  51.779  1.00  0.00     0.147 C 
HETATM   21  C18 UNL     1      20.980   4.933  51.029  1.00  0.00     0.040 C 
ENDBRANCH   9  10
ENDBRANCH   7   8
ENDBRANCH   1   7
BRANCH   6  22
HETATM   22  N6  UNL     1      25.854   1.579  51.244  1.00  0.00    -0.364 N 
HETATM   23  H14 UNL     1      26.047   1.205  50.286  1.00  0.00     0.165 HD
BRANCH  22  24
HETATM   24  C13 UNL     1      26.028   0.940  52.468  1.00  0.00     0.031 C 
HETATM   25  C16 UNL     1      25.316   0.354  53.393  1.00  0.00     0.033 C 
BRANCH  24  26
HETATM   26  C14 UNL     1      27.416   0.911  52.837  1.00  0.00     0.041 C 
HETATM   27  C15 UNL     1      28.170  -0.051  53.283  1.00  0.00     0.220 C 
HETATM   28 CL1  UNL     1      29.693  -0.668  53.838  1.00  0.00    -0.230 Cl
ENDBRANCH  24  26
BRANCH  25  29
HETATM   29  C17 UNL     1      23.862   0.291  53.178  1.00  0.00     0.252 C 
HETATM   30  F1  UNL     1      23.249   1.522  53.330  1.00  0.00    -0.251 F 
ENDBRANCH  25  29
ENDBRANCH  22  24
ENDBRANCH   6  22
TORSDOF 7
ENDMDL
MODEL 7
REMARK VINA RESULT:      -7.1      3.884      7.230
REMARK  7 active torsions:
REMARK  status: ('A' for Active; 'I' for Inactive)
REMARK    1  A    between atoms: C6_9  and  N3_10 
REMARK    2  A    between atoms: C7_11  and  C8_12 
REMARK    3  A    between atoms: C8_12  and  C9_13 
REMARK    4  A    between atoms: C12_18  and  N6_19 
REMARK    5  A    between atoms: N6_19  and  C13_20 
REMARK    6  A    between atoms: C13_20  and  C14_21 
REMARK    7  A    between atoms: C16_24  and  C17_25 
ROOT
HETATM    1  C9  UNL     1      25.070   4.746  50.475  1.00  0.00     0.070 A 
HETATM    2  N4  UNL     1      25.902   5.126  49.560  1.00  0.00    -0.244 NA
HETATM    3  C10 UNL     1      26.819   4.058  49.300  1.00  0.00     0.234 A 
HETATM    4  N5  UNL     1      26.572   3.020  50.037  1.00  0.00    -0.239 NA
HETATM    5  C11 UNL     1      25.433   3.368  50.853  1.00  0.00     0.098 A 
HETATM    6  C12 UNL     1      24.979   2.451  51.713  1.00  0.00     0.122 C 
ENDROOT
BRANCH   1   7
HETATM    7  C8  UNL     1      23.906   5.316  51.203  1.00  0.00     0.108 C 
BRANCH   7   8
HETATM    8  C7  UNL     1      23.139   6.188  50.276  1.00  0.00     0.265 C 
HETATM    9  N3  UNL     1      21.964   5.768  49.884  1.00  0.00    -0.377 NA
BRANCH   9  10
HETATM   10  C6  UNL     1      21.446   4.527  50.335  1.00  0.00     0.095 C 
HETATM   11  N2  UNL     1      21.625   3.138  50.130  1.00  0.00    -0.311 N 
HETATM   12  C5  UNL     1      21.858   1.761  49.863  1.00  0.00     0.246 C 
HETATM   13  H8  UNL     1      22.195   3.674  49.445  1.00  0.00     0.170 HD
HETATM   14  C4  UNL     1      21.242   0.627  50.576  1.00  0.00     0.072 C 
HETATM   15  O1  UNL     1      22.687   1.730  48.929  1.00  0.00    -0.268 OA
HETATM   16  C3  UNL     1      20.397   0.042  51.461  1.00  0.00    -0.002 C 
HETATM   17  C2  UNL     1      19.559   1.129  52.145  1.00  0.00     0.144 C 
HETATM   18  N1  UNL     1      19.710   2.331  51.473  1.00  0.00    -0.410 N 
HETATM   19  C1  UNL     1      18.996   2.237  50.178  1.00  0.00     0.143 C 
HETATM   20  C19 UNL     1      19.576   3.615  51.950  1.00  0.00     0.147 C 
HETATM   21  C18 UNL     1      20.462   4.599  51.211  1.00  0.00     0.040 C 
ENDBRANCH   9  10
ENDBRANCH   7   8
ENDBRANCH   1   7
BRANCH   6  22
HETATM   22  N6  UNL     1      25.484   1.141  51.932  1.00  0.00    -0.364 N 
HETATM   23  H14 UNL     1      26.052   0.842  51.106  1.00  0.00     0.165 HD
BRANCH  22  24
HETATM   24  C13 UNL     1      25.218   0.427  53.097  1.00  0.00     0.031 C 
HETATM   25  C16 UNL     1      25.860  -0.134  54.087  1.00  0.00     0.033 C 
BRANCH  24  26
HETATM   26  C14 UNL     1      23.804   0.247  53.274  1.00  0.00     0.041 C 
HETATM   27  C15 UNL     1      23.126  -0.593  54.001  1.00  0.00     0.220 C 
HETATM   28 CL1  UNL     1      21.630  -1.249  54.586  1.00  0.00    -0.230 Cl
ENDBRANCH  24  26
BRANCH  25  29
HETATM   29  C17 UNL     1      27.328  -0.046  54.068  1.00  0.00     0.252 C 
HETATM   30  F1  UNL     1      27.873  -0.507  52.882  1.00  0.00    -0.251 F 
ENDBRANCH  25  29
ENDBRANCH  22  24
ENDBRANCH   6  22
TORSDOF 7
ENDMDL
MODEL 8
REMARK VINA RESULT:      -7.0      6.200      9.610
REMARK  7 active torsions:
REMARK  status: ('A' for Active; 'I' for Inactive)
REMARK    1  A    between atoms: C6_9  and  N3_10 
REMARK    2  A    between atoms: C7_11  and  C8_12 
REMARK    3  A    between atoms: C8_12  and  C9_13 
REMARK    4  A    between atoms: C12_18  and  N6_19 
REMARK    5  A    between atoms: N6_19  and  C13_20 
REMARK    6  A    between atoms: C13_20  and  C14_21 
REMARK    7  A    between atoms: C16_24  and  C17_25 
ROOT
HETATM    1  C9  UNL     1      31.480  10.257  47.656  1.00  0.00     0.070 A 
HETATM    2  N4  UNL     1      31.291  11.532  47.766  1.00  0.00    -0.244 NA
HETATM    3  C10 UNL     1      30.071  11.757  48.478  1.00  0.00     0.234 A 
HETATM    4  N5  UNL     1      29.496  10.644  48.814  1.00  0.00    -0.239 NA
HETATM    5  C11 UNL     1      30.345   9.588  48.319  1.00  0.00     0.098 A 
HETATM    6  C12 UNL     1      29.964   8.325  48.539  1.00  0.00     0.122 C 
ENDROOT
BRANCH   1   7
HETATM    7  C8  UNL     1      32.494   9.346  47.063  1.00  0.00     0.108 C 
BRANCH   7   8
HETATM    8  C7  UNL     1      33.812  10.032  47.058  1.00  0.00     0.265 C 
HETATM    9  N3  UNL     1      34.883   9.285  47.113  1.00  0.00    -0.377 NA
BRANCH   9  10
HETATM   10  C6  UNL     1      34.783   7.871  47.173  1.00  0.00     0.095 C 
HETATM   11  N2  UNL     1      34.363   6.778  46.376  1.00  0.00    -0.311 N 
HETATM   12  C5  UNL     1      33.915   5.736  45.520  1.00  0.00     0.246 C 
HETATM   13  H8  UNL     1      34.120   7.674  45.907  1.00  0.00     0.170 HD
HETATM   14  C4  UNL     1      34.028   4.290  45.787  1.00  0.00     0.072 C 
HETATM   15  O1  UNL     1      33.433   6.302  44.516  1.00  0.00    -0.268 OA
HETATM   16  C3  UNL     1      34.321   3.195  46.532  1.00  0.00    -0.002 C 
HETATM   17  C2  UNL     1      34.818   3.648  47.911  1.00  0.00     0.144 C 
HETATM   18  N1  UNL     1      34.561   4.998  48.083  1.00  0.00    -0.410 N 
HETATM   19  C1  UNL     1      33.103   5.178  48.267  1.00  0.00     0.143 C 
HETATM   20  C19 UNL     1      35.215   5.912  48.879  1.00  0.00     0.147 C 
HETATM   21  C18 UNL     1      35.157   7.315  48.310  1.00  0.00     0.040 C 
ENDBRANCH   9  10
ENDBRANCH   7   8
ENDBRANCH   1   7
BRANCH   6  22
HETATM   22  N6  UNL     1      28.800   7.878  49.219  1.00  0.00    -0.364 N 
HETATM   23  H14 UNL     1      28.917   8.025  50.248  1.00  0.00     0.165 HD
BRANCH  22  24
HETATM   24  C13 UNL     1      27.709   7.334  48.547  1.00  0.00     0.031 C 
HETATM   25  C16 UNL     1      27.231   6.165  48.210  1.00  0.00     0.033 C 
BRANCH  24  26
HETATM   26  C14 UNL     1      26.833   8.369  48.074  1.00  0.00     0.041 C 
HETATM   27  C15 UNL     1      26.260   8.553  46.920  1.00  0.00     0.220 C 
HETATM   28 CL1  UNL     1      25.237   9.454  45.847  1.00  0.00    -0.230 Cl
ENDBRANCH  24  26
BRANCH  25  29
HETATM   29  C17 UNL     1      28.005   4.983  48.617  1.00  0.00     0.252 C 
HETATM   30  F1  UNL     1      29.243   4.921  48.000  1.00  0.00    -0.251 F 
ENDBRANCH  25  29
ENDBRANCH  22  24
ENDBRANCH   6  22
TORSDOF 7
ENDMDL
MODEL 9
REMARK VINA RESULT:      -7.0      3.489      7.688
REMARK  7 active torsions:
REMARK  status: ('A' for Active; 'I' for Inactive)
REMARK    1  A    between atoms: C6_9  and  N3_10 
REMARK    2  A    between atoms: C7_11  and  C8_12 
REMARK    3  A    between atoms: C8_12  and  C9_13 
REMARK    4  A    between atoms: C12_18  and  N6_19 
REMARK    5  A    between atoms: N6_19  and  C13_20 
REMARK    6  A    between atoms: C13_20  and  C14_21 
REMARK    7  A    between atoms: C16_24  and  C17_25 
ROOT
HETATM    1  C9  UNL     1      24.834   5.039  49.080  1.00  0.00     0.070 A 
HETATM    2  N4  UNL     1      23.627   4.896  48.637  1.00  0.00    -0.244 NA
HETATM    3  C10 UNL     1      23.131   3.621  49.057  1.00  0.00     0.234 A 
HETATM    4  N5  UNL     1      24.008   2.967  49.754  1.00  0.00    -0.239 NA
HETATM    5  C11 UNL     1      25.173   3.815  49.830  1.00  0.00     0.098 A 
HETATM    6  C12 UNL     1      26.234   3.359  50.505  1.00  0.00     0.122 C 
ENDROOT
BRANCH   1   7
HETATM    7  C8  UNL     1      25.907   6.066  49.026  1.00  0.00     0.108 C 
BRANCH   7   8
HETATM    8  C7  UNL     1      25.633   7.101  50.056  1.00  0.00     0.265 C 
HETATM    9  N3  UNL     1      26.504   8.067  50.189  1.00  0.00    -0.377 NA
BRANCH   9  10
HETATM   10  C6  UNL     1      27.664   8.120  49.375  1.00  0.00     0.095 C 
HETATM   11  N2  UNL     1      28.627   7.255  48.801  1.00  0.00    -0.311 N 
HETATM   12  C5  UNL     1      29.559   6.324  48.267  1.00  0.00     0.246 C 
HETATM   13  H8  UNL     1      28.007   6.720  49.442  1.00  0.00     0.170 HD
HETATM   14  C4  UNL     1      30.648   6.637  47.324  1.00  0.00     0.072 C 
HETATM   15  O1  UNL     1      29.248   5.214  48.750  1.00  0.00    -0.268 OA
HETATM   16  C3  UNL     1      31.438   7.453  46.583  1.00  0.00    -0.002 C 
HETATM   17  C2  UNL     1      31.020   8.908  46.825  1.00  0.00     0.144 C 
HETATM   18  N1  UNL     1      30.167   8.977  47.916  1.00  0.00    -0.410 N 
HETATM   19  C1  UNL     1      30.957   8.731  49.144  1.00  0.00     0.143 C 
HETATM   20  C19 UNL     1      29.198   9.911  48.202  1.00  0.00     0.147 C 
HETATM   21  C18 UNL     1      28.055   9.326  49.008  1.00  0.00     0.040 C 
ENDBRANCH   9  10
ENDBRANCH   7   8
ENDBRANCH   1   7
BRANCH   6  22
HETATM   22  N6  UNL     1      26.364   2.114  51.178  1.00  0.00    -0.364 N 
HETATM   23  H14 UNL     1      26.546   1.356  50.481  1.00  0.00     0.165 HD
BRANCH  22  24
HETATM   24  C13 UNL     1      26.250   2.002  52.560  1.00  0.00     0.031 C 
HETATM   25  C16 UNL     1      27.014   1.875  53.613  1.00  0.00     0.033 C 
BRANCH  24  26
HETATM   26  C14 UNL     1      24.873   2.036  52.965  1.00  0.00     0.041 C 
HETATM   27  C15 UNL     1      23.979   1.096  53.061  1.00  0.00     0.220 C 
HETATM   28 CL1  UNL     1      22.377   0.539  53.430  1.00  0.00    -0.230 Cl
ENDBRANCH  24  26
BRANCH  25  29
HETATM   29  C17 UNL     1      28.466   1.824  53.384  1.00  0.00     0.252 C 
HETATM   30  F1  UNL     1      29.043   3.081  53.347  1.00  0.00    -0.251 F 
ENDBRANCH  25  29
ENDBRANCH  22  24
ENDBRANCH   6  22
TORSDOF 7
ENDMDL
