MODEL 1
REMARK VINA RESULT:      -7.8      0.000      0.000
REMARK  5 active torsions:
REMARK  status: ('A' for Active; 'I' for Inactive)
REMARK    1  A    between atoms: C1_2  and  N1_3 
REMARK    2  A    between atoms: N1_3  and  C2_4 
REMARK    3  A    between atoms: C7_11  and  C8_12 
REMARK    4  A    between atoms: C8_12  and  C9_13 
REMARK    5  A    between atoms: C9_13  and  C10_14 
ROOT
HETATM    1  C2  UNL     1      26.728   0.680  54.503  1.00  0.00     0.106 C 
HETATM    2  N2  UNL     1      26.147  -0.407  54.889  1.00  0.00    -0.229 NA
HETATM    3  C3  UNL     1      24.821  -0.842  54.612  1.00  0.00     0.237 C 
HETATM    4  N3  UNL     1      23.927  -0.311  53.846  1.00  0.00    -0.224 NA
HETATM    5  C4  UNL     1      24.039   0.873  53.066  1.00  0.00     0.130 A 
HETATM    6  C5  UNL     1      25.048   1.730  53.031  1.00  0.00    -0.005 A 
HETATM    7  C6  UNL     1      26.365   1.851  53.697  1.00  0.00     0.118 C 
HETATM    8  C7  UNL     1      24.430   2.649  52.027  1.00  0.00     0.117 A 
HETATM    9  N4  UNL     1      23.383   1.689  52.106  1.00  0.00    -0.366 N 
HETATM   10  H17 UNL     1      22.460   1.610  51.629  1.00  0.00     0.161 HD
ENDROOT
BRANCH   8  11
HETATM   11  C8  UNL     1      25.162   2.785  50.741  1.00  0.00     0.034 C 
BRANCH  11  12
HETATM   12  C9  UNL     1      24.656   3.916  49.875  1.00  0.00     0.041 C 
BRANCH  12  13
HETATM   13  C10 UNL     1      25.821   4.658  49.277  1.00  0.00    -0.058 A 
HETATM   14  C11 UNL     1      27.093   4.179  49.132  1.00  0.00     0.007 A 
HETATM   15  C12 UNL     1      28.058   4.992  48.557  1.00  0.00     0.001 A 
HETATM   16  C13 UNL     1      27.769   6.270  48.130  1.00  0.00     0.000 A 
HETATM   17  C14 UNL     1      26.494   6.774  48.266  1.00  0.00     0.001 A 
HETATM   18  C15 UNL     1      25.546   5.953  48.839  1.00  0.00     0.007 A 
ENDBRANCH  12  13
ENDBRANCH  11  12
ENDBRANCH   8  11
BRANCH   1  19
HETATM   19  N1  UNL     1      28.089   0.806  54.967  1.00  0.00    -0.365 N 
HETATM   20  H3  UNL     1      28.327   0.881  55.999  1.00  0.00     0.162 HD
BRANCH  19  21
HETATM   21  C1  UNL     1      29.173   0.831  53.975  1.00  0.00     0.236 C 
HETATM   22 CL1  UNL     1      29.623  -0.815  53.558  1.00  0.00    -0.109 Cl
ENDBRANCH  19  21
ENDBRANCH   1  19
TORSDOF 5
ENDMDL
MODEL 2
REMARK VINA RESULT:      -7.6      2.872      6.018
REMARK  5 active torsions:
REMARK  status: ('A' for Active; 'I' for Inactive)
REMARK    1  A    between atoms: C1_2  and  N1_3 
REMARK    2  A    between atoms: N1_3  and  C2_4 
REMARK    3  A    between atoms: C7_11  and  C8_12 
REMARK    4  A    between atoms: C8_12  and  C9_13 
REMARK    5  A    between atoms: C9_13  and  C10_14 
ROOT
HETATM    1  C2  UNL     1      24.670   4.134  50.979  1.00  0.00     0.106 C 
HETATM    2  N2  UNL     1      23.700   4.966  51.167  1.00  0.00    -0.229 NA
HETATM    3  C3  UNL     1      22.415   4.710  51.720  1.00  0.00     0.237 C 
HETATM    4  N3  UNL     1      21.950   3.626  52.244  1.00  0.00    -0.224 NA
HETATM    5  C4  UNL     1      22.617   2.380  52.406  1.00  0.00     0.130 A 
HETATM    6  C5  UNL     1      23.820   2.039  51.971  1.00  0.00    -0.005 A 
HETATM    7  C6  UNL     1      24.902   2.704  51.210  1.00  0.00     0.118 C 
HETATM    8  C7  UNL     1      23.788   0.647  52.512  1.00  0.00     0.117 A 
HETATM    9  N4  UNL     1      22.506   1.075  52.957  1.00  0.00    -0.366 N 
HETATM   10  H17 UNL     1      21.751   0.601  53.496  1.00  0.00     0.161 HD
ENDROOT
BRANCH   8  11
HETATM   11  C8  UNL     1      24.816   0.330  53.536  1.00  0.00     0.034 C 
BRANCH  11  12
HETATM   12  C9  UNL     1      25.702  -0.836  53.160  1.00  0.00     0.041 C 
BRANCH  12  13
HETATM   13  C10 UNL     1      27.148  -0.445  53.312  1.00  0.00    -0.058 A 
HETATM   14  C11 UNL     1      27.620   0.808  53.586  1.00  0.00     0.007 A 
HETATM   15  C12 UNL     1      28.987   1.004  53.695  1.00  0.00     0.001 A 
HETATM   16  C13 UNL     1      29.884  -0.030  53.535  1.00  0.00     0.000 A 
HETATM   17  C14 UNL     1      29.432  -1.302  53.258  1.00  0.00     0.001 A 
HETATM   18  C15 UNL     1      28.069  -1.480  53.153  1.00  0.00     0.007 A 
ENDBRANCH  12  13
ENDBRANCH  11  12
ENDBRANCH   8  11
BRANCH   1  19
HETATM   19  N1  UNL     1      25.844   4.734  50.392  1.00  0.00    -0.365 N 
HETATM   20  H3  UNL     1      26.091   5.755  50.544  1.00  0.00     0.162 HD
BRANCH  19  21
HETATM   21  C1  UNL     1      26.720   3.900  49.557  1.00  0.00     0.236 C 
HETATM   22 CL1  UNL     1      27.758   4.930  48.583  1.00  0.00    -0.109 Cl
ENDBRANCH  19  21
ENDBRANCH   1  19
TORSDOF 5
ENDMDL
MODEL 3
REMARK VINA RESULT:      -7.5      2.991      6.196
REMARK  5 active torsions:
REMARK  status: ('A' for Active; 'I' for Inactive)
REMARK    1  A    between atoms: C1_2  and  N1_3 
REMARK    2  A    between atoms: N1_3  and  C2_4 
REMARK    3  A    between atoms: C7_11  and  C8_12 
REMARK    4  A    between atoms: C8_12  and  C9_13 
REMARK    5  A    between atoms: C9_13  and  C10_14 
ROOT
HETATM    1  C2  UNL     1      27.328   2.014  52.688  1.00  0.00     0.106 C 
HETATM    2  N2  UNL     1      28.520   1.606  52.974  1.00  0.00    -0.229 NA
HETATM    3  C3  UNL     1      28.911   0.637  53.939  1.00  0.00     0.237 C 
HETATM    4  N3  UNL     1      28.176  -0.122  54.682  1.00  0.00    -0.224 NA
HETATM    5  C4  UNL     1      26.756  -0.185  54.730  1.00  0.00     0.130 A 
HETATM    6  C5  UNL     1      25.887   0.584  54.092  1.00  0.00    -0.005 A 
HETATM    7  C6  UNL     1      25.966   1.724  53.151  1.00  0.00     0.118 C 
HETATM    8  C7  UNL     1      24.667  -0.081  54.641  1.00  0.00     0.117 A 
HETATM    9  N4  UNL     1      25.651  -0.875  55.293  1.00  0.00    -0.366 N 
HETATM   10  H17 UNL     1      25.585  -1.679  55.953  1.00  0.00     0.161 HD
ENDROOT
BRANCH   8  11
HETATM   11  C8  UNL     1      23.785  -0.736  53.641  1.00  0.00     0.034 C 
BRANCH  11  12
HETATM   12  C9  UNL     1      22.374  -0.963  54.137  1.00  0.00     0.041 C 
BRANCH  12  13
HETATM   13  C10 UNL     1      21.391  -0.450  53.120  1.00  0.00    -0.058 A 
HETATM   14  C11 UNL     1      20.031  -0.423  53.254  1.00  0.00     0.007 A 
HETATM   15  C12 UNL     1      19.261   0.084  52.219  1.00  0.00     0.001 A 
HETATM   16  C13 UNL     1      19.830   0.562  51.059  1.00  0.00     0.000 A 
HETATM   17  C14 UNL     1      21.199   0.545  50.900  1.00  0.00     0.001 A 
HETATM   18  C15 UNL     1      21.950   0.037  51.938  1.00  0.00     0.007 A 
ENDBRANCH  12  13
ENDBRANCH  11  12
ENDBRANCH   8  11
BRANCH   1  19
HETATM   19  N1  UNL     1      27.292   3.015  51.648  1.00  0.00    -0.365 N 
HETATM   20  H3  UNL     1      28.042   3.759  51.557  1.00  0.00     0.162 HD
BRANCH  19  21
HETATM   21  C1  UNL     1      26.176   2.996  50.691  1.00  0.00     0.236 C 
HETATM   22 CL1  UNL     1      26.608   3.935  49.270  1.00  0.00    -0.109 Cl
ENDBRANCH  19  21
ENDBRANCH   1  19
TORSDOF 5
ENDMDL
MODEL 4
REMARK VINA RESULT:      -7.4      2.288      3.288
REMARK  5 active torsions:
REMARK  status: ('A' for Active; 'I' for Inactive)
REMARK    1  A    between atoms: C1_2  and  N1_3 
REMARK    2  A    between atoms: N1_3  and  C2_4 
REMARK    3  A    between atoms: C7_11  and  C8_12 
REMARK    4  A    between atoms: C8_12  and  C9_13 
REMARK    5  A    between atoms: C9_13  and  C10_14 
ROOT
HETATM    1  C2  UNL     1      24.652  -0.176  53.579  1.00  0.00     0.106 C 
HETATM    2  N2  UNL     1      25.298  -0.315  54.689  1.00  0.00    -0.229 NA
HETATM    3  C3  UNL     1      26.551   0.250  55.054  1.00  0.00     0.237 C 
HETATM    4  N3  UNL     1      27.286   1.097  54.413  1.00  0.00    -0.224 NA
HETATM    5  C4  UNL     1      27.027   1.695  53.149  1.00  0.00     0.130 A 
HETATM    6  C5  UNL     1      26.027   1.442  52.320  1.00  0.00    -0.005 A 
HETATM    7  C6  UNL     1      24.855   0.535  52.312  1.00  0.00     0.118 C 
HETATM    8  C7  UNL     1      26.445   2.423  51.274  1.00  0.00     0.117 A 
HETATM    9  N4  UNL     1      27.492   2.653  52.209  1.00  0.00    -0.366 N 
HETATM   10  H17 UNL     1      28.311   3.297  52.208  1.00  0.00     0.161 HD
ENDROOT
BRANCH   8  11
HETATM   11  C8  UNL     1      25.487   3.527  51.006  1.00  0.00     0.034 C 
BRANCH  11  12
HETATM   12  C9  UNL     1      25.255   3.781  49.534  1.00  0.00     0.041 C 
BRANCH  12  13
HETATM   13  C10 UNL     1      26.221   4.824  49.040  1.00  0.00    -0.058 A 
HETATM   14  C11 UNL     1      27.545   4.630  48.760  1.00  0.00     0.007 A 
HETATM   15  C12 UNL     1      28.302   5.700  48.311  1.00  0.00     0.001 A 
HETATM   16  C13 UNL     1      27.757   6.954  48.140  1.00  0.00     0.000 A 
HETATM   17  C14 UNL     1      26.425   7.174  48.417  1.00  0.00     0.001 A 
HETATM   18  C15 UNL     1      25.686   6.100  48.861  1.00  0.00     0.007 A 
ENDBRANCH  12  13
ENDBRANCH  11  12
ENDBRANCH   8  11
BRANCH   1  19
HETATM   19  N1  UNL     1      23.400  -0.894  53.544  1.00  0.00    -0.365 N 
HETATM   20  H3  UNL     1      22.982  -1.252  52.636  1.00  0.00     0.162 HD
BRANCH  19  21
HETATM   21  C1  UNL     1      22.686  -1.130  54.807  1.00  0.00     0.236 C 
HETATM   22 CL1  UNL     1      21.041  -1.642  54.464  1.00  0.00    -0.109 Cl
ENDBRANCH  19  21
ENDBRANCH   1  19
TORSDOF 5
ENDMDL
MODEL 5
REMARK VINA RESULT:      -7.4      3.102      4.323
REMARK  5 active torsions:
REMARK  status: ('A' for Active; 'I' for Inactive)
REMARK    1  A    between atoms: C1_2  and  N1_3 
REMARK    2  A    between atoms: N1_3  and  C2_4 
REMARK    3  A    between atoms: C7_11  and  C8_12 
REMARK    4  A    between atoms: C8_12  and  C9_13 
REMARK    5  A    between atoms: C9_13  and  C10_14 
ROOT
HETATM    1  C2  UNL     1      22.022  -0.622  54.467  1.00  0.00     0.106 C 
HETATM    2  N2  UNL     1      22.551  -1.204  55.491  1.00  0.00    -0.229 NA
HETATM    3  C3  UNL     1      23.928  -1.452  55.747  1.00  0.00     0.237 C 
HETATM    4  N3  UNL     1      24.967  -1.080  55.076  1.00  0.00    -0.224 NA
HETATM    5  C4  UNL     1      25.003  -0.310  53.881  1.00  0.00     0.130 A 
HETATM    6  C5  UNL     1      23.979   0.108  53.153  1.00  0.00    -0.005 A 
HETATM    7  C6  UNL     1      22.505  -0.009  53.224  1.00  0.00     0.118 C 
HETATM    8  C7  UNL     1      24.804   0.807  52.120  1.00  0.00     0.117 A 
HETATM    9  N4  UNL     1      25.859   0.333  52.948  1.00  0.00    -0.366 N 
HETATM   10  H17 UNL     1      26.896   0.424  52.891  1.00  0.00     0.161 HD
ENDROOT
BRANCH   8  11
HETATM   11  C8  UNL     1      24.598   2.275  52.017  1.00  0.00     0.034 C 
BRANCH  11  12
HETATM   12  C9  UNL     1      24.053   2.714  50.676  1.00  0.00     0.041 C 
BRANCH  12  13
HETATM   13  C10 UNL     1      25.051   3.610  49.992  1.00  0.00    -0.058 A 
HETATM   14  C11 UNL     1      26.370   3.329  49.774  1.00  0.00     0.007 A 
HETATM   15  C12 UNL     1      27.161   4.265  49.126  1.00  0.00     0.001 A 
HETATM   16  C13 UNL     1      26.652   5.472  48.697  1.00  0.00     0.000 A 
HETATM   17  C14 UNL     1      25.324   5.778  48.906  1.00  0.00     0.001 A 
HETATM   18  C15 UNL     1      24.552   4.836  49.551  1.00  0.00     0.007 A 
ENDBRANCH  12  13
ENDBRANCH  11  12
ENDBRANCH   8  11
BRANCH   1  19
HETATM   19  N1  UNL     1      20.582  -0.536  54.529  1.00  0.00    -0.365 N 
HETATM   20  H3  UNL     1      20.053  -0.601  55.447  1.00  0.00     0.162 HD
BRANCH  19  21
HETATM   21  C1  UNL     1      19.832  -0.354  53.278  1.00  0.00     0.236 C 
HETATM   22 CL1  UNL     1      18.345  -1.289  53.345  1.00  0.00    -0.109 Cl
ENDBRANCH  19  21
ENDBRANCH   1  19
TORSDOF 5
ENDMDL
MODEL 6
REMARK VINA RESULT:      -7.4      3.112      6.524
REMARK  5 active torsions:
REMARK  status: ('A' for Active; 'I' for Inactive)
REMARK    1  A    between atoms: C1_2  and  N1_3 
REMARK    2  A    between atoms: N1_3  and  C2_4 
REMARK    3  A    between atoms: C7_11  and  C8_12 
REMARK    4  A    between atoms: C8_12  and  C9_13 
REMARK    5  A    between atoms: C9_13  and  C10_14 
ROOT
HETATM    1  C2  UNL     1      26.266   4.576  49.739  1.00  0.00     0.106 C 
HETATM    2  N2  UNL     1      25.674   5.714  49.885  1.00  0.00    -0.229 NA
HETATM    3  C3  UNL     1      24.478   5.999  50.601  1.00  0.00     0.237 C 
HETATM    4  N3  UNL     1      23.761   5.220  51.341  1.00  0.00    -0.224 NA
HETATM    5  C4  UNL     1      23.986   3.848  51.637  1.00  0.00     0.130 A 
HETATM    6  C5  UNL     1      24.923   3.053  51.143  1.00  0.00    -0.005 A 
HETATM    7  C6  UNL     1      26.036   3.194  50.177  1.00  0.00     0.118 C 
HETATM    8  C7  UNL     1      24.507   1.837  51.907  1.00  0.00     0.117 A 
HETATM    9  N4  UNL     1      23.529   2.743  52.403  1.00  0.00    -0.366 N 
HETATM   10  H17 UNL     1      22.750   2.635  53.088  1.00  0.00     0.161 HD
ENDROOT
BRANCH   8  11
HETATM   11  C8  UNL     1      25.513   1.299  52.859  1.00  0.00     0.034 C 
BRANCH  11  12
HETATM   12  C9  UNL     1      25.942  -0.117  52.547  1.00  0.00     0.041 C 
BRANCH  12  13
HETATM   13  C10 UNL     1      27.377  -0.314  52.956  1.00  0.00    -0.058 A 
HETATM   14  C11 UNL     1      28.245   0.665  53.350  1.00  0.00     0.007 A 
HETATM   15  C12 UNL     1      29.541   0.317  53.698  1.00  0.00     0.001 A 
HETATM   16  C13 UNL     1      29.977  -0.990  53.656  1.00  0.00     0.000 A 
HETATM   17  C14 UNL     1      29.120  -1.994  53.262  1.00  0.00     0.001 A 
HETATM   18  C15 UNL     1      27.835  -1.631  52.920  1.00  0.00     0.007 A 
ENDBRANCH  12  13
ENDBRANCH  11  12
ENDBRANCH   8  11
BRANCH   1  19
HETATM   19  N1  UNL     1      27.469   4.645  48.944  1.00  0.00    -0.365 N 
HETATM   20  H3  UNL     1      28.082   3.796  48.775  1.00  0.00     0.162 HD
BRANCH  19  21
HETATM   21  C1  UNL     1      27.851   5.937  48.355  1.00  0.00     0.236 C 
HETATM   22 CL1  UNL     1      29.564   5.920  47.966  1.00  0.00    -0.109 Cl
ENDBRANCH  19  21
ENDBRANCH   1  19
TORSDOF 5
ENDMDL
MODEL 7
REMARK VINA RESULT:      -7.4      3.113      5.113
REMARK  5 active torsions:
REMARK  status: ('A' for Active; 'I' for Inactive)
REMARK    1  A    between atoms: C1_2  and  N1_3 
REMARK    2  A    between atoms: N1_3  and  C2_4 
REMARK    3  A    between atoms: C7_11  and  C8_12 
REMARK    4  A    between atoms: C8_12  and  C9_13 
REMARK    5  A    between atoms: C9_13  and  C10_14 
ROOT
HETATM    1  C2  UNL     1      25.364  -0.129  54.045  1.00  0.00     0.106 C 
HETATM    2  N2  UNL     1      26.454  -0.174  54.736  1.00  0.00    -0.229 NA
HETATM    3  C3  UNL     1      27.678   0.509  54.495  1.00  0.00     0.237 C 
HETATM    4  N3  UNL     1      27.960   1.393  53.597  1.00  0.00    -0.224 NA
HETATM    5  C4  UNL     1      27.101   1.924  52.595  1.00  0.00     0.130 A 
HETATM    6  C5  UNL     1      25.861   1.557  52.311  1.00  0.00    -0.005 A 
HETATM    7  C6  UNL     1      24.903   0.554  52.831  1.00  0.00     0.118 C 
HETATM    8  C7  UNL     1      25.665   2.534  51.198  1.00  0.00     0.117 A 
HETATM    9  N4  UNL     1      26.997   2.885  51.555  1.00  0.00    -0.366 N 
HETATM   10  H17 UNL     1      27.663   3.596  51.185  1.00  0.00     0.161 HD
ENDROOT
BRANCH   8  11
HETATM   11  C8  UNL     1      24.594   3.542  51.406  1.00  0.00     0.034 C 
BRANCH  11  12
HETATM   12  C9  UNL     1      23.484   3.463  50.382  1.00  0.00     0.041 C 
BRANCH  12  13
HETATM   13  C10 UNL     1      22.460   2.451  50.821  1.00  0.00    -0.058 A 
HETATM   14  C11 UNL     1      22.117   1.308  50.153  1.00  0.00     0.007 A 
HETATM   15  C12 UNL     1      21.150   0.476  50.694  1.00  0.00     0.001 A 
HETATM   16  C13 UNL     1      20.524   0.770  51.886  1.00  0.00     0.000 A 
HETATM   17  C14 UNL     1      20.853   1.916  52.577  1.00  0.00     0.001 A 
HETATM   18  C15 UNL     1      21.817   2.733  52.026  1.00  0.00     0.007 A 
ENDBRANCH  12  13
ENDBRANCH  11  12
ENDBRANCH   8  11
BRANCH   1  19
HETATM   19  N1  UNL     1      24.305  -0.952  54.578  1.00  0.00    -0.365 N 
HETATM   20  H3  UNL     1      24.433  -1.538  55.454  1.00  0.00     0.162 HD
BRANCH  19  21
HETATM   21  C1  UNL     1      23.011  -0.976  53.880  1.00  0.00     0.236 C 
HETATM   22 CL1  UNL     1      21.719  -0.671  55.031  1.00  0.00    -0.109 Cl
ENDBRANCH  19  21
ENDBRANCH   1  19
TORSDOF 5
ENDMDL
MODEL 8
REMARK VINA RESULT:      -7.1      3.693      6.653
REMARK  5 active torsions:
REMARK  status: ('A' for Active; 'I' for Inactive)
REMARK    1  A    between atoms: C1_2  and  N1_3 
REMARK    2  A    between atoms: N1_3  and  C2_4 
REMARK    3  A    between atoms: C7_11  and  C8_12 
REMARK    4  A    between atoms: C8_12  and  C9_13 
REMARK    5  A    between atoms: C9_13  and  C10_14 
ROOT
HETATM    1  C2  UNL     1      26.110   5.734  49.609  1.00  0.00     0.106 C 
HETATM    2  N2  UNL     1      26.071   7.025  49.624  1.00  0.00    -0.229 NA
HETATM    3  C3  UNL     1      25.083   7.869  50.204  1.00  0.00     0.237 C 
HETATM    4  N3  UNL     1      24.057   7.556  50.922  1.00  0.00    -0.224 NA
HETATM    5  C4  UNL     1      23.639   6.258  51.326  1.00  0.00     0.130 A 
HETATM    6  C5  UNL     1      24.158   5.091  50.976  1.00  0.00    -0.005 A 
HETATM    7  C6  UNL     1      25.273   4.640  50.112  1.00  0.00     0.118 C 
HETATM    8  C7  UNL     1      23.208   4.258  51.774  1.00  0.00     0.117 A 
HETATM    9  N4  UNL     1      22.700   5.542  52.116  1.00  0.00    -0.366 N 
HETATM   10  H17 UNL     1      21.916   5.851  52.729  1.00  0.00     0.161 HD
ENDROOT
BRANCH   8  11
HETATM   11  C8  UNL     1      23.820   3.436  52.850  1.00  0.00     0.034 C 
BRANCH  11  12
HETATM   12  C9  UNL     1      23.413   1.981  52.803  1.00  0.00     0.041 C 
BRANCH  12  13
HETATM   13  C10 UNL     1      24.636   1.116  52.657  1.00  0.00    -0.058 A 
HETATM   14  C11 UNL     1      25.701   1.357  51.835  1.00  0.00     0.007 A 
HETATM   15  C12 UNL     1      26.755   0.458  51.817  1.00  0.00     0.001 A 
HETATM   16  C13 UNL     1      26.759  -0.673  52.605  1.00  0.00     0.000 A 
HETATM   17  C14 UNL     1      25.695  -0.938  53.442  1.00  0.00     0.001 A 
HETATM   18  C15 UNL     1      24.655  -0.033  53.448  1.00  0.00     0.007 A 
ENDBRANCH  12  13
ENDBRANCH  11  12
ENDBRANCH   8  11
BRANCH   1  19
HETATM   19  N1  UNL     1      27.264   5.197  48.929  1.00  0.00    -0.365 N 
HETATM   20  H3  UNL     1      27.463   4.155  48.894  1.00  0.00     0.162 HD
BRANCH  19  21
HETATM   21  C1  UNL     1      28.190   6.128  48.268  1.00  0.00     0.236 C 
HETATM   22 CL1  UNL     1      29.726   5.324  47.983  1.00  0.00    -0.109 Cl
ENDBRANCH  19  21
ENDBRANCH   1  19
TORSDOF 5
ENDMDL
MODEL 9
REMARK VINA RESULT:      -7.0      2.787      4.794
REMARK  5 active torsions:
REMARK  status: ('A' for Active; 'I' for Inactive)
REMARK    1  A    between atoms: C1_2  and  N1_3 
REMARK    2  A    between atoms: N1_3  and  C2_4 
REMARK    3  A    between atoms: C7_11  and  C8_12 
REMARK    4  A    between atoms: C8_12  and  C9_13 
REMARK    5  A    between atoms: C9_13  and  C10_14 
ROOT
HETATM    1  C2  UNL     1      21.698  -0.189  52.665  1.00  0.00     0.106 C 
HETATM    2  N2  UNL     1      20.979  -0.658  53.630  1.00  0.00    -0.229 NA
HETATM    3  C3  UNL     1      21.417  -1.270  54.837  1.00  0.00     0.237 C 
HETATM    4  N3  UNL     1      22.617  -1.417  55.292  1.00  0.00    -0.224 NA
HETATM    5  C4  UNL     1      23.836  -0.997  54.692  1.00  0.00     0.130 A 
HETATM    6  C5  UNL     1      24.007  -0.450  53.499  1.00  0.00    -0.005 A 
HETATM    7  C6  UNL     1      23.130  -0.067  52.368  1.00  0.00     0.118 C 
HETATM    8  C7  UNL     1      25.491  -0.312  53.608  1.00  0.00     0.117 A 
HETATM    9  N4  UNL     1      25.240  -0.897  54.880  1.00  0.00    -0.366 N 
HETATM   10  H17 UNL     1      25.864  -1.160  55.672  1.00  0.00     0.161 HD
ENDROOT
BRANCH   8  11
HETATM   11  C8  UNL     1      26.012   1.079  53.565  1.00  0.00     0.034 C 
BRANCH  11  12
HETATM   12  C9  UNL     1      26.741   1.411  52.283  1.00  0.00     0.041 C 
BRANCH  12  13
HETATM   13  C10 UNL     1      25.984   2.471  51.529  1.00  0.00    -0.058 A 
HETATM   14  C11 UNL     1      24.810   3.053  51.916  1.00  0.00     0.007 A 
HETATM   15  C12 UNL     1      24.237   4.020  51.105  1.00  0.00     0.001 A 
HETATM   16  C13 UNL     1      24.819   4.409  49.918  1.00  0.00     0.000 A 
HETATM   17  C14 UNL     1      26.003   3.836  49.506  1.00  0.00     0.001 A 
HETATM   18  C15 UNL     1      26.560   2.877  50.325  1.00  0.00     0.007 A 
ENDBRANCH  12  13
ENDBRANCH  11  12
ENDBRANCH   8  11
BRANCH   1  19
HETATM   19  N1  UNL     1      20.923   0.368  51.582  1.00  0.00    -0.365 N 
HETATM   20  H3  UNL     1      20.083  -0.135  51.174  1.00  0.00     0.162 HD
BRANCH  19  21
HETATM   21  C1  UNL     1      21.317   1.673  51.032  1.00  0.00     0.236 C 
HETATM   22 CL1  UNL     1      22.015   1.449  49.435  1.00  0.00    -0.109 Cl
ENDBRANCH  19  21
ENDBRANCH   1  19
TORSDOF 5
ENDMDL
