MODEL 1
REMARK VINA RESULT:      -8.1      0.000      0.000
REMARK  7 active torsions:
REMARK  status: ('A' for Active; 'I' for Inactive)
REMARK    1  A    between atoms: C2_2  and  C3_3 
REMARK    2  A    between atoms: C3_3  and  C4_4 
REMARK    3  A    between atoms: C4_4  and  C5_5 
REMARK    4  A    between atoms: C5_5  and  C6_6 
REMARK    5  A    between atoms: N2_8  and  C7_9 
REMARK    6  A    between atoms: C10_12  and  N3_13 
REMARK    7  A    between atoms: C20_26  and  N7_27 
ROOT
HETATM    1  C6  UNL     1      25.499   2.537  51.185  1.00  0.00     0.094 A 
HETATM    2  N1  UNL     1      24.256   2.094  51.011  1.00  0.00    -0.170 NA
HETATM    3  N2  UNL     1      23.919   1.259  51.951  1.00  0.00    -0.246 N 
HETATM    4  C18 UNL     1      24.969   1.151  52.767  1.00  0.00     0.163 A 
HETATM    5  N5  UNL     1      25.091   0.407  53.874  1.00  0.00    -0.222 NA
HETATM    6  C19 UNL     1      26.206   0.386  54.612  1.00  0.00     0.237 A 
HETATM    7  N6  UNL     1      27.223   1.167  54.177  1.00  0.00    -0.229 NA
HETATM    8  C20 UNL     1      27.098   1.907  53.073  1.00  0.00     0.118 A 
HETATM    9  C21 UNL     1      25.977   1.949  52.304  1.00  0.00     0.082 A 
ENDROOT
BRANCH   3  10
HETATM   10  C7  UNL     1      22.649   0.605  52.053  1.00  0.00     0.112 C 
HETATM   11  C8  UNL     1      21.766   1.289  53.073  1.00  0.00     0.029 C 
HETATM   12  C9  UNL     1      20.601   0.333  53.337  1.00  0.00     0.038 C 
HETATM   13  C10 UNL     1      19.907  -0.004  52.057  1.00  0.00     0.223 C 
HETATM   14  C16 UNL     1      20.503   0.813  50.935  1.00  0.00     0.038 C 
HETATM   15  C17 UNL     1      21.963   0.481  50.715  1.00  0.00     0.029 C 
BRANCH  13  16
HETATM   16  N3  UNL     1      18.499   0.172  52.059  1.00  0.00     0.096 N 
HETATM   17  C11 UNL     1      18.058   0.479  50.721  1.00  0.00     0.303 C 
HETATM   18  C12 UNL     1      16.669  -0.050  50.437  1.00  0.00     0.302 C 
HETATM   19  N4  UNL     1      15.802   0.179  51.577  1.00  0.00     0.087 N 
HETATM   20  C13 UNL     1      14.427  -0.078  51.282  1.00  0.00     0.310 C 
HETATM   21  C14 UNL     1      16.305  -0.519  52.723  1.00  0.00     0.302 C 
HETATM   22  C15 UNL     1      17.756  -0.936  52.607  1.00  0.00     0.303 C 
ENDBRANCH  13  16
ENDBRANCH   3  10
BRANCH   1  23
HETATM   23  C5  UNL     1      26.135   3.453  50.324  1.00  0.00     0.034 C 
BRANCH  23  24
HETATM   24  C4  UNL     1      26.491   4.223  49.366  1.00  0.00     0.002 C 
BRANCH  24  25
HETATM   25  C3  UNL     1      27.598   4.844  48.768  1.00  0.00    -0.004 C 
BRANCH  25  26
HETATM   26  C2  UNL     1      28.621   5.465  48.264  1.00  0.00    -0.031 C 
HETATM   27  C1  UNL     1      28.321   6.865  47.801  1.00  0.00     0.036 C 
ENDBRANCH  25  26
ENDBRANCH  24  25
ENDBRANCH  23  24
ENDBRANCH   1  23
BRANCH   8  28
HETATM   28  N7  UNL     1      28.161   2.716  52.628  1.00  0.00    -0.286 NA
HETATM   29  H30 UNL     1      28.673   3.595  52.514  1.00  0.00     0.125 HD
HETATM   30  H31 UNL     1      28.188   3.756  52.824  1.00  0.00     0.125 HD
ENDBRANCH   8  28
TORSDOF 7
ENDMDL
MODEL 2
REMARK VINA RESULT:      -8.0      3.734      6.135
REMARK  7 active torsions:
REMARK  status: ('A' for Active; 'I' for Inactive)
REMARK    1  A    between atoms: C2_2  and  C3_3 
REMARK    2  A    between atoms: C3_3  and  C4_4 
REMARK    3  A    between atoms: C4_4  and  C5_5 
REMARK    4  A    between atoms: C5_5  and  C6_6 
REMARK    5  A    between atoms: N2_8  and  C7_9 
REMARK    6  A    between atoms: C10_12  and  N3_13 
REMARK    7  A    between atoms: C20_26  and  N7_27 
ROOT
HETATM    1  C6  UNL     1      24.264   0.222  53.503  1.00  0.00     0.094 A 
HETATM    2  N1  UNL     1      23.916   0.977  52.464  1.00  0.00    -0.170 NA
HETATM    3  N2  UNL     1      22.638   0.887  52.225  1.00  0.00    -0.246 N 
HETATM    4  C18 UNL     1      22.134   0.050  53.132  1.00  0.00     0.163 A 
HETATM    5  N5  UNL     1      20.864  -0.349  53.282  1.00  0.00    -0.222 NA
HETATM    6  C19 UNL     1      20.482  -1.199  54.241  1.00  0.00     0.237 A 
HETATM    7  N6  UNL     1      21.459  -1.645  55.066  1.00  0.00    -0.229 NA
HETATM    8  C20 UNL     1      22.723  -1.245  54.914  1.00  0.00     0.118 A 
HETATM    9  C21 UNL     1      23.141  -0.382  53.949  1.00  0.00     0.082 A 
ENDROOT
BRANCH   3  10
HETATM   10  C7  UNL     1      21.948   1.576  51.177  1.00  0.00     0.112 C 
HETATM   11  C8  UNL     1      22.897   2.441  50.376  1.00  0.00     0.029 C 
HETATM   12  C9  UNL     1      22.020   3.363  49.527  1.00  0.00     0.038 C 
HETATM   13  C10 UNL     1      21.078   2.557  48.692  1.00  0.00     0.223 C 
HETATM   14  C16 UNL     1      21.388   1.089  48.863  1.00  0.00     0.038 C 
HETATM   15  C17 UNL     1      21.171   0.633  50.291  1.00  0.00     0.029 C 
BRANCH  13  16
HETATM   16  N3  UNL     1      21.067   2.868  47.308  1.00  0.00     0.096 N 
HETATM   17  C11 UNL     1      19.710   3.113  46.887  1.00  0.00     0.303 C 
HETATM   18  C12 UNL     1      19.628   4.133  45.773  1.00  0.00     0.302 C 
HETATM   19  N4  UNL     1      20.676   3.898  44.799  1.00  0.00     0.087 N 
HETATM   20  C13 UNL     1      20.506   4.672  43.610  1.00  0.00     0.310 C 
HETATM   21  C14 UNL     1      21.961   4.038  45.420  1.00  0.00     0.302 C 
HETATM   22  C15 UNL     1      21.930   3.961  46.932  1.00  0.00     0.303 C 
ENDBRANCH  13  16
ENDBRANCH   3  10
BRANCH   1  23
HETATM   23  C5  UNL     1      25.580   0.121  53.994  1.00  0.00     0.034 C 
BRANCH  23  24
HETATM   24  C4  UNL     1      26.734   0.304  54.518  1.00  0.00     0.002 C 
BRANCH  24  25
HETATM   25  C3  UNL     1      28.112   0.234  54.266  1.00  0.00    -0.004 C 
BRANCH  25  26
HETATM   26  C2  UNL     1      29.375   0.186  53.968  1.00  0.00    -0.031 C 
HETATM   27  C1  UNL     1      29.856  -1.178  53.553  1.00  0.00     0.036 C 
ENDBRANCH  25  26
ENDBRANCH  24  25
ENDBRANCH  23  24
ENDBRANCH   1  23
BRANCH   8  28
HETATM   28  N7  UNL     1      23.732  -1.714  55.777  1.00  0.00    -0.286 NA
HETATM   29  H30 UNL     1      24.676  -1.742  56.170  1.00  0.00     0.125 HD
HETATM   30  H31 UNL     1      24.713  -1.317  55.753  1.00  0.00     0.125 HD
ENDBRANCH   8  28
TORSDOF 7
ENDMDL
MODEL 3
REMARK VINA RESULT:      -7.8      3.605      6.662
REMARK  7 active torsions:
REMARK  status: ('A' for Active; 'I' for Inactive)
REMARK    1  A    between atoms: C2_2  and  C3_3 
REMARK    2  A    between atoms: C3_3  and  C4_4 
REMARK    3  A    between atoms: C4_4  and  C5_5 
REMARK    4  A    between atoms: C5_5  and  C6_6 
REMARK    5  A    between atoms: N2_8  and  C7_9 
REMARK    6  A    between atoms: C10_12  and  N3_13 
REMARK    7  A    between atoms: C20_26  and  N7_27 
ROOT
HETATM    1  C6  UNL     1      24.185   0.176  53.693  1.00  0.00     0.094 A 
HETATM    2  N1  UNL     1      23.979   1.068  52.726  1.00  0.00    -0.170 NA
HETATM    3  N2  UNL     1      22.722   1.112  52.388  1.00  0.00    -0.246 N 
HETATM    4  C18 UNL     1      22.085   0.225  53.155  1.00  0.00     0.163 A 
HETATM    5  N5  UNL     1      20.780  -0.079  53.167  1.00  0.00    -0.222 NA
HETATM    6  C19 UNL     1      20.259  -0.995  53.990  1.00  0.00     0.237 A 
HETATM    7  N6  UNL     1      21.131  -1.609  54.826  1.00  0.00    -0.229 NA
HETATM    8  C20 UNL     1      22.430  -1.303  54.810  1.00  0.00     0.118 A 
HETATM    9  C21 UNL     1      22.987  -0.377  53.985  1.00  0.00     0.082 A 
ENDROOT
BRANCH   3  10
HETATM   10  C7  UNL     1      22.172   1.968  51.381  1.00  0.00     0.112 C 
HETATM   11  C8  UNL     1      21.569   3.213  51.995  1.00  0.00     0.029 C 
HETATM   12  C9  UNL     1      20.735   3.869  50.893  1.00  0.00     0.038 C 
HETATM   13  C10 UNL     1      21.582   4.131  49.689  1.00  0.00     0.223 C 
HETATM   14  C16 UNL     1      23.017   3.779  50.001  1.00  0.00     0.038 C 
HETATM   15  C17 UNL     1      23.178   2.306  50.309  1.00  0.00     0.029 C 
BRANCH  13  16
HETATM   16  N3  UNL     1      21.531   5.455  49.182  1.00  0.00     0.096 N 
HETATM   17  C11 UNL     1      20.916   6.316  50.161  1.00  0.00     0.303 C 
HETATM   18  C12 UNL     1      21.465   7.725  50.116  1.00  0.00     0.302 C 
HETATM   19  N4  UNL     1      21.622   8.158  48.741  1.00  0.00     0.087 N 
HETATM   20  C13 UNL     1      21.905   9.555  48.633  1.00  0.00     0.310 C 
HETATM   21  C14 UNL     1      22.556   7.308  48.064  1.00  0.00     0.302 C 
HETATM   22  C15 UNL     1      22.804   5.984  48.755  1.00  0.00     0.303 C 
ENDBRANCH  13  16
ENDBRANCH   3  10
BRANCH   1  23
HETATM   23  C5  UNL     1      25.446  -0.090  54.261  1.00  0.00     0.034 C 
BRANCH  23  24
HETATM   24  C4  UNL     1      26.615  -0.043  54.780  1.00  0.00     0.002 C 
BRANCH  24  25
HETATM   25  C3  UNL     1      27.972   0.163  54.491  1.00  0.00    -0.004 C 
BRANCH  25  26
HETATM   26  C2  UNL     1      29.239   0.287  54.232  1.00  0.00    -0.031 C 
HETATM   27  C1  UNL     1      29.850  -0.915  53.564  1.00  0.00     0.036 C 
ENDBRANCH  25  26
ENDBRANCH  24  25
ENDBRANCH  23  24
ENDBRANCH   1  23
BRANCH   8  28
HETATM   28  N7  UNL     1      23.328  -1.947  55.683  1.00  0.00    -0.286 NA
HETATM   29  H30 UNL     1      24.228  -2.351  55.955  1.00  0.00     0.125 HD
HETATM   30  H31 UNL     1      24.325  -2.160  55.397  1.00  0.00     0.125 HD
ENDBRANCH   8  28
TORSDOF 7
ENDMDL
MODEL 4
REMARK VINA RESULT:      -7.7      1.815      4.067
REMARK  7 active torsions:
REMARK  status: ('A' for Active; 'I' for Inactive)
REMARK    1  A    between atoms: C2_2  and  C3_3 
REMARK    2  A    between atoms: C3_3  and  C4_4 
REMARK    3  A    between atoms: C4_4  and  C5_5 
REMARK    4  A    between atoms: C5_5  and  C6_6 
REMARK    5  A    between atoms: N2_8  and  C7_9 
REMARK    6  A    between atoms: C10_12  and  N3_13 
REMARK    7  A    between atoms: C20_26  and  N7_27 
ROOT
HETATM    1  C6  UNL     1      25.034   1.418  52.854  1.00  0.00     0.094 A 
HETATM    2  N1  UNL     1      23.734   1.134  52.880  1.00  0.00    -0.170 NA
HETATM    3  N2  UNL     1      23.104   1.728  51.907  1.00  0.00    -0.246 N 
HETATM    4  C18 UNL     1      24.016   2.421  51.223  1.00  0.00     0.163 A 
HETATM    5  N5  UNL     1      23.839   3.189  50.139  1.00  0.00    -0.222 NA
HETATM    6  C19 UNL     1      24.844   3.837  49.541  1.00  0.00     0.237 A 
HETATM    7  N6  UNL     1      26.070   3.676  50.093  1.00  0.00    -0.229 NA
HETATM    8  C20 UNL     1      26.242   2.911  51.173  1.00  0.00     0.118 A 
HETATM    9  C21 UNL     1      25.241   2.240  51.802  1.00  0.00     0.082 A 
ENDROOT
BRANCH   3  10
HETATM   10  C7  UNL     1      21.699   1.627  51.654  1.00  0.00     0.112 C 
HETATM   11  C8  UNL     1      21.413   0.615  50.567  1.00  0.00     0.029 C 
HETATM   12  C9  UNL     1      19.955   0.832  50.156  1.00  0.00     0.038 C 
HETATM   13  C10 UNL     1      19.059   0.717  51.347  1.00  0.00     0.223 C 
HETATM   14  C16 UNL     1      19.873   0.295  52.547  1.00  0.00     0.038 C 
HETATM   15  C17 UNL     1      20.914   1.333  52.909  1.00  0.00     0.029 C 
BRANCH  13  16
HETATM   16  N3  UNL     1      17.959  -0.167  51.202  1.00  0.00     0.096 N 
HETATM   17  C11 UNL     1      17.788  -0.915  52.422  1.00  0.00     0.303 C 
HETATM   18  C12 UNL     1      16.339  -1.261  52.688  1.00  0.00     0.302 C 
HETATM   19  N4  UNL     1      15.691  -1.683  51.461  1.00  0.00     0.087 N 
HETATM   20  C13 UNL     1      14.398  -2.248  51.688  1.00  0.00     0.310 C 
HETATM   21  C14 UNL     1      15.713  -0.616  50.504  1.00  0.00     0.302 C 
HETATM   22  C15 UNL     1      16.726   0.468  50.808  1.00  0.00     0.303 C 
ENDBRANCH  13  16
ENDBRANCH   3  10
BRANCH   1  23
HETATM   23  C5  UNL     1      25.966   0.916  53.784  1.00  0.00     0.034 C 
BRANCH  23  24
HETATM   24  C4  UNL     1      27.006   0.566  54.442  1.00  0.00     0.002 C 
BRANCH  24  25
HETATM   25  C3  UNL     1      28.285   0.004  54.317  1.00  0.00    -0.004 C 
BRANCH  25  26
HETATM   26  C2  UNL     1      29.463  -0.512  54.134  1.00  0.00    -0.031 C 
HETATM   27  C1  UNL     1      29.460  -1.776  53.318  1.00  0.00     0.036 C 
ENDBRANCH  25  26
ENDBRANCH  24  25
ENDBRANCH  23  24
ENDBRANCH   1  23
BRANCH   8  28
HETATM   28  N7  UNL     1      27.521   2.750  51.740  1.00  0.00    -0.286 NA
HETATM   29  H30 UNL     1      28.309   3.010  52.340  1.00  0.00     0.125 HD
HETATM   30  H31 UNL     1      27.913   3.447  52.435  1.00  0.00     0.125 HD
ENDBRANCH   8  28
TORSDOF 7
ENDMDL
MODEL 5
REMARK VINA RESULT:      -7.7      3.069      8.689
REMARK  7 active torsions:
REMARK  status: ('A' for Active; 'I' for Inactive)
REMARK    1  A    between atoms: C2_2  and  C3_3 
REMARK    2  A    between atoms: C3_3  and  C4_4 
REMARK    3  A    between atoms: C4_4  and  C5_5 
REMARK    4  A    between atoms: C5_5  and  C6_6 
REMARK    5  A    between atoms: N2_8  and  C7_9 
REMARK    6  A    between atoms: C10_12  and  N3_13 
REMARK    7  A    between atoms: C20_26  and  N7_27 
ROOT
HETATM    1  C6  UNL     1      24.958   0.818  52.269  1.00  0.00     0.094 A 
HETATM    2  N1  UNL     1      25.389   1.763  51.437  1.00  0.00    -0.170 NA
HETATM    3  N2  UNL     1      24.423   2.570  51.102  1.00  0.00    -0.246 N 
HETATM    4  C18 UNL     1      23.328   2.144  51.732  1.00  0.00     0.163 A 
HETATM    5  N5  UNL     1      22.092   2.659  51.695  1.00  0.00    -0.222 NA
HETATM    6  C19 UNL     1      21.069   2.134  52.378  1.00  0.00     0.237 A 
HETATM    7  N6  UNL     1      21.350   1.039  53.124  1.00  0.00    -0.229 NA
HETATM    8  C20 UNL     1      22.583   0.529  53.158  1.00  0.00     0.118 A 
HETATM    9  C21 UNL     1      23.641   1.040  52.474  1.00  0.00     0.082 A 
ENDROOT
BRANCH   3  10
HETATM   10  C7  UNL     1      24.557   3.692  50.222  1.00  0.00     0.112 C 
HETATM   11  C8  UNL     1      24.497   4.995  50.989  1.00  0.00     0.029 C 
HETATM   12  C9  UNL     1      24.313   6.096  49.943  1.00  0.00     0.038 C 
HETATM   13  C10 UNL     1      25.410   6.035  48.929  1.00  0.00     0.223 C 
HETATM   14  C16 UNL     1      26.415   4.986  49.341  1.00  0.00     0.038 C 
HETATM   15  C17 UNL     1      25.800   3.603  49.371  1.00  0.00     0.029 C 
BRANCH  13  16
HETATM   16  N3  UNL     1      26.090   7.257  48.689  1.00  0.00     0.096 N 
HETATM   17  C11 UNL     1      25.955   8.110  49.844  1.00  0.00     0.303 C 
HETATM   18  C12 UNL     1      27.161   9.001  50.046  1.00  0.00     0.302 C 
HETATM   19  N4  UNL     1      27.607   9.538  48.775  1.00  0.00     0.087 N 
HETATM   20  C13 UNL     1      28.585  10.569  48.926  1.00  0.00     0.310 C 
HETATM   21  C14 UNL     1      28.000   8.469  47.904  1.00  0.00     0.302 C 
HETATM   22  C15 UNL     1      27.475   7.110  48.315  1.00  0.00     0.303 C 
ENDBRANCH  13  16
ENDBRANCH   3  10
BRANCH   1  23
HETATM   23  C5  UNL     1      25.780  -0.194  52.801  1.00  0.00     0.034 C 
BRANCH  23  24
HETATM   24  C4  UNL     1      26.658  -1.099  53.026  1.00  0.00     0.002 C 
BRANCH  24  25
HETATM   25  C3  UNL     1      28.032  -1.322  53.190  1.00  0.00    -0.004 C 
BRANCH  25  26
HETATM   26  C2  UNL     1      29.312  -1.464  53.359  1.00  0.00    -0.031 C 
HETATM   27  C1  UNL     1      30.057  -0.167  53.526  1.00  0.00     0.036 C 
ENDBRANCH  25  26
ENDBRANCH  24  25
ENDBRANCH  23  24
ENDBRANCH   1  23
BRANCH   8  28
HETATM   28  N7  UNL     1      22.865  -0.611  53.936  1.00  0.00    -0.286 NA
HETATM   29  H30 UNL     1      23.136  -1.107  54.789  1.00  0.00     0.125 HD
HETATM   30  H31 UNL     1      23.153  -0.533  54.953  1.00  0.00     0.125 HD
ENDBRANCH   8  28
TORSDOF 7
ENDMDL
MODEL 6
REMARK VINA RESULT:      -7.7      4.124     10.352
REMARK  7 active torsions:
REMARK  status: ('A' for Active; 'I' for Inactive)
REMARK    1  A    between atoms: C2_2  and  C3_3 
REMARK    2  A    between atoms: C3_3  and  C4_4 
REMARK    3  A    between atoms: C4_4  and  C5_5 
REMARK    4  A    between atoms: C5_5  and  C6_6 
REMARK    5  A    between atoms: N2_8  and  C7_9 
REMARK    6  A    between atoms: C10_12  and  N3_13 
REMARK    7  A    between atoms: C20_26  and  N7_27 
ROOT
HETATM    1  C6  UNL     1      26.062   2.414  50.930  1.00  0.00     0.094 A 
HETATM    2  N1  UNL     1      26.827   3.291  50.283  1.00  0.00    -0.170 NA
HETATM    3  N2  UNL     1      26.105   4.107  49.570  1.00  0.00    -0.246 N 
HETATM    4  C18 UNL     1      24.831   3.756  49.753  1.00  0.00     0.163 A 
HETATM    5  N5  UNL     1      23.731   4.308  49.223  1.00  0.00    -0.222 NA
HETATM    6  C19 UNL     1      22.499   3.861  49.488  1.00  0.00     0.237 A 
HETATM    7  N6  UNL     1      22.417   2.805  50.332  1.00  0.00    -0.229 NA
HETATM    8  C20 UNL     1      23.515   2.258  50.857  1.00  0.00     0.118 A 
HETATM    9  C21 UNL     1      24.780   2.691  50.607  1.00  0.00     0.082 A 
ENDROOT
BRANCH   3  10
HETATM   10  C7  UNL     1      26.623   5.167  48.759  1.00  0.00     0.112 C 
HETATM   11  C8  UNL     1      26.392   6.513  49.410  1.00  0.00     0.029 C 
HETATM   12  C9  UNL     1      26.670   7.561  48.331  1.00  0.00     0.038 C 
HETATM   13  C10 UNL     1      28.047   7.381  47.777  1.00  0.00     0.223 C 
HETATM   14  C16 UNL     1      28.762   6.301  48.554  1.00  0.00     0.038 C 
HETATM   15  C17 UNL     1      28.076   4.959  48.409  1.00  0.00     0.029 C 
BRANCH  13  16
HETATM   16  N3  UNL     1      28.856   8.546  47.755  1.00  0.00     0.096 N 
HETATM   17  C11 UNL     1      28.049   9.690  48.101  1.00  0.00     0.303 C 
HETATM   18  C12 UNL     1      28.840  10.752  48.833  1.00  0.00     0.302 C 
HETATM   19  N4  UNL     1      30.143  10.920  48.219  1.00  0.00     0.087 N 
HETATM   20  C13 UNL     1      30.839  12.067  48.711  1.00  0.00     0.310 C 
HETATM   21  C14 UNL     1      30.884   9.696  48.300  1.00  0.00     0.302 C 
HETATM   22  C15 UNL     1      30.034   8.474  48.583  1.00  0.00     0.303 C 
ENDBRANCH  13  16
ENDBRANCH   3  10
BRANCH   1  23
HETATM   23  C5  UNL     1      26.565   1.409  51.779  1.00  0.00     0.034 C 
BRANCH  23  24
HETATM   24  C4  UNL     1      26.790   0.350  52.462  1.00  0.00     0.002 C 
BRANCH  24  25
HETATM   25  C3  UNL     1      27.794  -0.546  52.858  1.00  0.00    -0.004 C 
BRANCH  25  26
HETATM   26  C2  UNL     1      28.675  -1.415  53.251  1.00  0.00    -0.031 C 
HETATM   27  C1  UNL     1      29.981  -0.809  53.691  1.00  0.00     0.036 C 
ENDBRANCH  25  26
ENDBRANCH  24  25
ENDBRANCH  23  24
ENDBRANCH   1  23
BRANCH   8  28
HETATM   28  N7  UNL     1      23.420   1.160  51.734  1.00  0.00    -0.286 NA
HETATM   29  H30 UNL     1      23.408   0.703  52.649  1.00  0.00     0.125 HD
HETATM   30  H31 UNL     1      23.489   1.279  52.784  1.00  0.00     0.125 HD
ENDBRANCH   8  28
TORSDOF 7
ENDMDL
MODEL 7
REMARK VINA RESULT:      -7.5      2.890      4.140
REMARK  7 active torsions:
REMARK  status: ('A' for Active; 'I' for Inactive)
REMARK    1  A    between atoms: C2_2  and  C3_3 
REMARK    2  A    between atoms: C3_3  and  C4_4 
REMARK    3  A    between atoms: C4_4  and  C5_5 
REMARK    4  A    between atoms: C5_5  and  C6_6 
REMARK    5  A    between atoms: N2_8  and  C7_9 
REMARK    6  A    between atoms: C10_12  and  N3_13 
REMARK    7  A    between atoms: C20_26  and  N7_27 
ROOT
HETATM    1  C6  UNL     1      24.112   0.378  53.116  1.00  0.00     0.094 A 
HETATM    2  N1  UNL     1      23.031  -0.340  52.818  1.00  0.00    -0.170 NA
HETATM    3  N2  UNL     1      22.048   0.427  52.440  1.00  0.00    -0.246 N 
HETATM    4  C18 UNL     1      22.496   1.682  52.491  1.00  0.00     0.163 A 
HETATM    5  N5  UNL     1      21.842   2.812  52.192  1.00  0.00    -0.222 NA
HETATM    6  C19 UNL     1      22.407   4.021  52.284  1.00  0.00     0.237 A 
HETATM    7  N6  UNL     1      23.695   4.046  52.701  1.00  0.00    -0.229 NA
HETATM    8  C20 UNL     1      24.344   2.917  52.999  1.00  0.00     0.118 A 
HETATM    9  C21 UNL     1      23.795   1.676  52.914  1.00  0.00     0.082 A 
ENDROOT
BRANCH   3  10
HETATM   10  C7  UNL     1      20.750  -0.034  52.051  1.00  0.00     0.112 C 
HETATM   11  C8  UNL     1      19.753   0.130  53.177  1.00  0.00     0.029 C 
HETATM   12  C9  UNL     1      18.521  -0.683  52.778  1.00  0.00     0.038 C 
HETATM   13  C10 UNL     1      18.014  -0.235  51.445  1.00  0.00     0.223 C 
HETATM   14  C16 UNL     1      18.809   0.965  50.985  1.00  0.00     0.038 C 
HETATM   15  C17 UNL     1      20.269   0.624  50.781  1.00  0.00     0.029 C 
BRANCH  13  16
HETATM   16  N3  UNL     1      16.632   0.078  51.389  1.00  0.00     0.096 N 
HETATM   17  C11 UNL     1      15.968  -0.502  52.530  1.00  0.00     0.303 C 
HETATM   18  C12 UNL     1      14.791   0.327  52.995  1.00  0.00     0.302 C 
HETATM   19  N4  UNL     1      14.031   0.803  51.856  1.00  0.00     0.087 N 
HETATM   20  C13 UNL     1      12.781   1.385  52.234  1.00  0.00     0.310 C 
HETATM   21  C14 UNL     1      14.853   1.642  51.035  1.00  0.00     0.302 C 
HETATM   22  C15 UNL     1      16.339   1.486  51.283  1.00  0.00     0.303 C 
ENDBRANCH  13  16
ENDBRANCH   3  10
BRANCH   1  23
HETATM   23  C5  UNL     1      25.329  -0.180  53.553  1.00  0.00     0.034 C 
BRANCH  23  24
HETATM   24  C4  UNL     1      26.491  -0.417  54.035  1.00  0.00     0.002 C 
BRANCH  24  25
HETATM   25  C3  UNL     1      27.843  -0.054  53.952  1.00  0.00    -0.004 C 
BRANCH  25  26
HETATM   26  C2  UNL     1      29.110   0.230  53.914  1.00  0.00    -0.031 C 
HETATM   27  C1  UNL     1      29.996  -0.952  53.628  1.00  0.00     0.036 C 
ENDBRANCH  25  26
ENDBRANCH  24  25
ENDBRANCH  23  24
ENDBRANCH   1  23
BRANCH   8  28
HETATM   28  N7  UNL     1      25.683   2.954  53.432  1.00  0.00    -0.286 NA
HETATM   29  H30 UNL     1      26.695   3.049  53.310  1.00  0.00     0.125 HD
HETATM   30  H31 UNL     1      26.482   3.117  52.756  1.00  0.00     0.125 HD
ENDBRANCH   8  28
TORSDOF 7
ENDMDL
MODEL 8
REMARK VINA RESULT:      -7.2      3.380      6.041
REMARK  7 active torsions:
REMARK  status: ('A' for Active; 'I' for Inactive)
REMARK    1  A    between atoms: C2_2  and  C3_3 
REMARK    2  A    between atoms: C3_3  and  C4_4 
REMARK    3  A    between atoms: C4_4  and  C5_5 
REMARK    4  A    between atoms: C5_5  and  C6_6 
REMARK    5  A    between atoms: N2_8  and  C7_9 
REMARK    6  A    between atoms: C10_12  and  N3_13 
REMARK    7  A    between atoms: C20_26  and  N7_27 
ROOT
HETATM    1  C6  UNL     1      27.392   5.702  48.509  1.00  0.00     0.094 A 
HETATM    2  N1  UNL     1      26.624   4.834  49.164  1.00  0.00    -0.170 NA
HETATM    3  N2  UNL     1      25.396   5.261  49.244  1.00  0.00    -0.246 N 
HETATM    4  C18 UNL     1      25.356   6.442  48.624  1.00  0.00     0.163 A 
HETATM    5  N5  UNL     1      24.307   7.256  48.451  1.00  0.00    -0.222 NA
HETATM    6  C19 UNL     1      24.397   8.424  47.805  1.00  0.00     0.237 A 
HETATM    7  N6  UNL     1      25.622   8.747  47.326  1.00  0.00    -0.229 NA
HETATM    8  C20 UNL     1      26.665   7.932  47.501  1.00  0.00     0.118 A 
HETATM    9  C21 UNL     1      26.603   6.740  48.152  1.00  0.00     0.082 A 
ENDROOT
BRANCH   3  10
HETATM   10  C7  UNL     1      24.323   4.562  49.883  1.00  0.00     0.112 C 
HETATM   11  C8  UNL     1      24.540   3.065  49.828  1.00  0.00     0.029 C 
HETATM   12  C9  UNL     1      23.208   2.427  50.227  1.00  0.00     0.038 C 
HETATM   13  C10 UNL     1      22.772   2.932  51.565  1.00  0.00     0.223 C 
HETATM   14  C16 UNL     1      23.855   3.810  52.146  1.00  0.00     0.038 C 
HETATM   15  C17 UNL     1      24.093   5.040  51.296  1.00  0.00     0.029 C 
BRANCH  13  16
HETATM   16  N3  UNL     1      22.430   1.933  52.514  1.00  0.00     0.096 N 
HETATM   17  C11 UNL     1      21.035   1.599  52.368  1.00  0.00     0.303 C 
HETATM   18  C12 UNL     1      20.751   0.152  52.704  1.00  0.00     0.302 C 
HETATM   19  N4  UNL     1      21.489  -0.242  53.888  1.00  0.00     0.087 N 
HETATM   20  C13 UNL     1      21.080  -1.516  54.392  1.00  0.00     0.310 C 
HETATM   21  C14 UNL     1      22.897  -0.122  53.649  1.00  0.00     0.302 C 
HETATM   22  C15 UNL     1      23.252   0.750  52.463  1.00  0.00     0.303 C 
ENDBRANCH  13  16
ENDBRANCH   3  10
BRANCH   1  23
HETATM   23  C5  UNL     1      28.766   5.509  48.267  1.00  0.00     0.034 C 
BRANCH  23  24
HETATM   24  C4  UNL     1      30.037   5.603  48.146  1.00  0.00     0.002 C 
BRANCH  24  25
HETATM   25  C3  UNL     1      31.164   4.998  47.571  1.00  0.00    -0.004 C 
BRANCH  25  26
HETATM   26  C2  UNL     1      32.167   4.405  46.998  1.00  0.00    -0.031 C 
HETATM   27  C1  UNL     1      31.885   2.986  46.582  1.00  0.00     0.036 C 
ENDBRANCH  25  26
ENDBRANCH  24  25
ENDBRANCH  23  24
ENDBRANCH   1  23
BRANCH   8  28
HETATM   28  N7  UNL     1      27.935   8.277  46.999  1.00  0.00    -0.286 NA
HETATM   29  H30 UNL     1      28.900   8.092  46.711  1.00  0.00     0.125 HD
HETATM   30  H31 UNL     1      28.704   7.557  46.890  1.00  0.00     0.125 HD
ENDBRANCH   8  28
TORSDOF 7
ENDMDL
MODEL 9
REMARK VINA RESULT:      -6.8      3.797     10.519
REMARK  7 active torsions:
REMARK  status: ('A' for Active; 'I' for Inactive)
REMARK    1  A    between atoms: C2_2  and  C3_3 
REMARK    2  A    between atoms: C3_3  and  C4_4 
REMARK    3  A    between atoms: C4_4  and  C5_5 
REMARK    4  A    between atoms: C5_5  and  C6_6 
REMARK    5  A    between atoms: N2_8  and  C7_9 
REMARK    6  A    between atoms: C10_12  and  N3_13 
REMARK    7  A    between atoms: C20_26  and  N7_27 
ROOT
HETATM    1  C6  UNL     1      23.882   3.191  50.885  1.00  0.00     0.094 A 
HETATM    2  N1  UNL     1      24.550   4.340  50.803  1.00  0.00    -0.170 NA
HETATM    3  N2  UNL     1      24.260   4.974  49.703  1.00  0.00    -0.246 N 
HETATM    4  C18 UNL     1      23.377   4.221  49.045  1.00  0.00     0.163 A 
HETATM    5  N5  UNL     1      22.792   4.465  47.864  1.00  0.00    -0.222 NA
HETATM    6  C19 UNL     1      21.915   3.624  47.305  1.00  0.00     0.237 A 
HETATM    7  N6  UNL     1      21.644   2.495  48.003  1.00  0.00    -0.229 NA
HETATM    8  C20 UNL     1      22.229   2.256  49.179  1.00  0.00     0.118 A 
HETATM    9  C21 UNL     1      23.124   3.093  49.771  1.00  0.00     0.082 A 
ENDROOT
BRANCH   3  10
HETATM   10  C7  UNL     1      24.808   6.238  49.315  1.00  0.00     0.112 C 
HETATM   11  C8  UNL     1      25.107   7.096  50.525  1.00  0.00     0.029 C 
HETATM   12  C9  UNL     1      25.361   8.508  49.993  1.00  0.00     0.038 C 
HETATM   13  C10 UNL     1      26.454   8.489  48.974  1.00  0.00     0.223 C 
HETATM   14  C16 UNL     1      27.041   7.100  48.895  1.00  0.00     0.038 C 
HETATM   15  C17 UNL     1      26.018   6.087  48.426  1.00  0.00     0.029 C 
BRANCH  13  16
HETATM   16  N3  UNL     1      27.502   9.422  49.183  1.00  0.00     0.096 N 
HETATM   17  C11 UNL     1      28.770   8.761  48.998  1.00  0.00     0.303 C 
HETATM   18  C12 UNL     1      29.829   9.689  48.446  1.00  0.00     0.302 C 
HETATM   19  N4  UNL     1      29.754  10.981  49.100  1.00  0.00     0.087 N 
HETATM   20  C13 UNL     1      30.873  11.817  48.797  1.00  0.00     0.310 C 
HETATM   21  C14 UNL     1      28.478  11.583  48.850  1.00  0.00     0.302 C 
HETATM   22  C15 UNL     1      27.417  10.612  48.374  1.00  0.00     0.303 C 
ENDBRANCH  13  16
ENDBRANCH   3  10
BRANCH   1  23
HETATM   23  C5  UNL     1      23.992   2.294  51.965  1.00  0.00     0.034 C 
BRANCH  23  24
HETATM   24  C4  UNL     1      24.024   1.281  52.747  1.00  0.00     0.002 C 
BRANCH  24  25
HETATM   25  C3  UNL     1      23.274   0.192  53.215  1.00  0.00    -0.004 C 
BRANCH  25  26
HETATM   26  C2  UNL     1      22.632  -0.833  53.687  1.00  0.00    -0.031 C 
HETATM   27  C1  UNL     1      21.607  -0.487  54.734  1.00  0.00     0.036 C 
ENDBRANCH  25  26
ENDBRANCH  24  25
ENDBRANCH  23  24
ENDBRANCH   1  23
BRANCH   8  28
HETATM   28  N7  UNL     1      21.941   1.080  49.897  1.00  0.00    -0.286 NA
HETATM   29  H30 UNL     1      22.155   0.301  50.525  1.00  0.00     0.125 HD
HETATM   30  H31 UNL     1      22.668   0.607  50.504  1.00  0.00     0.125 HD
ENDBRANCH   8  28
TORSDOF 7
ENDMDL
