MODEL 1
REMARK VINA RESULT:      -7.3      0.000      0.000
REMARK  5 active torsions:
REMARK  status: ('A' for Active; 'I' for Inactive)
REMARK    1  A    between atoms: C2_2  and  O1_4 
REMARK    2  A    between atoms: O1_4  and  C4_5 
REMARK    3  A    between atoms: C4_5  and  C9_12 
REMARK    4  A    between atoms: N1_15  and  C12_16 
REMARK    5  A    between atoms: C15_19  and  C16_20 
ROOT
HETATM    1  C9  UNL     1      24.692   2.881  52.318  1.00  0.00     0.066 C 
HETATM    2  C10 UNL     1      25.309   1.829  51.410  1.00  0.00     0.035 C 
HETATM    3  C11 UNL     1      26.812   2.100  51.532  1.00  0.00     0.149 C 
HETATM    4  N1  UNL     1      27.135   1.710  52.891  1.00  0.00    -0.303 N 
HETATM    5  N2  UNL     1      26.432   2.269  53.944  1.00  0.00    -0.334 N 
HETATM    6  C17 UNL     1      25.091   2.633  53.726  1.00  0.00     0.151 C 
HETATM    7  H22 UNL     1      26.670   1.898  54.865  1.00  0.00     0.180 HD
ENDROOT
BRANCH   1   8
HETATM    8  C4  UNL     1      23.249   3.007  52.109  1.00  0.00     0.084 C 
HETATM    9  C5  UNL     1      22.683   3.863  51.279  1.00  0.00     0.099 C 
HETATM   10  C6  UNL     1      23.182   4.919  50.334  1.00  0.00     0.234 C 
HETATM   11  O3  UNL     1      21.295   3.834  51.216  1.00  0.00    -0.349 OA
HETATM   12  O2  UNL     1      22.645   6.114  50.818  1.00  0.00    -0.383 OA
HETATM   13  C7  UNL     1      21.271   6.202  50.615  1.00  0.00     0.194 C 
HETATM   14  C8  UNL     1      20.675   4.808  50.396  1.00  0.00     0.201 C 
BRANCH   8  15
HETATM   15  O1  UNL     1      22.624   2.072  52.935  1.00  0.00    -0.348 OA
BRANCH  15  16
HETATM   16  C2  UNL     1      22.104   0.847  52.503  1.00  0.00     0.120 C 
HETATM   17  C1  UNL     1      20.611   0.699  52.741  1.00  0.00     0.040 C 
HETATM   18  C3  UNL     1      22.780  -0.340  53.171  1.00  0.00     0.040 C 
ENDBRANCH  15  16
ENDBRANCH   8  15
ENDBRANCH   1   8
BRANCH   4  19
HETATM   19  C12 UNL     1      28.141   0.779  53.195  1.00  0.00     0.022 A 
HETATM   20  C13 UNL     1      28.511  -0.463  53.204  1.00  0.00     0.019 A 
HETATM   21  C14 UNL     1      29.177  -1.753  53.330  1.00  0.00     0.012 A 
HETATM   22  C16 UNL     1      29.522   0.411  53.686  1.00  0.00     0.054 A 
HETATM   23  C15 UNL     1      30.123  -0.963  53.801  1.00  0.00     0.017 A 
ENDBRANCH   4  19
TORSDOF 5
ENDMDL
MODEL 2
REMARK VINA RESULT:      -7.2      2.143      3.813
REMARK  5 active torsions:
REMARK  status: ('A' for Active; 'I' for Inactive)
REMARK    1  A    between atoms: C2_2  and  O1_4 
REMARK    2  A    between atoms: O1_4  and  C4_5 
REMARK    3  A    between atoms: C4_5  and  C9_12 
REMARK    4  A    between atoms: N1_15  and  C12_16 
REMARK    5  A    between atoms: C15_19  and  C16_20 
ROOT
HETATM    1  C9  UNL     1      23.496   0.834  52.842  1.00  0.00     0.066 C 
HETATM    2  C10 UNL     1      24.679   1.471  52.127  1.00  0.00     0.035 C 
HETATM    3  C11 UNL     1      25.692   1.690  53.256  1.00  0.00     0.149 C 
HETATM    4  N1  UNL     1      26.108   0.350  53.626  1.00  0.00    -0.303 N 
HETATM    5  N2  UNL     1      25.152  -0.585  53.978  1.00  0.00    -0.334 N 
HETATM    6  C17 UNL     1      23.883  -0.496  53.377  1.00  0.00     0.151 C 
HETATM    7  H22 UNL     1      25.514  -1.522  54.162  1.00  0.00     0.180 HD
ENDROOT
BRANCH   1   8
HETATM    8  C4  UNL     1      22.292   0.826  52.009  1.00  0.00     0.084 C 
HETATM    9  C5  UNL     1      21.065   0.659  52.467  1.00  0.00     0.099 C 
HETATM   10  C6  UNL     1      20.455   0.436  53.822  1.00  0.00     0.234 C 
HETATM   11  O3  UNL     1      20.048   0.681  51.522  1.00  0.00    -0.349 OA
HETATM   12  O2  UNL     1      19.840  -0.815  53.734  1.00  0.00    -0.383 OA
HETATM   13  C7  UNL     1      18.704  -0.795  52.929  1.00  0.00     0.194 C 
HETATM   14  C8  UNL     1      18.738   0.414  51.990  1.00  0.00     0.201 C 
BRANCH   8  15
HETATM   15  O1  UNL     1      22.696   1.026  50.689  1.00  0.00    -0.348 OA
BRANCH  15  16
HETATM   16  C2  UNL     1      22.110   1.936  49.804  1.00  0.00     0.120 C 
HETATM   17  C1  UNL     1      21.558   1.295  48.543  1.00  0.00     0.040 C 
HETATM   18  C3  UNL     1      23.077   3.023  49.362  1.00  0.00     0.040 C 
ENDBRANCH  15  16
ENDBRANCH   8  15
ENDBRANCH   1   8
BRANCH   4  19
HETATM   19  C12 UNL     1      27.454  -0.048  53.643  1.00  0.00     0.022 A 
HETATM   20  C13 UNL     1      28.314  -0.995  53.435  1.00  0.00     0.019 A 
HETATM   21  C14 UNL     1      29.479  -1.858  53.286  1.00  0.00     0.012 A 
HETATM   22  C16 UNL     1      28.927   0.215  53.856  1.00  0.00     0.054 A 
HETATM   23  C15 UNL     1      30.068  -0.751  53.697  1.00  0.00     0.017 A 
ENDBRANCH   4  19
TORSDOF 5
ENDMDL
MODEL 3
REMARK VINA RESULT:      -7.2      1.265      3.374
REMARK  5 active torsions:
REMARK  status: ('A' for Active; 'I' for Inactive)
REMARK    1  A    between atoms: C2_2  and  O1_4 
REMARK    2  A    between atoms: O1_4  and  C4_5 
REMARK    3  A    between atoms: C4_5  and  C9_12 
REMARK    4  A    between atoms: N1_15  and  C12_16 
REMARK    5  A    between atoms: C15_19  and  C16_20 
ROOT
HETATM    1  C9  UNL     1      24.699   3.000  52.268  1.00  0.00     0.066 C 
HETATM    2  C10 UNL     1      25.276   1.905  51.384  1.00  0.00     0.035 C 
HETATM    3  C11 UNL     1      26.788   2.134  51.486  1.00  0.00     0.149 C 
HETATM    4  N1  UNL     1      27.112   1.772  52.852  1.00  0.00    -0.303 N 
HETATM    5  N2  UNL     1      26.436   2.380  53.895  1.00  0.00    -0.334 N 
HETATM    6  C17 UNL     1      25.104   2.778  53.679  1.00  0.00     0.151 C 
HETATM    7  H22 UNL     1      26.671   2.028  54.824  1.00  0.00     0.180 HD
ENDROOT
BRANCH   1   8
HETATM    8  C4  UNL     1      23.259   3.163  52.069  1.00  0.00     0.084 C 
HETATM    9  C5  UNL     1      22.349   2.269  52.411  1.00  0.00     0.099 C 
HETATM   10  C6  UNL     1      22.378   0.910  53.051  1.00  0.00     0.234 C 
HETATM   11  O3  UNL     1      21.027   2.603  52.142  1.00  0.00    -0.349 OA
HETATM   12  O2  UNL     1      21.843   0.051  52.087  1.00  0.00    -0.383 OA
HETATM   13  C7  UNL     1      20.474   0.234  51.912  1.00  0.00     0.194 C 
HETATM   14  C8  UNL     1      20.052   1.615  52.423  1.00  0.00     0.201 C 
BRANCH   8  15
HETATM   15  O1  UNL     1      23.057   4.407  51.470  1.00  0.00    -0.348 OA
BRANCH  15  16
HETATM   16  C2  UNL     1      24.047   5.149  50.818  1.00  0.00     0.120 C 
HETATM   17  C1  UNL     1      24.083   6.611  51.224  1.00  0.00     0.040 C 
HETATM   18  C3  UNL     1      23.900   5.112  49.305  1.00  0.00     0.040 C 
ENDBRANCH  15  16
ENDBRANCH   8  15
ENDBRANCH   1   8
BRANCH   4  19
HETATM   19  C12 UNL     1      28.092   0.820  53.173  1.00  0.00     0.022 A 
HETATM   20  C13 UNL     1      28.439  -0.429  53.181  1.00  0.00     0.019 A 
HETATM   21  C14 UNL     1      29.077  -1.733  53.312  1.00  0.00     0.012 A 
HETATM   22  C16 UNL     1      29.454   0.421  53.695  1.00  0.00     0.054 A 
HETATM   23  C15 UNL     1      30.026  -0.965  53.812  1.00  0.00     0.017 A 
ENDBRANCH   4  19
TORSDOF 5
ENDMDL
MODEL 4
REMARK VINA RESULT:      -7.1      3.473      7.725
REMARK  5 active torsions:
REMARK  status: ('A' for Active; 'I' for Inactive)
REMARK    1  A    between atoms: C2_2  and  O1_4 
REMARK    2  A    between atoms: O1_4  and  C4_5 
REMARK    3  A    between atoms: C4_5  and  C9_12 
REMARK    4  A    between atoms: N1_15  and  C12_16 
REMARK    5  A    between atoms: C15_19  and  C16_20 
ROOT
HETATM    1  C9  UNL     1      22.670   0.235  53.400  1.00  0.00     0.066 C 
HETATM    2  C10 UNL     1      22.364  -1.254  53.470  1.00  0.00     0.035 C 
HETATM    3  C11 UNL     1      21.160  -1.319  54.416  1.00  0.00     0.149 C 
HETATM    4  N1  UNL     1      20.080  -0.712  53.660  1.00  0.00    -0.303 N 
HETATM    5  N2  UNL     1      20.246   0.558  53.138  1.00  0.00    -0.334 N 
HETATM    6  C17 UNL     1      21.541   0.955  52.758  1.00  0.00     0.151 C 
HETATM    7  H22 UNL     1      19.471   0.892  52.565  1.00  0.00     0.180 HD
ENDROOT
BRANCH   1   8
HETATM    8  C4  UNL     1      23.978   0.498  52.798  1.00  0.00     0.084 C 
HETATM    9  C5  UNL     1      25.121   0.012  53.247  1.00  0.00     0.099 C 
HETATM   10  C6  UNL     1      25.525  -0.878  54.388  1.00  0.00     0.234 C 
HETATM   11  O3  UNL     1      26.262   0.373  52.542  1.00  0.00    -0.349 OA
HETATM   12  O2  UNL     1      26.360  -0.086  55.180  1.00  0.00    -0.383 OA
HETATM   13  C7  UNL     1      27.593   0.156  54.579  1.00  0.00     0.194 C 
HETATM   14  C8  UNL     1      27.501  -0.069  53.067  1.00  0.00     0.201 C 
BRANCH   8  15
HETATM   15  O1  UNL     1      23.773   1.331  51.698  1.00  0.00    -0.348 OA
BRANCH  15  16
HETATM   16  C2  UNL     1      24.395   2.568  51.506  1.00  0.00     0.120 C 
HETATM   17  C1  UNL     1      23.969   3.629  52.506  1.00  0.00     0.040 C 
HETATM   18  C3  UNL     1      24.143   3.137  50.120  1.00  0.00     0.040 C 
ENDBRANCH  15  16
ENDBRANCH   8  15
ENDBRANCH   1   8
BRANCH   4  19
HETATM   19  C12 UNL     1      18.858  -1.362  53.430  1.00  0.00     0.022 A 
HETATM   20  C13 UNL     1      18.154  -2.442  53.563  1.00  0.00     0.019 A 
HETATM   21  C14 UNL     1      17.154  -3.502  53.572  1.00  0.00     0.012 A 
HETATM   22  C16 UNL     1      17.434  -1.398  52.922  1.00  0.00     0.054 A 
HETATM   23  C15 UNL     1      16.474  -2.554  52.956  1.00  0.00     0.017 A 
ENDBRANCH   4  19
TORSDOF 5
ENDMDL
MODEL 5
REMARK VINA RESULT:      -7.1      2.813      6.504
REMARK  5 active torsions:
REMARK  status: ('A' for Active; 'I' for Inactive)
REMARK    1  A    between atoms: C2_2  and  O1_4 
REMARK    2  A    between atoms: O1_4  and  C4_5 
REMARK    3  A    between atoms: C4_5  and  C9_12 
REMARK    4  A    between atoms: N1_15  and  C12_16 
REMARK    5  A    between atoms: C15_19  and  C16_20 
ROOT
HETATM    1  C9  UNL     1      24.669   1.961  52.506  1.00  0.00     0.066 C 
HETATM    2  C10 UNL     1      25.364   2.413  51.231  1.00  0.00     0.035 C 
HETATM    3  C11 UNL     1      24.302   3.276  50.541  1.00  0.00     0.149 C 
HETATM    4  N1  UNL     1      24.191   4.449  51.386  1.00  0.00    -0.303 N 
HETATM    5  N2  UNL     1      23.919   4.292  52.734  1.00  0.00    -0.334 N 
HETATM    6  C17 UNL     1      24.392   3.132  53.375  1.00  0.00     0.151 C 
HETATM    7  H22 UNL     1      23.921   5.156  53.277  1.00  0.00     0.180 HD
ENDROOT
BRANCH   1   8
HETATM    8  C4  UNL     1      25.390   0.872  53.167  1.00  0.00     0.084 C 
HETATM    9  C5  UNL     1      26.611   0.973  53.660  1.00  0.00     0.099 C 
HETATM   10  C6  UNL     1      27.638   2.066  53.748  1.00  0.00     0.234 C 
HETATM   11  O3  UNL     1      27.132  -0.171  54.252  1.00  0.00    -0.349 OA
HETATM   12  O2  UNL     1      28.729   1.590  53.017  1.00  0.00    -0.383 OA
HETATM   13  C7  UNL     1      29.391   0.550  53.664  1.00  0.00     0.194 C 
HETATM   14  C8  UNL     1      28.472  -0.100  54.703  1.00  0.00     0.201 C 
BRANCH   8  15
HETATM   15  O1  UNL     1      24.554  -0.244  53.168  1.00  0.00    -0.348 OA
BRANCH  15  16
HETATM   16  C2  UNL     1      23.305  -0.306  53.795  1.00  0.00     0.120 C 
HETATM   17  C1  UNL     1      23.287  -1.180  55.036  1.00  0.00     0.040 C 
HETATM   18  C3  UNL     1      22.215  -0.824  52.871  1.00  0.00     0.040 C 
ENDBRANCH  15  16
ENDBRANCH   8  15
ENDBRANCH   1   8
BRANCH   4  19
HETATM   19  C12 UNL     1      24.349   5.755  50.897  1.00  0.00     0.022 A 
HETATM   20  C13 UNL     1      25.164   6.672  50.477  1.00  0.00     0.019 A 
HETATM   21  C14 UNL     1      25.834   7.864  49.974  1.00  0.00     0.012 A 
HETATM   22  C16 UNL     1      23.807   7.091  50.443  1.00  0.00     0.054 A 
HETATM   23  C15 UNL     1      24.583   8.282  49.953  1.00  0.00     0.017 A 
ENDBRANCH   4  19
TORSDOF 5
ENDMDL
MODEL 6
REMARK VINA RESULT:      -7.0      2.947      5.579
REMARK  5 active torsions:
REMARK  status: ('A' for Active; 'I' for Inactive)
REMARK    1  A    between atoms: C2_2  and  O1_4 
REMARK    2  A    between atoms: O1_4  and  C4_5 
REMARK    3  A    between atoms: C4_5  and  C9_12 
REMARK    4  A    between atoms: N1_15  and  C12_16 
REMARK    5  A    between atoms: C15_19  and  C16_20 
ROOT
HETATM    1  C9  UNL     1      23.670   2.350  51.841  1.00  0.00     0.066 C 
HETATM    2  C10 UNL     1      24.432   1.991  50.575  1.00  0.00     0.035 C 
HETATM    3  C11 UNL     1      24.139   3.173  49.644  1.00  0.00     0.149 C 
HETATM    4  N1  UNL     1      24.846   4.286  50.248  1.00  0.00    -0.303 N 
HETATM    5  N2  UNL     1      24.601   4.610  51.571  1.00  0.00    -0.334 N 
HETATM    6  C17 UNL     1      24.250   3.572  52.453  1.00  0.00     0.151 C 
HETATM    7  H22 UNL     1      25.182   5.361  51.945  1.00  0.00     0.180 HD
ENDROOT
BRANCH   1   8
HETATM    8  C4  UNL     1      23.556   1.210  52.753  1.00  0.00     0.084 C 
HETATM    9  C5  UNL     1      22.527   0.384  52.795  1.00  0.00     0.099 C 
HETATM   10  C6  UNL     1      21.228   0.262  52.051  1.00  0.00     0.234 C 
HETATM   11  O3  UNL     1      22.599  -0.642  53.729  1.00  0.00    -0.349 OA
HETATM   12  O2  UNL     1      20.242   0.420  53.028  1.00  0.00    -0.383 OA
HETATM   13  C7  UNL     1      20.162  -0.674  53.886  1.00  0.00     0.194 C 
HETATM   14  C8  UNL     1      21.463  -1.479  53.843  1.00  0.00     0.201 C 
BRANCH   8  15
HETATM   15  O1  UNL     1      24.712   1.181  53.533  1.00  0.00    -0.348 OA
BRANCH  15  16
HETATM   16  C2  UNL     1      25.551   0.071  53.677  1.00  0.00     0.120 C 
HETATM   17  C1  UNL     1      26.441   0.132  54.906  1.00  0.00     0.040 C 
HETATM   18  C3  UNL     1      26.463  -0.128  52.477  1.00  0.00     0.040 C 
ENDBRANCH  15  16
ENDBRANCH   8  15
ENDBRANCH   1   8
BRANCH   4  19
HETATM   19  C12 UNL     1      25.781   5.062  49.546  1.00  0.00     0.022 A 
HETATM   20  C13 UNL     1      26.961   5.133  49.015  1.00  0.00     0.019 A 
HETATM   21  C14 UNL     1      28.207   5.487  48.347  1.00  0.00     0.012 A 
HETATM   22  C16 UNL     1      26.211   6.326  48.836  1.00  0.00     0.054 A 
HETATM   23  C15 UNL     1      27.537   6.612  48.186  1.00  0.00     0.017 A 
ENDBRANCH   4  19
TORSDOF 5
ENDMDL
MODEL 7
REMARK VINA RESULT:      -6.6      3.258      4.892
REMARK  5 active torsions:
REMARK  status: ('A' for Active; 'I' for Inactive)
REMARK    1  A    between atoms: C2_2  and  O1_4 
REMARK    2  A    between atoms: O1_4  and  C4_5 
REMARK    3  A    between atoms: C4_5  and  C9_12 
REMARK    4  A    between atoms: N1_15  and  C12_16 
REMARK    5  A    between atoms: C15_19  and  C16_20 
ROOT
HETATM    1  C9  UNL     1      22.671   4.148  50.704  1.00  0.00     0.066 C 
HETATM    2  C10 UNL     1      23.262   3.558  49.433  1.00  0.00     0.035 C 
HETATM    3  C11 UNL     1      23.867   4.777  48.730  1.00  0.00     0.149 C 
HETATM    4  N1  UNL     1      24.989   5.152  49.570  1.00  0.00    -0.303 N 
HETATM    5  N2  UNL     1      24.780   5.395  50.915  1.00  0.00    -0.334 N 
HETATM    6  C17 UNL     1      23.755   4.685  51.566  1.00  0.00     0.151 C 
HETATM    7  H22 UNL     1      25.625   5.589  51.454  1.00  0.00     0.180 HD
ENDROOT
BRANCH   1   8
HETATM    8  C4  UNL     1      21.770   3.211  51.376  1.00  0.00     0.084 C 
HETATM    9  C5  UNL     1      20.492   3.056  51.080  1.00  0.00     0.099 C 
HETATM   10  C6  UNL     1      19.547   3.671  50.087  1.00  0.00     0.234 C 
HETATM   11  O3  UNL     1      19.797   2.116  51.829  1.00  0.00    -0.349 OA
HETATM   12  O2  UNL     1      18.567   4.293  50.866  1.00  0.00    -0.383 OA
HETATM   13  C7  UNL     1      17.731   3.378  51.500  1.00  0.00     0.194 C 
HETATM   14  C8  UNL     1      18.407   2.006  51.580  1.00  0.00     0.201 C 
BRANCH   8  15
HETATM   15  O1  UNL     1      22.511   2.544  52.351  1.00  0.00    -0.348 OA
BRANCH  15  16
HETATM   16  C2  UNL     1      22.937   1.215  52.261  1.00  0.00     0.120 C 
HETATM   17  C1  UNL     1      22.430   0.332  53.387  1.00  0.00     0.040 C 
HETATM   18  C3  UNL     1      24.452   1.089  52.245  1.00  0.00     0.040 C 
ENDBRANCH  15  16
ENDBRANCH   8  15
ENDBRANCH   1   8
BRANCH   4  19
HETATM   19  C12 UNL     1      26.297   5.281  49.075  1.00  0.00     0.022 A 
HETATM   20  C13 UNL     1      27.201   6.061  48.571  1.00  0.00     0.019 A 
HETATM   21  C14 UNL     1      28.383   6.694  48.001  1.00  0.00     0.012 A 
HETATM   22  C16 UNL     1      27.666   4.731  48.747  1.00  0.00     0.054 A 
HETATM   23  C15 UNL     1      28.830   5.461  48.137  1.00  0.00     0.017 A 
ENDBRANCH   4  19
TORSDOF 5
ENDMDL
MODEL 8
REMARK VINA RESULT:      -6.5      3.054      5.958
REMARK  5 active torsions:
REMARK  status: ('A' for Active; 'I' for Inactive)
REMARK    1  A    between atoms: C2_2  and  O1_4 
REMARK    2  A    between atoms: O1_4  and  C4_5 
REMARK    3  A    between atoms: C4_5  and  C9_12 
REMARK    4  A    between atoms: N1_15  and  C12_16 
REMARK    5  A    between atoms: C15_19  and  C16_20 
ROOT
HETATM    1  C9  UNL     1      23.522   2.727  51.234  1.00  0.00     0.066 C 
HETATM    2  C10 UNL     1      24.129   2.543  49.851  1.00  0.00     0.035 C 
HETATM    3  C11 UNL     1      23.776   3.854  49.139  1.00  0.00     0.149 C 
HETATM    4  N1  UNL     1      24.583   4.853  49.812  1.00  0.00    -0.303 N 
HETATM    5  N2  UNL     1      24.495   4.985  51.187  1.00  0.00    -0.334 N 
HETATM    6  C17 UNL     1      24.206   3.835  51.945  1.00  0.00     0.151 C 
HETATM    7  H22 UNL     1      25.139   5.662  51.597  1.00  0.00     0.180 HD
ENDROOT
BRANCH   1   8
HETATM    8  C4  UNL     1      23.468   1.468  51.980  1.00  0.00     0.084 C 
HETATM    9  C5  UNL     1      24.515   0.874  52.523  1.00  0.00     0.099 C 
HETATM   10  C6  UNL     1      25.985   1.171  52.604  1.00  0.00     0.234 C 
HETATM   11  O3  UNL     1      24.267  -0.317  53.194  1.00  0.00    -0.349 OA
HETATM   12  O2  UNL     1      26.602   0.102  51.948  1.00  0.00    -0.383 OA
HETATM   13  C7  UNL     1      26.528  -1.083  52.676  1.00  0.00     0.194 C 
HETATM   14  C8  UNL     1      25.394  -1.007  53.702  1.00  0.00     0.201 C 
BRANCH   8  15
HETATM   15  O1  UNL     1      22.138   1.048  51.998  1.00  0.00    -0.348 OA
BRANCH  15  16
HETATM   16  C2  UNL     1      21.178   1.475  52.921  1.00  0.00     0.120 C 
HETATM   17  C1  UNL     1      20.805   0.421  53.947  1.00  0.00     0.040 C 
HETATM   18  C3  UNL     1      19.888   1.922  52.253  1.00  0.00     0.040 C 
ENDBRANCH  15  16
ENDBRANCH   8  15
ENDBRANCH   1   8
BRANCH   4  19
HETATM   19  C12 UNL     1      25.462   5.706  49.127  1.00  0.00     0.022 A 
HETATM   20  C13 UNL     1      26.670   5.920  48.708  1.00  0.00     0.019 A 
HETATM   21  C14 UNL     1      27.914   6.412  48.129  1.00  0.00     0.012 A 
HETATM   22  C16 UNL     1      25.772   6.957  48.336  1.00  0.00     0.054 A 
HETATM   23  C15 UNL     1      27.103   7.396  47.791  1.00  0.00     0.017 A 
ENDBRANCH   4  19
TORSDOF 5
ENDMDL
MODEL 9
REMARK VINA RESULT:      -6.3      3.086      7.386
REMARK  5 active torsions:
REMARK  status: ('A' for Active; 'I' for Inactive)
REMARK    1  A    between atoms: C2_2  and  O1_4 
REMARK    2  A    between atoms: O1_4  and  C4_5 
REMARK    3  A    between atoms: C4_5  and  C9_12 
REMARK    4  A    between atoms: N1_15  and  C12_16 
REMARK    5  A    between atoms: C15_19  and  C16_20 
ROOT
HETATM    1  C9  UNL     1      22.844   2.225  51.432  1.00  0.00     0.066 C 
HETATM    2  C10 UNL     1      22.174   2.006  52.780  1.00  0.00     0.035 C 
HETATM    3  C11 UNL     1      20.698   2.298  52.488  1.00  0.00     0.149 C 
HETATM    4  N1  UNL     1      20.279   1.199  51.638  1.00  0.00    -0.303 N 
HETATM    5  N2  UNL     1      20.982   0.932  50.477  1.00  0.00    -0.334 N 
HETATM    6  C17 UNL     1      22.360   1.216  50.456  1.00  0.00     0.151 C 
HETATM    7  H22 UNL     1      20.671   0.105  49.966  1.00  0.00     0.180 HD
ENDROOT
BRANCH   1   8
HETATM    8  C4  UNL     1      24.300   2.305  51.551  1.00  0.00     0.084 C 
HETATM    9  C5  UNL     1      25.058   1.381  52.113  1.00  0.00     0.099 C 
HETATM   10  C6  UNL     1      24.808   0.056  52.775  1.00  0.00     0.234 C 
HETATM   11  O3  UNL     1      26.424   1.634  52.132  1.00  0.00    -0.349 OA
HETATM   12  O2  UNL     1      25.257   0.223  54.088  1.00  0.00    -0.383 OA
HETATM   13  C7  UNL     1      26.645   0.305  54.170  1.00  0.00     0.194 C 
HETATM   14  C8  UNL     1      27.236   0.694  52.812  1.00  0.00     0.201 C 
BRANCH   8  15
HETATM   15  O1  UNL     1      24.702   3.507  50.969  1.00  0.00    -0.348 OA
BRANCH  15  16
HETATM   16  C2  UNL     1      25.066   3.663  49.628  1.00  0.00     0.120 C 
HETATM   17  C1  UNL     1      26.533   4.003  49.428  1.00  0.00     0.040 C 
HETATM   18  C3  UNL     1      24.260   4.745  48.928  1.00  0.00     0.040 C 
ENDBRANCH  15  16
ENDBRANCH   8  15
ENDBRANCH   1   8
BRANCH   4  19
HETATM   19  C12 UNL     1      19.180   0.381  51.942  1.00  0.00     0.022 A 
HETATM   20  C13 UNL     1      18.693  -0.561  52.688  1.00  0.00     0.019 A 
HETATM   21  C14 UNL     1      17.904  -1.583  53.362  1.00  0.00     0.012 A 
HETATM   22  C16 UNL     1      17.752  -0.075  51.741  1.00  0.00     0.054 A 
HETATM   23  C15 UNL     1      17.020  -1.162  52.478  1.00  0.00     0.017 A 
ENDBRANCH   4  19
TORSDOF 5
ENDMDL
