MODEL 1
REMARK VINA RESULT:      -8.2      0.000      0.000
REMARK  1 active torsions:
REMARK  status: ('A' for Active; 'I' for Inactive)
REMARK    1  A    between atoms: C2_2  and  O1_3 
ROOT
HETATM    1  O1  UNL     1      25.378   2.477  51.232  1.00  0.00     0.000 OA
HETATM    2  C3  UNL     1      25.702   2.105  52.552  1.00  0.00    -0.047 A 
HETATM    3  C4  UNL     1      24.446   2.345  52.518  1.00  0.00     0.081 A 
HETATM    4  C5  UNL     1      23.098   2.644  52.313  1.00  0.00     0.054 A 
HETATM    5  N1  UNL     1      22.742   3.859  52.570  1.00  0.00    -0.263 NA
HETATM    6  C6  UNL     1      21.380   4.267  52.399  1.00  0.00     0.165 A 
HETATM    7  C7  UNL     1      20.556   3.329  51.977  1.00  0.00     0.168 A 
HETATM    8  C8  UNL     1      19.135   3.543  51.742  1.00  0.00     0.126 C 
HETATM    9  N2  UNL     1      17.981   3.717  51.552  1.00  0.00    -0.189 NA
HETATM   10  O2  UNL     1      20.928   2.036  51.706  1.00  0.00    -0.324 OA
HETATM   11  C9  UNL     1      22.215   1.575  51.823  1.00  0.00     0.202 A 
HETATM   12  C10 UNL     1      22.420   0.277  52.465  1.00  0.00     0.028 C 
HETATM   13  C11 UNL     1      22.609  -0.956  52.922  1.00  0.00     0.090 C 
HETATM   14  N3  UNL     1      22.692  -1.117  54.396  1.00  0.00    -0.334 N 
HETATM   15  C12 UNL     1      23.952  -0.850  54.858  1.00  0.00     0.244 C 
HETATM   16  O3  UNL     1      24.089  -0.671  53.679  1.00  0.00    -0.268 OA
HETATM   17  C13 UNL     1      25.235  -0.579  55.340  1.00  0.00     0.072 C 
HETATM   18  C14 UNL     1      26.277  -0.228  54.578  1.00  0.00    -0.002 C 
HETATM   19  C15 UNL     1      27.674   0.149  54.433  1.00  0.00     0.144 C 
HETATM   20  N4  UNL     1      27.742   1.433  53.828  1.00  0.00    -0.410 N 
HETATM   21  C16 UNL     1      29.114   1.911  53.904  1.00  0.00     0.143 C 
HETATM   22  C17 UNL     1      27.087   1.819  52.675  1.00  0.00     0.152 C 
HETATM   23  H11 UNL     1      21.748  -1.381  54.541  1.00  0.00     0.168 HD
ENDROOT
BRANCH   1  24
HETATM   24  C2  UNL     1      25.621   3.653  50.571  1.00  0.00    -0.005 C 
HETATM   25  C1  UNL     1      26.577   3.317  49.413  1.00  0.00     0.005 C 
ENDBRANCH   1  24
TORSDOF 1
ENDMDL
MODEL 2
REMARK VINA RESULT:      -8.0      2.718      7.416
REMARK  1 active torsions:
REMARK  status: ('A' for Active; 'I' for Inactive)
REMARK    1  A    between atoms: C2_2  and  O1_3 
ROOT
HETATM    1  O1  UNL     1      23.114   2.288  50.380  1.00  0.00     0.000 OA
HETATM    2  C3  UNL     1      23.036   3.695  50.399  1.00  0.00    -0.047 A 
HETATM    3  C4  UNL     1      24.089   3.360  51.044  1.00  0.00     0.081 A 
HETATM    4  C5  UNL     1      25.193   2.829  51.713  1.00  0.00     0.054 A 
HETATM    5  N1  UNL     1      25.049   2.641  52.982  1.00  0.00    -0.263 NA
HETATM    6  C6  UNL     1      26.126   2.108  53.763  1.00  0.00     0.165 A 
HETATM    7  C7  UNL     1      27.231   1.841  53.098  1.00  0.00     0.168 A 
HETATM    8  C8  UNL     1      28.434   1.295  53.708  1.00  0.00     0.126 C 
HETATM    9  N2  UNL     1      29.412   0.852  54.205  1.00  0.00    -0.189 NA
HETATM   10  O2  UNL     1      27.390   2.042  51.748  1.00  0.00    -0.324 OA
HETATM   11  C9  UNL     1      26.402   2.527  50.930  1.00  0.00     0.202 A 
HETATM   12  C10 UNL     1      26.765   3.554  49.955  1.00  0.00     0.028 C 
HETATM   13  C11 UNL     1      27.106   4.384  48.976  1.00  0.00     0.090 C 
HETATM   14  N3  UNL     1      27.174   5.828  49.319  1.00  0.00    -0.334 N 
HETATM   15  C12 UNL     1      25.939   6.413  49.261  1.00  0.00     0.244 C 
HETATM   16  O3  UNL     1      25.679   5.282  48.958  1.00  0.00    -0.268 OA
HETATM   17  C13 UNL     1      24.682   7.021  49.206  1.00  0.00     0.072 C 
HETATM   18  C14 UNL     1      23.546   6.395  48.874  1.00  0.00    -0.002 C 
HETATM   19  C15 UNL     1      22.109   6.405  48.652  1.00  0.00     0.144 C 
HETATM   20  N4  UNL     1      21.504   5.467  49.531  1.00  0.00    -0.410 N 
HETATM   21  C16 UNL     1      20.061   5.649  49.483  1.00  0.00     0.143 C 
HETATM   22  C17 UNL     1      21.888   4.151  49.700  1.00  0.00     0.152 C 
HETATM   23  H11 UNL     1      28.151   5.869  49.476  1.00  0.00     0.168 HD
ENDROOT
BRANCH   1  24
HETATM   24  C2  UNL     1      22.388   1.362  51.083  1.00  0.00    -0.005 C 
HETATM   25  C1  UNL     1      21.525   0.607  50.057  1.00  0.00     0.005 C 
ENDBRANCH   1  24
TORSDOF 1
ENDMDL
MODEL 3
REMARK VINA RESULT:      -7.9      2.426      4.719
REMARK  1 active torsions:
REMARK  status: ('A' for Active; 'I' for Inactive)
REMARK    1  A    between atoms: C2_2  and  O1_3 
ROOT
HETATM    1  O1  UNL     1      24.997   0.744  51.971  1.00  0.00     0.000 OA
HETATM    2  C3  UNL     1      23.783   0.680  52.683  1.00  0.00    -0.047 A 
HETATM    3  C4  UNL     1      23.733   1.714  51.931  1.00  0.00     0.081 A 
HETATM    4  C5  UNL     1      23.840   2.798  51.058  1.00  0.00     0.054 A 
HETATM    5  N1  UNL     1      24.272   3.900  51.574  1.00  0.00    -0.263 NA
HETATM    6  C6  UNL     1      24.411   5.074  50.765  1.00  0.00     0.165 A 
HETATM    7  C7  UNL     1      24.068   4.936  49.501  1.00  0.00     0.168 A 
HETATM    8  C8  UNL     1      24.136   6.008  48.519  1.00  0.00     0.126 C 
HETATM    9  N2  UNL     1      24.190   6.880  47.722  1.00  0.00    -0.189 NA
HETATM   10  O2  UNL     1      23.604   3.767  48.948  1.00  0.00    -0.324 OA
HETATM   11  C9  UNL     1      23.465   2.597  49.650  1.00  0.00     0.202 A 
HETATM   12  C10 UNL     1      22.240   1.824  49.453  1.00  0.00     0.028 C 
HETATM   13  C11 UNL     1      21.197   1.046  49.183  1.00  0.00     0.090 C 
HETATM   14  N3  UNL     1      19.939   1.335  49.918  1.00  0.00    -0.334 N 
HETATM   15  C12 UNL     1      19.939   0.750  51.155  1.00  0.00     0.244 C 
HETATM   16  O3  UNL     1      21.008   0.407  50.732  1.00  0.00    -0.268 OA
HETATM   17  C13 UNL     1      19.929   0.159  52.421  1.00  0.00     0.072 C 
HETATM   18  C14 UNL     1      20.918  -0.591  52.921  1.00  0.00    -0.002 C 
HETATM   19  C15 UNL     1      21.490  -1.388  53.995  1.00  0.00     0.144 C 
HETATM   20  N4  UNL     1      22.725  -0.805  54.390  1.00  0.00    -0.410 N 
HETATM   21  C16 UNL     1      23.173  -1.453  55.613  1.00  0.00     0.143 C 
HETATM   22  C17 UNL     1      23.757  -0.447  53.545  1.00  0.00     0.152 C 
HETATM   23  H11 UNL     1      19.510   1.880  49.212  1.00  0.00     0.168 HD
ENDROOT
BRANCH   1  24
HETATM   24  C2  UNL     1      26.245   1.116  52.401  1.00  0.00    -0.005 C 
HETATM   25  C1  UNL     1      27.107  -0.158  52.405  1.00  0.00     0.005 C 
ENDBRANCH   1  24
TORSDOF 1
ENDMDL
MODEL 4
REMARK VINA RESULT:      -7.8      1.950      4.426
REMARK  1 active torsions:
REMARK  status: ('A' for Active; 'I' for Inactive)
REMARK    1  A    between atoms: C2_2  and  O1_3 
ROOT
HETATM    1  O1  UNL     1      22.576   0.506  53.639  1.00  0.00     0.000 OA
HETATM    2  C3  UNL     1      23.498   0.749  52.601  1.00  0.00    -0.047 A 
HETATM    3  C4  UNL     1      22.374   1.240  52.239  1.00  0.00     0.081 A 
HETATM    4  C5  UNL     1      21.085   1.719  51.996  1.00  0.00     0.054 A 
HETATM    5  N1  UNL     1      20.304   0.931  51.337  1.00  0.00    -0.263 NA
HETATM    6  C6  UNL     1      18.963   1.330  51.028  1.00  0.00     0.165 A 
HETATM    7  C7  UNL     1      18.615   2.527  51.456  1.00  0.00     0.168 A 
HETATM    8  C8  UNL     1      17.300   3.114  51.244  1.00  0.00     0.126 C 
HETATM    9  N2  UNL     1      16.232   3.591  51.071  1.00  0.00    -0.189 NA
HETATM   10  O2  UNL     1      19.444   3.370  52.154  1.00  0.00    -0.324 OA
HETATM   11  C9  UNL     1      20.730   3.052  52.507  1.00  0.00     0.202 A 
HETATM   12  C10 UNL     1      21.763   4.070  52.316  1.00  0.00     0.028 C 
HETATM   13  C11 UNL     1      22.684   5.026  52.275  1.00  0.00     0.090 C 
HETATM   14  N3  UNL     1      23.368   5.241  50.974  1.00  0.00    -0.334 N 
HETATM   15  C12 UNL     1      24.403   4.363  50.804  1.00  0.00     0.244 C 
HETATM   16  O3  UNL     1      23.993   4.038  51.884  1.00  0.00    -0.268 OA
HETATM   17  C13 UNL     1      25.463   3.471  50.620  1.00  0.00     0.072 C 
HETATM   18  C14 UNL     1      25.837   2.539  51.504  1.00  0.00    -0.002 C 
HETATM   19  C15 UNL     1      26.705   1.442  51.902  1.00  0.00     0.144 C 
HETATM   20  N4  UNL     1      25.908   0.288  52.135  1.00  0.00    -0.410 N 
HETATM   21  C16 UNL     1      26.789  -0.859  52.295  1.00  0.00     0.143 C 
HETATM   22  C17 UNL     1      24.779   0.232  52.927  1.00  0.00     0.152 C 
HETATM   23  H11 UNL     1      22.804   5.993  50.664  1.00  0.00     0.168 HD
ENDROOT
BRANCH   1  24
HETATM   24  C2  UNL     1      21.951  -0.659  53.999  1.00  0.00    -0.005 C 
HETATM   25  C1  UNL     1      22.707  -1.206  55.221  1.00  0.00     0.005 C 
ENDBRANCH   1  24
TORSDOF 1
ENDMDL
MODEL 5
REMARK VINA RESULT:      -7.8      1.869      2.327
REMARK  1 active torsions:
REMARK  status: ('A' for Active; 'I' for Inactive)
REMARK    1  A    between atoms: C2_2  and  O1_3 
ROOT
HETATM    1  O1  UNL     1      25.253   2.393  51.197  1.00  0.00     0.000 OA
HETATM    2  C3  UNL     1      24.855   1.852  52.435  1.00  0.00    -0.047 A 
HETATM    3  C4  UNL     1      23.899   2.590  52.013  1.00  0.00     0.081 A 
HETATM    4  C5  UNL     1      22.957   3.428  51.415  1.00  0.00     0.054 A 
HETATM    5  N1  UNL     1      22.986   4.665  51.782  1.00  0.00    -0.263 NA
HETATM    6  C6  UNL     1      22.057   5.607  51.232  1.00  0.00     0.165 A 
HETATM    7  C7  UNL     1      21.201   5.116  50.359  1.00  0.00     0.168 A 
HETATM    8  C8  UNL     1      20.179   5.908  49.690  1.00  0.00     0.126 C 
HETATM    9  N2  UNL     1      19.349   6.552  49.148  1.00  0.00    -0.189 NA
HETATM   10  O2  UNL     1      21.163   3.800  49.969  1.00  0.00    -0.324 OA
HETATM   11  C9  UNL     1      22.032   2.844  50.431  1.00  0.00     0.202 A 
HETATM   12  C10 UNL     1      21.479   1.546  50.813  1.00  0.00     0.028 C 
HETATM   13  C11 UNL     1      21.012   0.322  51.035  1.00  0.00     0.090 C 
HETATM   14  N3  UNL     1      20.423   0.064  52.374  1.00  0.00    -0.334 N 
HETATM   15  C12 UNL     1      21.389  -0.236  53.295  1.00  0.00     0.244 C 
HETATM   16  O3  UNL     1      22.049  -0.068  52.306  1.00  0.00    -0.268 OA
HETATM   17  C13 UNL     1      22.368  -0.544  54.244  1.00  0.00     0.072 C 
HETATM   18  C14 UNL     1      23.680  -0.614  53.991  1.00  0.00    -0.002 C 
HETATM   19  C15 UNL     1      25.048  -0.839  54.430  1.00  0.00     0.144 C 
HETATM   20  N4  UNL     1      25.810   0.333  54.174  1.00  0.00    -0.410 N 
HETATM   21  C16 UNL     1      27.103   0.199  54.828  1.00  0.00     0.143 C 
HETATM   22  C17 UNL     1      25.867   1.015  52.974  1.00  0.00     0.152 C 
HETATM   23  H11 UNL     1      19.477   0.204  52.118  1.00  0.00     0.168 HD
ENDROOT
BRANCH   1  24
HETATM   24  C2  UNL     1      26.147   3.397  50.929  1.00  0.00    -0.005 C 
HETATM   25  C1  UNL     1      26.476   3.305  49.429  1.00  0.00     0.005 C 
ENDBRANCH   1  24
TORSDOF 1
ENDMDL
MODEL 6
REMARK VINA RESULT:      -7.6      2.889      4.890
REMARK  1 active torsions:
REMARK  status: ('A' for Active; 'I' for Inactive)
REMARK    1  A    between atoms: C2_2  and  O1_3 
ROOT
HETATM    1  O1  UNL     1      21.484   1.750  52.329  1.00  0.00     0.000 OA
HETATM    2  C3  UNL     1      22.521   0.802  52.441  1.00  0.00    -0.047 A 
HETATM    3  C4  UNL     1      22.534   1.245  51.241  1.00  0.00     0.081 A 
HETATM    4  C5  UNL     1      22.414   1.829  49.979  1.00  0.00     0.054 A 
HETATM    5  N1  UNL     1      21.694   1.183  49.123  1.00  0.00    -0.263 NA
HETATM    6  C6  UNL     1      21.513   1.692  47.796  1.00  0.00     0.165 A 
HETATM    7  C7  UNL     1      22.125   2.830  47.537  1.00  0.00     0.168 A 
HETATM    8  C8  UNL     1      22.065   3.510  46.251  1.00  0.00     0.126 C 
HETATM    9  N2  UNL     1      22.017   4.060  45.206  1.00  0.00    -0.189 NA
HETATM   10  O2  UNL     1      22.894   3.519  48.443  1.00  0.00    -0.324 OA
HETATM   11  C9  UNL     1      23.096   3.109  49.736  1.00  0.00     0.202 A 
HETATM   12  C10 UNL     1      24.455   3.184  50.272  1.00  0.00     0.028 C 
HETATM   13  C11 UNL     1      25.653   3.372  50.813  1.00  0.00     0.090 C 
HETATM   14  N3  UNL     1      26.663   2.306  50.590  1.00  0.00    -0.334 N 
HETATM   15  C12 UNL     1      26.517   1.285  51.489  1.00  0.00     0.244 C 
HETATM   16  O3  UNL     1      25.636   2.026  51.828  1.00  0.00    -0.268 OA
HETATM   17  C13 UNL     1      26.377   0.236  52.403  1.00  0.00     0.072 C 
HETATM   18  C14 UNL     1      25.458   0.189  53.374  1.00  0.00    -0.002 C 
HETATM   19  C15 UNL     1      24.834  -0.487  54.500  1.00  0.00     0.144 C 
HETATM   20  N4  UNL     1      23.461  -0.699  54.202  1.00  0.00    -0.410 N 
HETATM   21  C16 UNL     1      22.898  -1.583  55.213  1.00  0.00     0.143 C 
HETATM   22  C17 UNL     1      22.574   0.258  53.751  1.00  0.00     0.152 C 
HETATM   23  H11 UNL     1      27.120   2.732  49.823  1.00  0.00     0.168 HD
ENDROOT
BRANCH   1  24
HETATM   24  C2  UNL     1      20.130   1.559  52.244  1.00  0.00    -0.005 C 
HETATM   25  C1  UNL     1      19.508   2.935  51.950  1.00  0.00     0.005 C 
ENDBRANCH   1  24
TORSDOF 1
ENDMDL
MODEL 7
REMARK VINA RESULT:      -7.5      2.813      6.248
REMARK  1 active torsions:
REMARK  status: ('A' for Active; 'I' for Inactive)
REMARK    1  A    between atoms: C2_2  and  O1_3 
ROOT
HETATM    1  O1  UNL     1      24.162   4.893  50.266  1.00  0.00     0.000 OA
HETATM    2  C3  UNL     1      23.596   3.957  49.378  1.00  0.00    -0.047 A 
HETATM    3  C4  UNL     1      24.281   3.304  50.239  1.00  0.00     0.081 A 
HETATM    4  C5  UNL     1      25.067   2.747  51.249  1.00  0.00     0.054 A 
HETATM    5  N1  UNL     1      26.303   2.528  50.948  1.00  0.00    -0.263 NA
HETATM    6  C6  UNL     1      27.194   1.952  51.911  1.00  0.00     0.165 A 
HETATM    7  C7  UNL     1      26.658   1.672  53.082  1.00  0.00     0.168 A 
HETATM    8  C8  UNL     1      27.393   1.083  54.192  1.00  0.00     0.126 C 
HETATM    9  N2  UNL     1      27.992   0.603  55.092  1.00  0.00    -0.189 NA
HETATM   10  O2  UNL     1      25.343   1.899  53.405  1.00  0.00    -0.324 OA
HETATM   11  C9  UNL     1      24.436   2.467  52.548  1.00  0.00     0.202 A 
HETATM   12  C10 UNL     1      23.107   1.862  52.459  1.00  0.00     0.028 C 
HETATM   13  C11 UNL     1      21.859   1.407  52.468  1.00  0.00     0.090 C 
HETATM   14  N3  UNL     1      21.566   0.242  51.595  1.00  0.00    -0.334 N 
HETATM   15  C12 UNL     1      21.317   0.633  50.308  1.00  0.00     0.244 C 
HETATM   16  O3  UNL     1      21.524   1.688  50.840  1.00  0.00    -0.268 OA
HETATM   17  C13 UNL     1      21.062   1.021  48.990  1.00  0.00     0.072 C 
HETATM   18  C14 UNL     1      21.066   2.286  48.553  1.00  0.00    -0.002 C 
HETATM   19  C15 UNL     1      20.915   3.260  47.485  1.00  0.00     0.144 C 
HETATM   20  N4  UNL     1      22.129   3.990  47.357  1.00  0.00    -0.410 N 
HETATM   21  C16 UNL     1      22.064   4.789  46.142  1.00  0.00     0.143 C 
HETATM   22  C17 UNL     1      22.815   4.604  48.385  1.00  0.00     0.152 C 
HETATM   23  H11 UNL     1      21.654  -0.456  52.292  1.00  0.00     0.168 HD
ENDROOT
BRANCH   1  24
HETATM   24  C2  UNL     1      25.215   5.751  50.079  1.00  0.00    -0.005 C 
HETATM   25  C1  UNL     1      24.821   7.083  50.739  1.00  0.00     0.005 C 
ENDBRANCH   1  24
TORSDOF 1
ENDMDL
MODEL 8
REMARK VINA RESULT:      -7.4      2.160      6.171
REMARK  1 active torsions:
REMARK  status: ('A' for Active; 'I' for Inactive)
REMARK    1  A    between atoms: C2_2  and  O1_3 
ROOT
HETATM    1  O1  UNL     1      23.592   2.526  53.041  1.00  0.00     0.000 OA
HETATM    2  C3  UNL     1      22.645   1.549  52.676  1.00  0.00    -0.047 A 
HETATM    3  C4  UNL     1      23.774   0.961  52.805  1.00  0.00     0.081 A 
HETATM    4  C5  UNL     1      25.071   0.476  52.986  1.00  0.00     0.054 A 
HETATM    5  N1  UNL     1      25.800   0.401  51.923  1.00  0.00    -0.263 NA
HETATM    6  C6  UNL     1      27.144  -0.090  51.998  1.00  0.00     0.165 A 
HETATM    7  C7  UNL     1      27.550  -0.448  53.199  1.00  0.00     0.168 A 
HETATM    8  C8  UNL     1      28.878  -0.971  53.485  1.00  0.00     0.126 C 
HETATM    9  N2  UNL     1      29.957  -1.397  53.715  1.00  0.00    -0.189 NA
HETATM   10  O2  UNL     1      26.777  -0.373  54.332  1.00  0.00    -0.324 OA
HETATM   11  C9  UNL     1      25.493   0.106  54.345  1.00  0.00     0.202 A 
HETATM   12  C10 UNL     1      24.493  -0.640  55.108  1.00  0.00     0.028 C 
HETATM   13  C11 UNL     1      23.608  -1.230  55.904  1.00  0.00     0.090 C 
HETATM   14  N3  UNL     1      22.889  -2.405  55.350  1.00  0.00    -0.334 N 
HETATM   15  C12 UNL     1      21.816  -2.022  54.592  1.00  0.00     0.244 C 
HETATM   16  O3  UNL     1      22.250  -0.960  54.941  1.00  0.00    -0.268 OA
HETATM   17  C13 UNL     1      20.718  -1.642  53.815  1.00  0.00     0.072 C 
HETATM   18  C14 UNL     1      20.339  -0.377  53.598  1.00  0.00    -0.002 C 
HETATM   19  C15 UNL     1      19.445   0.593  52.988  1.00  0.00     0.144 C 
HETATM   20  N4  UNL     1      20.205   1.454  52.151  1.00  0.00    -0.410 N 
HETATM   21  C16 UNL     1      19.289   2.262  51.360  1.00  0.00     0.143 C 
HETATM   22  C17 UNL     1      21.357   2.123  52.513  1.00  0.00     0.152 C 
HETATM   23  H11 UNL     1      23.470  -3.101  55.749  1.00  0.00     0.168 HD
ENDROOT
BRANCH   1  24
HETATM   24  C2  UNL     1      24.185   3.498  52.278  1.00  0.00    -0.005 C 
HETATM   25  C1  UNL     1      23.551   4.835  52.696  1.00  0.00     0.005 C 
ENDBRANCH   1  24
TORSDOF 1
ENDMDL
MODEL 9
REMARK VINA RESULT:      -7.3      2.470      3.995
REMARK  1 active torsions:
REMARK  status: ('A' for Active; 'I' for Inactive)
REMARK    1  A    between atoms: C2_2  and  O1_3 
ROOT
HETATM    1  O1  UNL     1      25.020   2.285  51.052  1.00  0.00     0.000 OA
HETATM    2  C3  UNL     1      24.281   1.895  52.187  1.00  0.00    -0.047 A 
HETATM    3  C4  UNL     1      23.837   3.035  51.811  1.00  0.00     0.081 A 
HETATM    4  C5  UNL     1      23.471   4.270  51.274  1.00  0.00     0.054 A 
HETATM    5  N1  UNL     1      24.038   5.305  51.798  1.00  0.00    -0.263 NA
HETATM    6  C6  UNL     1      23.726   6.621  51.323  1.00  0.00     0.165 A 
HETATM    7  C7  UNL     1      22.842   6.678  50.349  1.00  0.00     0.168 A 
HETATM    8  C8  UNL     1      22.392   7.917  49.732  1.00  0.00     0.126 C 
HETATM    9  N2  UNL     1      22.026   8.924  49.232  1.00  0.00    -0.189 NA
HETATM   10  O2  UNL     1      22.233   5.580  49.792  1.00  0.00    -0.324 OA
HETATM   11  C9  UNL     1      22.494   4.290  50.174  1.00  0.00     0.202 A 
HETATM   12  C10 UNL     1      21.358   3.387  50.356  1.00  0.00     0.028 C 
HETATM   13  C11 UNL     1      20.350   2.523  50.393  1.00  0.00     0.090 C 
HETATM   14  N3  UNL     1      19.566   2.464  51.653  1.00  0.00    -0.334 N 
HETATM   15  C12 UNL     1      20.170   1.659  52.579  1.00  0.00     0.244 C 
HETATM   16  O3  UNL     1      20.935   1.575  51.659  1.00  0.00    -0.268 OA
HETATM   17  C13 UNL     1      20.779   0.839  53.534  1.00  0.00     0.072 C 
HETATM   18  C14 UNL     1      21.923   0.171  53.346  1.00  0.00    -0.002 C 
HETATM   19  C15 UNL     1      22.967  -0.719  53.827  1.00  0.00     0.144 C 
HETATM   20  N4  UNL     1      24.214  -0.038  53.766  1.00  0.00    -0.410 N 
HETATM   21  C16 UNL     1      25.212  -0.832  54.467  1.00  0.00     0.143 C 
HETATM   22  C17 UNL     1      24.715   0.633  52.669  1.00  0.00     0.152 C 
HETATM   23  H11 UNL     1      18.831   3.062  51.365  1.00  0.00     0.168 HD
ENDROOT
BRANCH   1  24
HETATM   24  C2  UNL     1      26.304   2.757  50.964  1.00  0.00    -0.005 C 
HETATM   25  C1  UNL     1      26.513   3.197  49.505  1.00  0.00     0.005 C 
ENDBRANCH   1  24
TORSDOF 1
ENDMDL
