MODEL 1
REMARK VINA RESULT:      -8.8      0.000      0.000
REMARK  1 active torsions:
REMARK  status: ('A' for Active; 'I' for Inactive)
REMARK    1  A    between atoms: C9_12  and  C10_13 
ROOT
HETATM    1  O1  UNL     1      23.496  -1.468  55.676  1.00  0.00    -0.267 OA
HETATM    2  C1  UNL     1      22.594  -1.130  54.845  1.00  0.00     0.257 A 
HETATM    3  N1  UNL     1      21.184  -1.318  54.828  1.00  0.00    -0.322 N 
HETATM    4  C2  UNL     1      20.674  -0.726  53.640  1.00  0.00     0.046 A 
HETATM    5  C3  UNL     1      19.367  -0.644  53.200  1.00  0.00     0.032 A 
HETATM    6  C4  UNL     1      19.058  -0.007  52.019  1.00  0.00     0.021 A 
HETATM    7  C5  UNL     1      20.114   0.540  51.304  1.00  0.00     0.011 A 
HETATM    8 BR1  UNL     1      19.696   1.435  49.660  1.00  0.00    -0.051 Br
HETATM    9  C6  UNL     1      21.387   0.434  51.779  1.00  0.00     0.033 A 
HETATM   10  C7  UNL     1      21.744  -0.193  52.953  1.00  0.00     0.008 A 
HETATM   11  C8  UNL     1      23.001  -0.409  53.653  1.00  0.00     0.047 A 
HETATM   12  C9  UNL     1      24.079   0.125  53.119  1.00  0.00     0.058 C 
HETATM   13  H1  UNL     1      20.737  -1.826  55.625  1.00  0.00     0.169 HD
ENDROOT
BRANCH  12  14
HETATM   14  C10 UNL     1      25.258  -0.020  53.949  1.00  0.00     0.176 A 
HETATM   15  C11 UNL     1      25.996   0.106  55.107  1.00  0.00     0.087 A 
HETATM   16  C12 UNL     1      27.058  -0.282  54.268  1.00  0.00     0.384 A 
HETATM   17  C13 UNL     1      27.608  -0.715  52.867  1.00  0.00     0.540 A 
HETATM   18  C15 UNL     1      28.512   0.025  54.723  1.00  0.00     0.118 C 
HETATM   19  N2  UNL     1      26.570  -0.382  53.456  1.00  0.00     0.202 N 
HETATM   20  N3  UNL     1      28.028  -0.113  53.076  1.00  0.00     0.183 N 
HETATM   21  C14 UNL     1      28.714   0.949  53.479  1.00  0.00     0.268 C 
ENDBRANCH  12  14
TORSDOF 1
ENDMDL
MODEL 2
REMARK VINA RESULT:      -8.1      1.119      1.413
REMARK  1 active torsions:
REMARK  status: ('A' for Active; 'I' for Inactive)
REMARK    1  A    between atoms: C9_12  and  C10_13 
ROOT
HETATM    1  O1  UNL     1      23.601  -0.864  54.686  1.00  0.00    -0.267 OA
HETATM    2  C1  UNL     1      22.893  -0.442  53.717  1.00  0.00     0.257 A 
HETATM    3  N1  UNL     1      21.520  -0.609  53.386  1.00  0.00    -0.322 N 
HETATM    4  C2  UNL     1      21.269   0.093  52.175  1.00  0.00     0.046 A 
HETATM    5  C3  UNL     1      20.084   0.230  51.479  1.00  0.00     0.032 A 
HETATM    6  C4  UNL     1      20.027   0.974  50.322  1.00  0.00     0.021 A 
HETATM    7  C5  UNL     1      21.206   1.569  49.897  1.00  0.00     0.011 A 
HETATM    8 BR1  UNL     1      21.139   2.612  48.289  1.00  0.00    -0.051 Br
HETATM    9  C6  UNL     1      22.351   1.405  50.618  1.00  0.00     0.033 A 
HETATM   10  C7  UNL     1      22.456   0.671  51.781  1.00  0.00     0.008 A 
HETATM   11  C8  UNL     1      23.538   0.377  52.707  1.00  0.00     0.047 A 
HETATM   12  C9  UNL     1      24.702   0.942  52.462  1.00  0.00     0.058 C 
HETATM   13  H1  UNL     1      20.918  -1.180  54.022  1.00  0.00     0.169 HD
ENDROOT
BRANCH  12  14
HETATM   14  C10 UNL     1      25.680   0.708  53.505  1.00  0.00     0.176 A 
HETATM   15  C11 UNL     1      26.306   0.949  54.711  1.00  0.00     0.087 A 
HETATM   16  C12 UNL     1      27.248   0.030  54.208  1.00  0.00     0.384 A 
HETATM   17  C13 UNL     1      27.747  -0.943  53.088  1.00  0.00     0.540 A 
HETATM   18  C15 UNL     1      28.671   0.013  54.831  1.00  0.00     0.118 C 
HETATM   19  N2  UNL     1      26.832  -0.157  53.372  1.00  0.00     0.202 N 
HETATM   20  N3  UNL     1      28.324  -0.460  53.213  1.00  0.00     0.183 N 
HETATM   21  C14 UNL     1      29.288   0.419  53.454  1.00  0.00     0.268 C 
ENDBRANCH  12  14
TORSDOF 1
ENDMDL
MODEL 3
REMARK VINA RESULT:      -8.0      3.204      6.831
REMARK  1 active torsions:
REMARK  status: ('A' for Active; 'I' for Inactive)
REMARK    1  A    between atoms: C9_12  and  C10_13 
ROOT
HETATM    1  O1  UNL     1      23.500   2.367  52.892  1.00  0.00    -0.267 OA
HETATM    2  C1  UNL     1      24.726   2.085  53.081  1.00  0.00     0.257 A 
HETATM    3  N1  UNL     1      25.859   2.887  53.389  1.00  0.00    -0.322 N 
HETATM    4  C2  UNL     1      26.991   2.031  53.488  1.00  0.00     0.046 A 
HETATM    5  C3  UNL     1      28.301   2.353  53.785  1.00  0.00     0.032 A 
HETATM    6  C4  UNL     1      29.269   1.376  53.857  1.00  0.00     0.021 A 
HETATM    7  C5  UNL     1      28.865   0.071  53.618  1.00  0.00     0.011 A 
HETATM    8 BR1  UNL     1      30.203  -1.300  53.721  1.00  0.00    -0.051 Br
HETATM    9  C6  UNL     1      27.561  -0.197  53.329  1.00  0.00     0.033 A 
HETATM   10  C7  UNL     1      26.558   0.746  53.246  1.00  0.00     0.008 A 
HETATM   11  C8  UNL     1      25.130   0.695  52.977  1.00  0.00     0.047 A 
HETATM   12  C9  UNL     1      24.598  -0.498  52.804  1.00  0.00     0.058 C 
HETATM   13  H1  UNL     1      25.728   3.918  53.495  1.00  0.00     0.169 HD
ENDROOT
BRANCH  12  14
HETATM   14  C10 UNL     1      23.155  -0.466  52.680  1.00  0.00     0.176 A 
HETATM   15  C11 UNL     1      21.958  -0.151  52.070  1.00  0.00     0.087 A 
HETATM   16  C12 UNL     1      21.419  -0.573  53.301  1.00  0.00     0.384 A 
HETATM   17  C13 UNL     1      21.595  -1.141  54.749  1.00  0.00     0.540 A 
HETATM   18  C15 UNL     1      19.980  -0.122  53.672  1.00  0.00     0.118 C 
HETATM   19  N2  UNL     1      22.231  -0.803  53.741  1.00  0.00     0.202 N 
HETATM   20  N3  UNL     1      21.199  -0.493  54.829  1.00  0.00     0.183 N 
HETATM   21  C14 UNL     1      20.534   0.651  54.913  1.00  0.00     0.268 C 
ENDBRANCH  12  14
TORSDOF 1
ENDMDL
MODEL 4
REMARK VINA RESULT:      -8.0      2.077      2.426
REMARK  1 active torsions:
REMARK  status: ('A' for Active; 'I' for Inactive)
REMARK    1  A    between atoms: C9_12  and  C10_13 
ROOT
HETATM    1  O1  UNL     1      24.247   1.881  53.063  1.00  0.00    -0.267 OA
HETATM    2  C1  UNL     1      23.062   1.429  52.978  1.00  0.00     0.257 A 
HETATM    3  N1  UNL     1      21.885   1.927  52.353  1.00  0.00    -0.322 N 
HETATM    4  C2  UNL     1      20.835   0.995  52.580  1.00  0.00     0.046 A 
HETATM    5  C3  UNL     1      19.523   1.043  52.154  1.00  0.00     0.032 A 
HETATM    6  C4  UNL     1      18.644   0.027  52.458  1.00  0.00     0.021 A 
HETATM    7  C5  UNL     1      19.140  -1.031  53.207  1.00  0.00     0.011 A 
HETATM    8 BR1  UNL     1      17.928  -2.455  53.632  1.00  0.00    -0.051 Br
HETATM    9  C6  UNL     1      20.443  -1.033  53.604  1.00  0.00     0.033 A 
HETATM   10  C7  UNL     1      21.358  -0.040  53.324  1.00  0.00     0.008 A 
HETATM   11  C8  UNL     1      22.768   0.160  53.620  1.00  0.00     0.047 A 
HETATM   12  C9  UNL     1      23.385  -0.808  54.265  1.00  0.00     0.058 C 
HETATM   13  H1  UNL     1      21.937   2.840  51.846  1.00  0.00     0.169 HD
ENDROOT
BRANCH  12  14
HETATM   14  C10 UNL     1      24.811  -0.587  54.394  1.00  0.00     0.176 A 
HETATM   15  C11 UNL     1      25.950  -0.078  54.983  1.00  0.00     0.087 A 
HETATM   16  C12 UNL     1      26.557  -0.529  53.794  1.00  0.00     0.384 A 
HETATM   17  C13 UNL     1      26.476  -1.231  52.397  1.00  0.00     0.540 A 
HETATM   18  C15 UNL     1      27.936   0.065  53.395  1.00  0.00     0.118 C 
HETATM   19  N2  UNL     1      25.786  -0.893  53.370  1.00  0.00     0.202 N 
HETATM   20  N3  UNL     1      26.790  -0.548  52.267  1.00  0.00     0.183 N 
HETATM   21  C14 UNL     1      27.311   0.660  52.092  1.00  0.00     0.268 C 
ENDBRANCH  12  14
TORSDOF 1
ENDMDL
MODEL 5
REMARK VINA RESULT:      -7.8      3.423      6.968
REMARK  1 active torsions:
REMARK  status: ('A' for Active; 'I' for Inactive)
REMARK    1  A    between atoms: C9_12  and  C10_13 
ROOT
HETATM    1  O1  UNL     1      24.243   3.268  53.393  1.00  0.00    -0.267 OA
HETATM    2  C1  UNL     1      25.272   2.521  53.455  1.00  0.00     0.257 A 
HETATM    3  N1  UNL     1      26.621   2.773  53.829  1.00  0.00    -0.322 N 
HETATM    4  C2  UNL     1      27.347   1.556  53.708  1.00  0.00     0.046 A 
HETATM    5  C3  UNL     1      28.679   1.308  53.977  1.00  0.00     0.032 A 
HETATM    6  C4  UNL     1      29.208   0.047  53.817  1.00  0.00     0.021 A 
HETATM    7  C5  UNL     1      28.345  -0.948  53.379  1.00  0.00     0.011 A 
HETATM    8 BR1  UNL     1      29.068  -2.710  53.159  1.00  0.00    -0.051 Br
HETATM    9  C6  UNL     1      27.038  -0.654  53.127  1.00  0.00     0.033 A 
HETATM   10  C7  UNL     1      26.465   0.592  53.271  1.00  0.00     0.008 A 
HETATM   11  C8  UNL     1      25.125   1.126  53.085  1.00  0.00     0.047 A 
HETATM   12  C9  UNL     1      24.185   0.269  52.739  1.00  0.00     0.058 C 
HETATM   13  H1  UNL     1      26.886   3.741  54.122  1.00  0.00     0.169 HD
ENDROOT
BRANCH  12  14
HETATM   14  C10 UNL     1      22.862   0.858  52.710  1.00  0.00     0.176 A 
HETATM   15  C11 UNL     1      21.585   1.091  53.179  1.00  0.00     0.087 A 
HETATM   16  C12 UNL     1      21.416   1.688  51.915  1.00  0.00     0.384 A 
HETATM   17  C13 UNL     1      21.975   2.109  50.514  1.00  0.00     0.540 A 
HETATM   18  C15 UNL     1      19.972   1.890  51.378  1.00  0.00     0.118 C 
HETATM   19  N2  UNL     1      22.292   1.544  51.570  1.00  0.00     0.202 N 
HETATM   20  N3  UNL     1      21.353   1.691  50.370  1.00  0.00     0.183 N 
HETATM   21  C14 UNL     1      20.278   0.939  50.176  1.00  0.00     0.268 C 
ENDBRANCH  12  14
TORSDOF 1
ENDMDL
MODEL 6
REMARK VINA RESULT:      -7.7      3.808      5.814
REMARK  1 active torsions:
REMARK  status: ('A' for Active; 'I' for Inactive)
REMARK    1  A    between atoms: C9_12  and  C10_13 
ROOT
HETATM    1  O1  UNL     1      24.392   2.997  53.339  1.00  0.00    -0.267 OA
HETATM    2  C1  UNL     1      24.111   3.451  52.184  1.00  0.00     0.257 A 
HETATM    3  N1  UNL     1      24.440   4.668  51.524  1.00  0.00    -0.322 N 
HETATM    4  C2  UNL     1      23.850   4.641  50.230  1.00  0.00     0.046 A 
HETATM    5  C3  UNL     1      23.909   5.590  49.228  1.00  0.00     0.032 A 
HETATM    6  C4  UNL     1      23.285   5.379  48.019  1.00  0.00     0.021 A 
HETATM    7  C5  UNL     1      22.601   4.182  47.863  1.00  0.00     0.011 A 
HETATM    8 BR1  UNL     1      21.732   3.874  46.182  1.00  0.00    -0.051 Br
HETATM    9  C6  UNL     1      22.572   3.276  48.882  1.00  0.00     0.033 A 
HETATM   10  C7  UNL     1      23.181   3.443  50.107  1.00  0.00     0.008 A 
HETATM   11  C8  UNL     1      23.297   2.630  51.307  1.00  0.00     0.047 A 
HETATM   12  C9  UNL     1      22.754   1.430  51.269  1.00  0.00     0.058 C 
HETATM   13  H1  UNL     1      25.025   5.370  52.031  1.00  0.00     0.169 HD
ENDROOT
BRANCH  12  14
HETATM   14  C10 UNL     1      23.036   0.640  52.450  1.00  0.00     0.176 A 
HETATM   15  C11 UNL     1      23.762  -0.245  53.220  1.00  0.00     0.087 A 
HETATM   16  C12 UNL     1      22.614  -0.209  54.036  1.00  0.00     0.384 A 
HETATM   17  C13 UNL     1      21.176   0.324  54.352  1.00  0.00     0.540 A 
HETATM   18  C15 UNL     1      22.387  -1.366  55.047  1.00  0.00     0.118 C 
HETATM   19  N2  UNL     1      22.095   0.405  53.524  1.00  0.00     0.202 N 
HETATM   20  N3  UNL     1      21.117  -0.437  54.349  1.00  0.00     0.183 N 
HETATM   21  C14 UNL     1      21.067  -1.762  54.311  1.00  0.00     0.268 C 
ENDBRANCH  12  14
TORSDOF 1
ENDMDL
MODEL 7
REMARK VINA RESULT:      -7.7      2.139      2.583
REMARK  1 active torsions:
REMARK  status: ('A' for Active; 'I' for Inactive)
REMARK    1  A    between atoms: C9_12  and  C10_13 
ROOT
HETATM    1  O1  UNL     1      24.960   2.465  53.452  1.00  0.00    -0.267 OA
HETATM    2  C1  UNL     1      23.780   2.382  52.984  1.00  0.00     0.257 A 
HETATM    3  N1  UNL     1      22.925   3.332  52.359  1.00  0.00    -0.322 N 
HETATM    4  C2  UNL     1      21.704   2.680  52.035  1.00  0.00     0.046 A 
HETATM    5  C3  UNL     1      20.585   3.191  51.406  1.00  0.00     0.032 A 
HETATM    6  C4  UNL     1      19.490   2.394  51.156  1.00  0.00     0.021 A 
HETATM    7  C5  UNL     1      19.568   1.070  51.564  1.00  0.00     0.011 A 
HETATM    8 BR1  UNL     1      18.051  -0.051  51.215  1.00  0.00    -0.051 Br
HETATM    9  C6  UNL     1      20.694   0.612  52.180  1.00  0.00     0.033 A 
HETATM   10  C7  UNL     1      21.812   1.371  52.452  1.00  0.00     0.008 A 
HETATM   11  C8  UNL     1      23.102   1.101  53.067  1.00  0.00     0.047 A 
HETATM   12  C9  UNL     1      23.339  -0.141  53.435  1.00  0.00     0.058 C 
HETATM   13  H1  UNL     1      23.273   4.308  52.228  1.00  0.00     0.169 HD
ENDROOT
BRANCH  12  14
HETATM   14  C10 UNL     1      24.693  -0.346  53.909  1.00  0.00     0.176 A 
HETATM   15  C11 UNL     1      25.698  -0.373  54.854  1.00  0.00     0.087 A 
HETATM   16  C12 UNL     1      26.521  -0.533  53.722  1.00  0.00     0.384 A 
HETATM   17  C13 UNL     1      26.707  -0.674  52.174  1.00  0.00     0.540 A 
HETATM   18  C15 UNL     1      28.035  -0.208  53.856  1.00  0.00     0.118 C 
HETATM   19  N2  UNL     1      25.845  -0.523  53.051  1.00  0.00     0.202 N 
HETATM   20  N3  UNL     1      27.153  -0.090  52.383  1.00  0.00     0.183 N 
HETATM   21  C14 UNL     1      27.892   0.931  52.795  1.00  0.00     0.268 C 
ENDBRANCH  12  14
TORSDOF 1
ENDMDL
MODEL 8
REMARK VINA RESULT:      -7.6      3.135      4.068
REMARK  1 active torsions:
REMARK  status: ('A' for Active; 'I' for Inactive)
REMARK    1  A    between atoms: C9_12  and  C10_13 
ROOT
HETATM    1  O1  UNL     1      27.487   2.506  52.216  1.00  0.00    -0.267 OA
HETATM    2  C1  UNL     1      26.421   2.566  51.524  1.00  0.00     0.257 A 
HETATM    3  N1  UNL     1      26.085   3.267  50.334  1.00  0.00    -0.322 N 
HETATM    4  C2  UNL     1      24.736   2.959  50.005  1.00  0.00     0.046 A 
HETATM    5  C3  UNL     1      23.982   3.391  48.931  1.00  0.00     0.032 A 
HETATM    6  C4  UNL     1      22.682   2.966  48.766  1.00  0.00     0.021 A 
HETATM    7  C5  UNL     1      22.177   2.096  49.721  1.00  0.00     0.011 A 
HETATM    8 BR1  UNL     1      20.370   1.493  49.497  1.00  0.00    -0.051 Br
HETATM    9  C6  UNL     1      22.960   1.698  50.763  1.00  0.00     0.033 A 
HETATM   10  C7  UNL     1      24.264   2.096  50.970  1.00  0.00     0.008 A 
HETATM   11  C8  UNL     1      25.274   1.797  51.973  1.00  0.00     0.047 A 
HETATM   12  C9  UNL     1      24.950   0.922  52.903  1.00  0.00     0.058 C 
HETATM   13  H1  UNL     1      26.812   3.870  49.886  1.00  0.00     0.169 HD
ENDROOT
BRANCH  12  14
HETATM   14  C10 UNL     1      26.056   0.582  53.775  1.00  0.00     0.176 A 
HETATM   15  C11 UNL     1      26.890   0.747  54.861  1.00  0.00     0.087 A 
HETATM   16  C12 UNL     1      27.642  -0.255  54.217  1.00  0.00     0.384 A 
HETATM   17  C13 UNL     1      27.854  -1.261  53.037  1.00  0.00     0.540 A 
HETATM   18  C15 UNL     1      29.139  -0.419  54.601  1.00  0.00     0.118 C 
HETATM   19  N2  UNL     1      27.080  -0.391  53.461  1.00  0.00     0.202 N 
HETATM   20  N3  UNL     1      28.489  -0.839  53.063  1.00  0.00     0.183 N 
HETATM   21  C14 UNL     1      29.561  -0.061  53.139  1.00  0.00     0.268 C 
ENDBRANCH  12  14
TORSDOF 1
ENDMDL
MODEL 9
REMARK VINA RESULT:      -7.6      5.325      6.810
REMARK  1 active torsions:
REMARK  status: ('A' for Active; 'I' for Inactive)
REMARK    1  A    between atoms: C9_12  and  C10_13 
ROOT
HETATM    1  O1  UNL     1      26.414   3.727  49.905  1.00  0.00    -0.267 OA
HETATM    2  C1  UNL     1      26.060   2.799  50.701  1.00  0.00     0.257 A 
HETATM    3  N1  UNL     1      26.795   1.816  51.419  1.00  0.00    -0.322 N 
HETATM    4  C2  UNL     1      25.871   1.031  52.163  1.00  0.00     0.046 A 
HETATM    5  C3  UNL     1      26.119  -0.026  53.017  1.00  0.00     0.032 A 
HETATM    6  C4  UNL     1      25.087  -0.661  53.672  1.00  0.00     0.021 A 
HETATM    7  C5  UNL     1      23.804  -0.190  53.432  1.00  0.00     0.011 A 
HETATM    8 BR1  UNL     1      22.359  -1.062  54.343  1.00  0.00    -0.051 Br
HETATM    9  C6  UNL     1      23.611   0.856  52.580  1.00  0.00     0.033 A 
HETATM   10  C7  UNL     1      24.610   1.521  51.903  1.00  0.00     0.008 A 
HETATM   11  C8  UNL     1      24.644   2.646  50.981  1.00  0.00     0.047 A 
HETATM   12  C9  UNL     1      23.496   3.238  50.722  1.00  0.00     0.058 C 
HETATM   13  H1  UNL     1      27.835   1.797  51.318  1.00  0.00     0.169 HD
ENDROOT
BRANCH  12  14
HETATM   14  C10 UNL     1      23.641   4.428  49.908  1.00  0.00     0.176 A 
HETATM   15  C11 UNL     1      23.804   5.126  48.729  1.00  0.00     0.087 A 
HETATM   16  C12 UNL     1      24.011   6.212  49.602  1.00  0.00     0.384 A 
HETATM   17  C13 UNL     1      24.096   6.810  51.047  1.00  0.00     0.540 A 
HETATM   18  C15 UNL     1      24.742   7.470  49.058  1.00  0.00     0.118 C 
HETATM   19  N2  UNL     1      23.897   5.754  50.429  1.00  0.00     0.202 N 
HETATM   20  N3  UNL     1      24.758   6.988  50.710  1.00  0.00     0.183 N 
HETATM   21  C14 UNL     1      25.898   7.253  50.087  1.00  0.00     0.268 C 
ENDBRANCH  12  14
TORSDOF 1
ENDMDL
