MODEL 1
REMARK VINA RESULT:      -5.9      0.000      0.000
REMARK  10 active torsions:
REMARK  status: ('A' for Active; 'I' for Inactive)
REMARK    1  A    between atoms: C2_2  and  N1_3 
REMARK    2  A    between atoms: N1_3  and  C4_5 
REMARK    3  A    between atoms: C4_5  and  C5_6 
REMARK    4  A    between atoms: C5_6  and  N2_7 
REMARK    5  A    between atoms: N2_7  and  C6_8 
REMARK    6  A    between atoms: C6_8  and  C7_9 
REMARK    7  A    between atoms: C7_9  and  C8_10 
REMARK    8  A    between atoms: C8_10  and  O1_11 
REMARK    9  A    between atoms: O1_11  and  C9_12 
REMARK   10  A    between atoms: C15_20  and  O2_21 
ROOT
HETATM    1  O1  UNL     1      23.549  -0.802  53.268  1.00  0.00    -0.348 OA
ENDROOT
BRANCH   1   2
HETATM    2  C8  UNL     1      22.994  -0.977  54.564  1.00  0.00     0.177 C 
BRANCH   2   3
HETATM    3  C7  UNL     1      21.508  -1.028  54.592  1.00  0.00     0.056 C 
BRANCH   3   4
HETATM    4  C6  UNL     1      20.873   0.299  54.336  1.00  0.00     0.272 C 
BRANCH   4   5
HETATM    5  N2  UNL     1      21.177   0.811  53.011  1.00  0.00     0.085 N 
HETATM    6  H11 UNL     1      22.174   0.712  52.754  1.00  0.00     0.315 HD
BRANCH   5   7
HETATM    7  C5  UNL     1      20.359   0.259  51.977  1.00  0.00     0.289 C 
BRANCH   7   8
HETATM    8  C4  UNL     1      18.925   0.720  52.097  1.00  0.00     0.151 C 
BRANCH   8   9
HETATM    9  N1  UNL     1      18.002  -0.375  52.174  1.00  0.00    -0.396 N 
HETATM   10  C3  UNL     1      17.013  -0.568  51.145  1.00  0.00     0.148 C 
BRANCH   9  11
HETATM   11  C2  UNL     1      17.927  -1.355  53.196  1.00  0.00     0.058 C 
HETATM   12  C1  UNL     1      17.855  -2.588  53.663  1.00  0.00     0.049 C 
ENDBRANCH   9  11
ENDBRANCH   8   9
ENDBRANCH   7   8
ENDBRANCH   5   7
ENDBRANCH   4   5
ENDBRANCH   3   4
ENDBRANCH   2   3
ENDBRANCH   1   2
BRANCH   1  13
HETATM   13  C9  UNL     1      24.857  -0.259  53.284  1.00  0.00     0.103 C 
HETATM   14  C10 UNL     1      25.875  -0.917  53.891  1.00  0.00     0.069 C 
HETATM   15  C11 UNL     1      27.051  -0.068  53.786  1.00  0.00     0.067 A 
HETATM   16  N3  UNL     1      28.067  -0.082  54.605  1.00  0.00    -0.244 NA
HETATM   17  C13 UNL     1      27.354   0.948  52.799  1.00  0.00     0.186 A 
HETATM   18  C12 UNL     1      29.026   0.918  54.195  1.00  0.00     0.228 A 
HETATM   19  N4  UNL     1      28.576   1.527  53.122  1.00  0.00    -0.267 NA
HETATM   20  C14 UNL     1      26.181   1.630  52.308  1.00  0.00     0.046 C 
HETATM   21  C15 UNL     1      25.000   1.011  52.536  1.00  0.00     0.100 C 
BRANCH  21  22
HETATM   22  O2  UNL     1      23.877   1.635  52.023  1.00  0.00    -0.353 OA
HETATM   23  C16 UNL     1      23.958   2.408  50.866  1.00  0.00     0.210 C 
ENDBRANCH  21  22
ENDBRANCH   1  13
TORSDOF 10
ENDMDL
MODEL 2
REMARK VINA RESULT:      -5.7      1.612      2.358
REMARK  10 active torsions:
REMARK  status: ('A' for Active; 'I' for Inactive)
REMARK    1  A    between atoms: C2_2  and  N1_3 
REMARK    2  A    between atoms: N1_3  and  C4_5 
REMARK    3  A    between atoms: C4_5  and  C5_6 
REMARK    4  A    between atoms: C5_6  and  N2_7 
REMARK    5  A    between atoms: N2_7  and  C6_8 
REMARK    6  A    between atoms: C6_8  and  C7_9 
REMARK    7  A    between atoms: C7_9  and  C8_10 
REMARK    8  A    between atoms: C8_10  and  O1_11 
REMARK    9  A    between atoms: O1_11  and  C9_12 
REMARK   10  A    between atoms: C15_20  and  O2_21 
ROOT
HETATM    1  O1  UNL     1      23.496  -0.664  53.279  1.00  0.00    -0.348 OA
ENDROOT
BRANCH   1   2
HETATM    2  C8  UNL     1      22.841  -1.048  54.480  1.00  0.00     0.177 C 
BRANCH   2   3
HETATM    3  C7  UNL     1      21.356  -1.030  54.401  1.00  0.00     0.056 C 
BRANCH   3   4
HETATM    4  C6  UNL     1      20.783   0.345  54.510  1.00  0.00     0.272 C 
BRANCH   4   5
HETATM    5  N2  UNL     1      20.782   1.047  53.238  1.00  0.00     0.085 N 
HETATM    6  H11 UNL     1      21.705   1.445  52.991  1.00  0.00     0.315 HD
BRANCH   5   7
HETATM    7  C5  UNL     1      20.293   0.264  52.146  1.00  0.00     0.289 C 
BRANCH   7   8
HETATM    8  C4  UNL     1      21.211   0.346  50.949  1.00  0.00     0.151 C 
BRANCH   8   9
HETATM    9  N1  UNL     1      20.607   1.025  49.840  1.00  0.00    -0.396 N 
HETATM   10  C3  UNL     1      21.384   1.341  48.669  1.00  0.00     0.148 C 
BRANCH   9  11
HETATM   11  C2  UNL     1      19.260   1.455  49.736  1.00  0.00     0.058 C 
HETATM   12  C1  UNL     1      18.292   2.256  49.330  1.00  0.00     0.049 C 
ENDBRANCH   9  11
ENDBRANCH   8   9
ENDBRANCH   7   8
ENDBRANCH   5   7
ENDBRANCH   4   5
ENDBRANCH   3   4
ENDBRANCH   2   3
ENDBRANCH   1   2
BRANCH   1  13
HETATM   13  C9  UNL     1      24.773  -0.092  53.492  1.00  0.00     0.103 C 
HETATM   14  C10 UNL     1      25.849  -0.874  53.757  1.00  0.00     0.069 C 
HETATM   15  C11 UNL     1      26.975   0.017  53.987  1.00  0.00     0.067 A 
HETATM   16  N3  UNL     1      28.024  -0.265  54.710  1.00  0.00    -0.244 NA
HETATM   17  C13 UNL     1      27.183   1.365  53.499  1.00  0.00     0.186 A 
HETATM   18  C12 UNL     1      28.913   0.874  54.728  1.00  0.00     0.228 A 
HETATM   19  N4  UNL     1      28.386   1.838  54.008  1.00  0.00    -0.267 NA
HETATM   20  C14 UNL     1      25.956   2.111  53.352  1.00  0.00     0.046 C 
HETATM   21  C15 UNL     1      24.819   1.379  53.328  1.00  0.00     0.100 C 
BRANCH  21  22
HETATM   22  O2  UNL     1      23.645   2.085  53.137  1.00  0.00    -0.353 OA
HETATM   23  C16 UNL     1      23.563   3.081  52.165  1.00  0.00     0.210 C 
ENDBRANCH  21  22
ENDBRANCH   1  13
TORSDOF 10
ENDMDL
MODEL 3
REMARK VINA RESULT:      -5.7      2.855      4.955
REMARK  10 active torsions:
REMARK  status: ('A' for Active; 'I' for Inactive)
REMARK    1  A    between atoms: C2_2  and  N1_3 
REMARK    2  A    between atoms: N1_3  and  C4_5 
REMARK    3  A    between atoms: C4_5  and  C5_6 
REMARK    4  A    between atoms: C5_6  and  N2_7 
REMARK    5  A    between atoms: N2_7  and  C6_8 
REMARK    6  A    between atoms: C6_8  and  C7_9 
REMARK    7  A    between atoms: C7_9  and  C8_10 
REMARK    8  A    between atoms: C8_10  and  O1_11 
REMARK    9  A    between atoms: O1_11  and  C9_12 
REMARK   10  A    between atoms: C15_20  and  O2_21 
ROOT
HETATM    1  O1  UNL     1      25.343   2.746  50.874  1.00  0.00    -0.348 OA
ENDROOT
BRANCH   1   2
HETATM    2  C8  UNL     1      26.232   3.585  50.149  1.00  0.00     0.177 C 
BRANCH   2   3
HETATM    3  C7  UNL     1      25.558   4.597  49.293  1.00  0.00     0.056 C 
BRANCH   3   4
HETATM    4  C6  UNL     1      25.242   5.861  50.022  1.00  0.00     0.272 C 
BRANCH   4   5
HETATM    5  N2  UNL     1      24.674   5.615  51.336  1.00  0.00     0.085 N 
HETATM    6  H11 UNL     1      25.042   6.251  52.065  1.00  0.00     0.315 HD
BRANCH   5   7
HETATM    7  C5  UNL     1      23.245   5.636  51.362  1.00  0.00     0.289 C 
BRANCH   7   8
HETATM    8  C4  UNL     1      22.692   4.597  52.309  1.00  0.00     0.151 C 
BRANCH   8   9
HETATM    9  N1  UNL     1      21.817   3.668  51.653  1.00  0.00    -0.396 N 
HETATM   10  C3  UNL     1      20.681   3.122  52.351  1.00  0.00     0.148 C 
BRANCH   9  11
HETATM   11  C2  UNL     1      21.930   3.184  50.326  1.00  0.00     0.058 C 
HETATM   12  C1  UNL     1      22.000   2.244  49.401  1.00  0.00     0.049 C 
ENDBRANCH   9  11
ENDBRANCH   8   9
ENDBRANCH   7   8
ENDBRANCH   5   7
ENDBRANCH   4   5
ENDBRANCH   3   4
ENDBRANCH   2   3
ENDBRANCH   1   2
BRANCH   1  13
HETATM   13  C9  UNL     1      25.977   2.013  51.906  1.00  0.00     0.103 C 
HETATM   14  C10 UNL     1      27.283   2.218  52.203  1.00  0.00     0.069 C 
HETATM   15  C11 UNL     1      27.635   1.271  53.249  1.00  0.00     0.067 A 
HETATM   16  N3  UNL     1      28.834   0.810  53.477  1.00  0.00    -0.244 NA
HETATM   17  C13 UNL     1      26.777   0.641  54.232  1.00  0.00     0.186 A 
HETATM   18  C12 UNL     1      28.786  -0.128  54.576  1.00  0.00     0.228 A 
HETATM   19  N4  UNL     1      27.547  -0.221  55.003  1.00  0.00    -0.267 NA
HETATM   20  C14 UNL     1      25.439   0.399  53.746  1.00  0.00     0.046 C 
HETATM   21  C15 UNL     1      25.078   1.092  52.641  1.00  0.00     0.100 C 
BRANCH  21  22
HETATM   22  O2  UNL     1      23.781   0.903  52.201  1.00  0.00    -0.353 OA
HETATM   23  C16 UNL     1      22.907   0.072  52.899  1.00  0.00     0.210 C 
ENDBRANCH  21  22
ENDBRANCH   1  13
TORSDOF 10
ENDMDL
MODEL 4
REMARK VINA RESULT:      -5.7      3.279      6.180
REMARK  10 active torsions:
REMARK  status: ('A' for Active; 'I' for Inactive)
REMARK    1  A    between atoms: C2_2  and  N1_3 
REMARK    2  A    between atoms: N1_3  and  C4_5 
REMARK    3  A    between atoms: C4_5  and  C5_6 
REMARK    4  A    between atoms: C5_6  and  N2_7 
REMARK    5  A    between atoms: N2_7  and  C6_8 
REMARK    6  A    between atoms: C6_8  and  C7_9 
REMARK    7  A    between atoms: C7_9  and  C8_10 
REMARK    8  A    between atoms: C8_10  and  O1_11 
REMARK    9  A    between atoms: O1_11  and  C9_12 
REMARK   10  A    between atoms: C15_20  and  O2_21 
ROOT
HETATM    1  O1  UNL     1      23.125   1.973  52.648  1.00  0.00    -0.348 OA
ENDROOT
BRANCH   1   2
HETATM    2  C8  UNL     1      23.326   3.137  51.860  1.00  0.00     0.177 C 
BRANCH   2   3
HETATM    3  C7  UNL     1      22.332   4.218  52.095  1.00  0.00     0.056 C 
BRANCH   3   4
HETATM    4  C6  UNL     1      22.403   5.308  51.077  1.00  0.00     0.272 C 
BRANCH   4   5
HETATM    5  N2  UNL     1      23.102   6.482  51.570  1.00  0.00     0.085 N 
HETATM    6  H11 UNL     1      23.159   6.518  52.603  1.00  0.00     0.315 HD
BRANCH   5   7
HETATM    7  C5  UNL     1      24.408   6.654  51.013  1.00  0.00     0.289 C 
BRANCH   7   8
HETATM    8  C4  UNL     1      24.479   6.137  49.596  1.00  0.00     0.151 C 
BRANCH   8   9
HETATM    9  N1  UNL     1      25.777   5.626  49.263  1.00  0.00    -0.396 N 
HETATM   10  C3  UNL     1      26.787   6.500  48.724  1.00  0.00     0.148 C 
BRANCH   9  11
HETATM   11  C2  UNL     1      26.226   4.289  49.400  1.00  0.00     0.058 C 
HETATM   12  C1  UNL     1      26.572   3.210  50.079  1.00  0.00     0.049 C 
ENDBRANCH   9  11
ENDBRANCH   8   9
ENDBRANCH   7   8
ENDBRANCH   5   7
ENDBRANCH   4   5
ENDBRANCH   3   4
ENDBRANCH   2   3
ENDBRANCH   1   2
BRANCH   1  13
HETATM   13  C9  UNL     1      24.317   1.464  53.218  1.00  0.00     0.103 C 
HETATM   14  C10 UNL     1      25.353   2.288  53.511  1.00  0.00     0.069 C 
HETATM   15  C11 UNL     1      26.431   1.451  54.013  1.00  0.00     0.067 A 
HETATM   16  N3  UNL     1      27.702   1.743  53.955  1.00  0.00    -0.244 NA
HETATM   17  C13 UNL     1      26.353   0.156  54.658  1.00  0.00     0.186 A 
HETATM   18  C12 UNL     1      28.469   0.660  54.528  1.00  0.00     0.228 A 
HETATM   19  N4  UNL     1      27.644  -0.280  54.931  1.00  0.00    -0.267 NA
HETATM   20  C14 UNL     1      25.254  -0.649  54.182  1.00  0.00     0.046 C 
HETATM   21  C15 UNL     1      24.281   0.014  53.516  1.00  0.00     0.100 C 
BRANCH  21  22
HETATM   22  O2  UNL     1      23.202  -0.745  53.102  1.00  0.00    -0.353 OA
HETATM   23  C16 UNL     1      22.251  -1.190  54.018  1.00  0.00     0.210 C 
ENDBRANCH  21  22
ENDBRANCH   1  13
TORSDOF 10
ENDMDL
MODEL 5
REMARK VINA RESULT:      -5.6      3.958      6.448
REMARK  10 active torsions:
REMARK  status: ('A' for Active; 'I' for Inactive)
REMARK    1  A    between atoms: C2_2  and  N1_3 
REMARK    2  A    between atoms: N1_3  and  C4_5 
REMARK    3  A    between atoms: C4_5  and  C5_6 
REMARK    4  A    between atoms: C5_6  and  N2_7 
REMARK    5  A    between atoms: N2_7  and  C6_8 
REMARK    6  A    between atoms: C6_8  and  C7_9 
REMARK    7  A    between atoms: C7_9  and  C8_10 
REMARK    8  A    between atoms: C8_10  and  O1_11 
REMARK    9  A    between atoms: O1_11  and  C9_12 
REMARK   10  A    between atoms: C15_20  and  O2_21 
ROOT
HETATM    1  O1  UNL     1      27.171   2.633  51.260  1.00  0.00    -0.348 OA
ENDROOT
BRANCH   1   2
HETATM    2  C8  UNL     1      26.189   3.327  50.503  1.00  0.00     0.177 C 
BRANCH   2   3
HETATM    3  C7  UNL     1      26.728   4.062  49.328  1.00  0.00     0.056 C 
BRANCH   3   4
HETATM    4  C6  UNL     1      25.997   5.334  49.051  1.00  0.00     0.272 C 
BRANCH   4   5
HETATM    5  N2  UNL     1      26.344   6.388  49.988  1.00  0.00     0.085 N 
HETATM    6  H11 UNL     1      26.967   7.107  49.581  1.00  0.00     0.315 HD
BRANCH   5   7
HETATM    7  C5  UNL     1      25.212   7.022  50.590  1.00  0.00     0.289 C 
BRANCH   7   8
HETATM    8  C4  UNL     1      23.929   6.651  49.885  1.00  0.00     0.151 C 
BRANCH   8   9
HETATM    9  N1  UNL     1      22.901   6.239  50.798  1.00  0.00    -0.396 N 
HETATM   10  C3  UNL     1      21.643   6.940  50.842  1.00  0.00     0.148 C 
BRANCH   9  11
HETATM   11  C2  UNL     1      22.965   5.168  51.723  1.00  0.00     0.058 C 
HETATM   12  C1  UNL     1      23.489   4.489  52.728  1.00  0.00     0.049 C 
ENDBRANCH   9  11
ENDBRANCH   8   9
ENDBRANCH   7   8
ENDBRANCH   5   7
ENDBRANCH   4   5
ENDBRANCH   3   4
ENDBRANCH   2   3
ENDBRANCH   1   2
BRANCH   1  13
HETATM   13  C9  UNL     1      26.624   1.697  52.170  1.00  0.00     0.103 C 
HETATM   14  C10 UNL     1      25.401   1.153  51.955  1.00  0.00     0.069 C 
HETATM   15  C11 UNL     1      25.111   0.296  53.093  1.00  0.00     0.067 A 
HETATM   16  N3  UNL     1      23.918  -0.019  53.517  1.00  0.00    -0.244 NA
HETATM   17  C13 UNL     1      26.036  -0.372  53.987  1.00  0.00     0.186 A 
HETATM   18  C12 UNL     1      24.030  -0.864  54.684  1.00  0.00     0.228 A 
HETATM   19  N4  UNL     1      25.303  -1.052  54.953  1.00  0.00    -0.267 NA
HETATM   20  C14 UNL     1      27.258   0.367  54.196  1.00  0.00     0.046 C 
HETATM   21  C15 UNL     1      27.523   1.337  53.291  1.00  0.00     0.100 C 
BRANCH  21  22
HETATM   22  O2  UNL     1      28.717   2.014  53.457  1.00  0.00    -0.353 OA
HETATM   23  C16 UNL     1      29.415   1.942  54.661  1.00  0.00     0.210 C 
ENDBRANCH  21  22
ENDBRANCH   1  13
TORSDOF 10
ENDMDL
MODEL 6
REMARK VINA RESULT:      -5.6      1.603      2.758
REMARK  10 active torsions:
REMARK  status: ('A' for Active; 'I' for Inactive)
REMARK    1  A    between atoms: C2_2  and  N1_3 
REMARK    2  A    between atoms: N1_3  and  C4_5 
REMARK    3  A    between atoms: C4_5  and  C5_6 
REMARK    4  A    between atoms: C5_6  and  N2_7 
REMARK    5  A    between atoms: N2_7  and  C6_8 
REMARK    6  A    between atoms: C6_8  and  C7_9 
REMARK    7  A    between atoms: C7_9  and  C8_10 
REMARK    8  A    between atoms: C8_10  and  O1_11 
REMARK    9  A    between atoms: O1_11  and  C9_12 
REMARK   10  A    between atoms: C15_20  and  O2_21 
ROOT
HETATM    1  O1  UNL     1      23.209   0.201  52.942  1.00  0.00    -0.348 OA
ENDROOT
BRANCH   1   2
HETATM    2  C8  UNL     1      22.606  -0.938  53.541  1.00  0.00     0.177 C 
BRANCH   2   3
HETATM    3  C7  UNL     1      21.682  -0.624  54.662  1.00  0.00     0.056 C 
BRANCH   3   4
HETATM    4  C6  UNL     1      20.417   0.030  54.211  1.00  0.00     0.272 C 
BRANCH   4   5
HETATM    5  N2  UNL     1      20.346   0.158  52.766  1.00  0.00     0.085 N 
HETATM    6  H11 UNL     1      19.888  -0.649  52.307  1.00  0.00     0.315 HD
BRANCH   5   7
HETATM    7  C5  UNL     1      19.731   1.370  52.322  1.00  0.00     0.289 C 
BRANCH   7   8
HETATM    8  C4  UNL     1      20.691   2.535  52.385  1.00  0.00     0.151 C 
BRANCH   8   9
HETATM    9  N1  UNL     1      21.027   3.039  51.085  1.00  0.00    -0.396 N 
HETATM   10  C3  UNL     1      21.136   4.458  50.861  1.00  0.00     0.148 C 
BRANCH   9  11
HETATM   11  C2  UNL     1      21.280   2.279  49.916  1.00  0.00     0.058 C 
HETATM   12  C1  UNL     1      21.638   1.194  49.253  1.00  0.00     0.049 C 
ENDBRANCH   9  11
ENDBRANCH   8   9
ENDBRANCH   7   8
ENDBRANCH   5   7
ENDBRANCH   4   5
ENDBRANCH   3   4
ENDBRANCH   2   3
ENDBRANCH   1   2
BRANCH   1  13
HETATM   13  C9  UNL     1      24.614   0.251  53.115  1.00  0.00     0.103 C 
HETATM   14  C10 UNL     1      25.223  -0.490  54.072  1.00  0.00     0.069 C 
HETATM   15  C11 UNL     1      26.638  -0.161  54.028  1.00  0.00     0.067 A 
HETATM   16  N3  UNL     1      27.468  -0.262  55.030  1.00  0.00    -0.244 NA
HETATM   17  C13 UNL     1      27.421   0.340  52.916  1.00  0.00     0.186 A 
HETATM   18  C12 UNL     1      28.779   0.180  54.613  1.00  0.00     0.228 A 
HETATM   19  N4  UNL     1      28.725   0.545  53.351  1.00  0.00    -0.267 NA
HETATM   20  C14 UNL     1      26.666   1.190  52.028  1.00  0.00     0.046 C 
HETATM   21  C15 UNL     1      25.320   1.105  52.132  1.00  0.00     0.100 C 
BRANCH  21  22
HETATM   22  O2  UNL     1      24.591   1.880  51.248  1.00  0.00    -0.353 OA
HETATM   23  C16 UNL     1      24.706   3.269  51.256  1.00  0.00     0.210 C 
ENDBRANCH  21  22
ENDBRANCH   1  13
TORSDOF 10
ENDMDL
MODEL 7
REMARK VINA RESULT:      -5.5      2.931      5.144
REMARK  10 active torsions:
REMARK  status: ('A' for Active; 'I' for Inactive)
REMARK    1  A    between atoms: C2_2  and  N1_3 
REMARK    2  A    between atoms: N1_3  and  C4_5 
REMARK    3  A    between atoms: C4_5  and  C5_6 
REMARK    4  A    between atoms: C5_6  and  N2_7 
REMARK    5  A    between atoms: N2_7  and  C6_8 
REMARK    6  A    between atoms: C6_8  and  C7_9 
REMARK    7  A    between atoms: C7_9  and  C8_10 
REMARK    8  A    between atoms: C8_10  and  O1_11 
REMARK    9  A    between atoms: O1_11  and  C9_12 
REMARK   10  A    between atoms: C15_20  and  O2_21 
ROOT
HETATM    1  O1  UNL     1      26.839   2.532  51.818  1.00  0.00    -0.348 OA
ENDROOT
BRANCH   1   2
HETATM    2  C8  UNL     1      26.340   2.464  50.490  1.00  0.00     0.177 C 
BRANCH   2   3
HETATM    3  C7  UNL     1      26.577   3.691  49.682  1.00  0.00     0.056 C 
BRANCH   3   4
HETATM    4  C6  UNL     1      25.537   4.741  49.897  1.00  0.00     0.272 C 
BRANCH   4   5
HETATM    5  N2  UNL     1      24.917   4.646  51.207  1.00  0.00     0.085 N 
HETATM    6  H11 UNL     1      25.359   5.261  51.913  1.00  0.00     0.315 HD
BRANCH   5   7
HETATM    7  C5  UNL     1      23.505   4.871  51.196  1.00  0.00     0.289 C 
BRANCH   7   8
HETATM    8  C4  UNL     1      22.791   3.962  52.169  1.00  0.00     0.151 C 
BRANCH   8   9
HETATM    9  N1  UNL     1      21.881   3.066  51.515  1.00  0.00    -0.396 N 
HETATM   10  C3  UNL     1      21.572   3.234  50.118  1.00  0.00     0.148 C 
BRANCH   9  11
HETATM   11  C2  UNL     1      21.202   1.968  52.099  1.00  0.00     0.058 C 
HETATM   12  C1  UNL     1      20.592   1.327  53.080  1.00  0.00     0.049 C 
ENDBRANCH   9  11
ENDBRANCH   8   9
ENDBRANCH   7   8
ENDBRANCH   5   7
ENDBRANCH   4   5
ENDBRANCH   3   4
ENDBRANCH   2   3
ENDBRANCH   1   2
BRANCH   1  13
HETATM   13  C9  UNL     1      26.279   1.558  52.681  1.00  0.00     0.103 C 
HETATM   14  C10 UNL     1      25.156   0.885  52.332  1.00  0.00     0.069 C 
HETATM   15  C11 UNL     1      24.814   0.021  53.451  1.00  0.00     0.067 A 
HETATM   16  N3  UNL     1      23.615  -0.410  53.733  1.00  0.00    -0.244 NA
HETATM   17  C13 UNL     1      25.682  -0.531  54.471  1.00  0.00     0.186 A 
HETATM   18  C12 UNL     1      23.666  -1.219  54.929  1.00  0.00     0.228 A 
HETATM   19  N4  UNL     1      24.907  -1.268  55.358  1.00  0.00    -0.267 NA
HETATM   20  C14 UNL     1      26.786   0.336  54.807  1.00  0.00     0.046 C 
HETATM   21  C15 UNL     1      27.062   1.313  53.914  1.00  0.00     0.100 C 
BRANCH  21  22
HETATM   22  O2  UNL     1      28.151   2.114  54.207  1.00  0.00    -0.353 OA
HETATM   23  C16 UNL     1      29.419   1.561  54.370  1.00  0.00     0.210 C 
ENDBRANCH  21  22
ENDBRANCH   1  13
TORSDOF 10
ENDMDL
MODEL 8
REMARK VINA RESULT:      -5.5      3.277      6.597
REMARK  10 active torsions:
REMARK  status: ('A' for Active; 'I' for Inactive)
REMARK    1  A    between atoms: C2_2  and  N1_3 
REMARK    2  A    between atoms: N1_3  and  C4_5 
REMARK    3  A    between atoms: C4_5  and  C5_6 
REMARK    4  A    between atoms: C5_6  and  N2_7 
REMARK    5  A    between atoms: N2_7  and  C6_8 
REMARK    6  A    between atoms: C6_8  and  C7_9 
REMARK    7  A    between atoms: C7_9  and  C8_10 
REMARK    8  A    between atoms: C8_10  and  O1_11 
REMARK    9  A    between atoms: O1_11  and  C9_12 
REMARK   10  A    between atoms: C15_20  and  O2_21 
ROOT
HETATM    1  O1  UNL     1      23.153   1.926  52.578  1.00  0.00    -0.348 OA
ENDROOT
BRANCH   1   2
HETATM    2  C8  UNL     1      23.381   2.959  51.630  1.00  0.00     0.177 C 
BRANCH   2   3
HETATM    3  C7  UNL     1      23.260   2.528  50.212  1.00  0.00     0.056 C 
BRANCH   3   4
HETATM    4  C6  UNL     1      24.095   3.343  49.281  1.00  0.00     0.272 C 
BRANCH   4   5
HETATM    5  N2  UNL     1      25.511   3.263  49.594  1.00  0.00     0.085 N 
HETATM    6  H11 UNL     1      26.046   2.683  48.924  1.00  0.00     0.315 HD
BRANCH   5   7
HETATM    7  C5  UNL     1      26.145   4.537  49.733  1.00  0.00     0.289 C 
BRANCH   7   8
HETATM    8  C4  UNL     1      25.288   5.647  49.171  1.00  0.00     0.151 C 
BRANCH   8   9
HETATM    9  N1  UNL     1      25.199   6.773  50.056  1.00  0.00    -0.396 N 
HETATM   10  C3  UNL     1      24.304   6.743  51.184  1.00  0.00     0.148 C 
BRANCH   9  11
HETATM   11  C2  UNL     1      25.920   7.989  49.960  1.00  0.00     0.058 C 
HETATM   12  C1  UNL     1      26.949   8.787  50.184  1.00  0.00     0.049 C 
ENDBRANCH   9  11
ENDBRANCH   8   9
ENDBRANCH   7   8
ENDBRANCH   5   7
ENDBRANCH   4   5
ENDBRANCH   3   4
ENDBRANCH   2   3
ENDBRANCH   1   2
BRANCH   1  13
HETATM   13  C9  UNL     1      24.341   1.439  53.177  1.00  0.00     0.103 C 
HETATM   14  C10 UNL     1      25.369   2.275  53.460  1.00  0.00     0.069 C 
HETATM   15  C11 UNL     1      26.445   1.457  53.998  1.00  0.00     0.067 A 
HETATM   16  N3  UNL     1      27.715   1.753  53.948  1.00  0.00    -0.244 NA
HETATM   17  C13 UNL     1      26.364   0.180  54.676  1.00  0.00     0.186 A 
HETATM   18  C12 UNL     1      28.479   0.691  54.559  1.00  0.00     0.228 A 
HETATM   19  N4  UNL     1      27.654  -0.242  54.977  1.00  0.00    -0.267 NA
HETATM   20  C14 UNL     1      25.275  -0.644  54.208  1.00  0.00     0.046 C 
HETATM   21  C15 UNL     1      24.308  -0.004  53.512  1.00  0.00     0.100 C 
BRANCH  21  22
HETATM   22  O2  UNL     1      23.237  -0.779  53.106  1.00  0.00    -0.353 OA
HETATM   23  C16 UNL     1      22.253  -1.167  54.012  1.00  0.00     0.210 C 
ENDBRANCH  21  22
ENDBRANCH   1  13
TORSDOF 10
ENDMDL
MODEL 9
REMARK VINA RESULT:      -5.4      0.984      2.546
REMARK  10 active torsions:
REMARK  status: ('A' for Active; 'I' for Inactive)
REMARK    1  A    between atoms: C2_2  and  N1_3 
REMARK    2  A    between atoms: N1_3  and  C4_5 
REMARK    3  A    between atoms: C4_5  and  C5_6 
REMARK    4  A    between atoms: C5_6  and  N2_7 
REMARK    5  A    between atoms: N2_7  and  C6_8 
REMARK    6  A    between atoms: C6_8  and  C7_9 
REMARK    7  A    between atoms: C7_9  and  C8_10 
REMARK    8  A    between atoms: C8_10  and  O1_11 
REMARK    9  A    between atoms: O1_11  and  C9_12 
REMARK   10  A    between atoms: C15_20  and  O2_21 
ROOT
HETATM    1  O1  UNL     1      23.563   1.212  51.929  1.00  0.00    -0.348 OA
ENDROOT
BRANCH   1   2
HETATM    2  C8  UNL     1      22.949   2.427  52.333  1.00  0.00     0.177 C 
BRANCH   2   3
HETATM    3  C7  UNL     1      21.801   2.846  51.484  1.00  0.00     0.056 C 
BRANCH   3   4
HETATM    4  C6  UNL     1      20.610   1.958  51.634  1.00  0.00     0.272 C 
BRANCH   4   5
HETATM    5  N2  UNL     1      20.574   1.294  52.925  1.00  0.00     0.085 N 
HETATM    6  H11 UNL     1      20.176   1.884  53.676  1.00  0.00     0.315 HD
BRANCH   5   7
HETATM    7  C5  UNL     1      19.905   0.030  52.906  1.00  0.00     0.289 C 
BRANCH   7   8
HETATM    8  C4  UNL     1      18.837  -0.016  51.838  1.00  0.00     0.151 C 
BRANCH   8   9
HETATM    9  N1  UNL     1      17.587  -0.515  52.334  1.00  0.00    -0.396 N 
HETATM   10  C3  UNL     1      16.364   0.202  52.079  1.00  0.00     0.148 C 
BRANCH   9  11
HETATM   11  C2  UNL     1      17.382  -1.695  53.093  1.00  0.00     0.058 C 
HETATM   12  C1  UNL     1      17.764  -2.806  53.696  1.00  0.00     0.049 C 
ENDBRANCH   9  11
ENDBRANCH   8   9
ENDBRANCH   7   8
ENDBRANCH   5   7
ENDBRANCH   4   5
ENDBRANCH   3   4
ENDBRANCH   2   3
ENDBRANCH   1   2
BRANCH   1  13
HETATM   13  C9  UNL     1      24.715   0.884  52.684  1.00  0.00     0.103 C 
HETATM   14  C10 UNL     1      25.871   1.574  52.522  1.00  0.00     0.069 C 
HETATM   15  C11 UNL     1      26.861   0.951  53.386  1.00  0.00     0.067 A 
HETATM   16  N3  UNL     1      28.152   0.976  53.194  1.00  0.00    -0.244 NA
HETATM   17  C13 UNL     1      26.658   0.186  54.599  1.00  0.00     0.186 A 
HETATM   18  C12 UNL     1      28.807   0.227  54.242  1.00  0.00     0.228 A 
HETATM   19  N4  UNL     1      27.895  -0.245  55.063  1.00  0.00    -0.267 NA
HETATM   20  C14 UNL     1      25.429  -0.572  54.593  1.00  0.00     0.046 C 
HETATM   21  C15 UNL     1      24.508  -0.195  53.677  1.00  0.00     0.100 C 
BRANCH  21  22
HETATM   22  O2  UNL     1      23.309  -0.884  53.701  1.00  0.00    -0.353 OA
HETATM   23  C16 UNL     1      22.688  -1.192  54.910  1.00  0.00     0.210 C 
ENDBRANCH  21  22
ENDBRANCH   1  13
TORSDOF 10
ENDMDL
