MODEL 1
REMARK VINA RESULT:      -7.9      0.000      0.000
REMARK  7 active torsions:
REMARK  status: ('A' for Active; 'I' for Inactive)
REMARK    1  A    between atoms: C2_2  and  C3_3 
REMARK    2  A    between atoms: C3_3  and  N1_4 
REMARK    3  A    between atoms: N1_4  and  C4_5 
REMARK    4  A    between atoms: N1_4  and  C20_27 
REMARK    5  A    between atoms: C4_5  and  C5_6 
REMARK    6  A    between atoms: C6_7  and  C7_8 
REMARK       I    between atoms: C7_8  and  N2_10 
REMARK    7  A    between atoms: N2_10  and  C8_11 
ROOT
HETATM    1  C8  UNL     1      25.512   3.275  51.156  1.00  0.00     0.029 A 
HETATM    2  C9  UNL     1      24.348   2.590  51.390  1.00  0.00     0.015 A 
HETATM    3  C10 UNL     1      24.725   1.327  51.851  1.00  0.00     0.012 A 
HETATM    4  C11 UNL     1      25.004   0.148  52.280  1.00  0.00     0.023 A 
HETATM    5  C12 UNL     1      26.016   1.195  51.931  1.00  0.00     0.030 A 
HETATM    6  C13 UNL     1      26.544   2.370  51.515  1.00  0.00     0.017 A 
HETATM    7  C14 UNL     1      26.895   0.678  53.083  1.00  0.00     0.080 A 
HETATM    8  C15 UNL     1      25.841   0.994  54.211  1.00  0.00     0.008 A 
HETATM    9  N3  UNL     1      25.341   0.722  53.098  1.00  0.00     0.000 N 
HETATM   10  C16 UNL     1      27.248  -0.703  53.107  1.00  0.00     0.036 A 
HETATM   11  C17 UNL     1      28.428  -1.231  53.287  1.00  0.00     0.072 A 
HETATM   12 CL1  UNL     1      28.911  -2.903  53.318  1.00  0.00    -0.081 Cl
HETATM   13  C18 UNL     1      29.571  -0.319  53.528  1.00  0.00     0.152 A 
HETATM   14  F1  UNL     1      30.860  -0.716  53.730  1.00  0.00    -0.203 F 
HETATM   15  C19 UNL     1      29.400   0.997  53.569  1.00  0.00     0.128 A 
HETATM   16  N4  UNL     1      28.048   1.441  53.366  1.00  0.00    -0.379 N 
HETATM   17  H17 UNL     1      27.924   2.494  53.449  1.00  0.00     0.160 HD
ENDROOT
BRANCH   1  18
HETATM   18  N2  UNL     1      25.669   4.510  50.619  1.00  0.00    -0.317 N 
HETATM   19  C7  UNL     1      26.559   4.529  49.534  1.00  0.00     0.301 C 
HETATM   20  O1  UNL     1      27.263   3.725  48.902  1.00  0.00    -0.258 OA
HETATM   21  H10 UNL     1      25.102   5.207  51.110  1.00  0.00     0.170 HD
BRANCH  19  22
HETATM   22  C6  UNL     1      26.748   5.828  48.961  1.00  0.00    -0.004 C 
HETATM   23  C5  UNL     1      26.902   6.913  48.461  1.00  0.00    -0.066 C 
BRANCH  23  24
HETATM   24  C4  UNL     1      27.084   8.212  47.833  1.00  0.00     0.366 C 
BRANCH  24  25
HETATM   25  N1  UNL     1      28.502   8.465  47.687  1.00  0.00     0.103 N 
BRANCH  25  26
HETATM   26  C3  UNL     1      28.794   9.856  47.517  1.00  0.00     0.273 C 
BRANCH  26  27
HETATM   27  C2  UNL     1      29.423  10.455  48.759  1.00  0.00     0.026 C 
HETATM   28  C1  UNL     1      30.880  10.722  48.575  1.00  0.00     0.007 C 
ENDBRANCH  26  27
ENDBRANCH  25  26
BRANCH  25  29
HETATM   29  C20 UNL     1      29.095   7.650  46.648  1.00  0.00     0.216 C 
HETATM   30  C21 UNL     1      30.403   7.094  47.183  1.00  0.00     0.042 C 
HETATM   31  C22 UNL     1      29.391   8.483  45.401  1.00  0.00     0.042 C 
ENDBRANCH  25  29
ENDBRANCH  24  25
ENDBRANCH  23  24
ENDBRANCH  19  22
ENDBRANCH   1  18
TORSDOF 7
ENDMDL
MODEL 2
REMARK VINA RESULT:      -7.8      1.635      2.249
REMARK  7 active torsions:
REMARK  status: ('A' for Active; 'I' for Inactive)
REMARK    1  A    between atoms: C2_2  and  C3_3 
REMARK    2  A    between atoms: C3_3  and  N1_4 
REMARK    3  A    between atoms: N1_4  and  C4_5 
REMARK    4  A    between atoms: N1_4  and  C20_27 
REMARK    5  A    between atoms: C4_5  and  C5_6 
REMARK    6  A    between atoms: C6_7  and  C7_8 
REMARK       I    between atoms: C7_8  and  N2_10 
REMARK    7  A    between atoms: N2_10  and  C8_11 
ROOT
HETATM    1  C8  UNL     1      25.754   4.785  49.857  1.00  0.00     0.029 A 
HETATM    2  C9  UNL     1      24.429   4.440  49.797  1.00  0.00     0.015 A 
HETATM    3  C10 UNL     1      24.338   3.153  50.329  1.00  0.00     0.012 A 
HETATM    4  C11 UNL     1      24.184   1.970  50.808  1.00  0.00     0.023 A 
HETATM    5  C12 UNL     1      25.491   2.697  50.722  1.00  0.00     0.030 A 
HETATM    6  C13 UNL     1      26.394   3.668  50.452  1.00  0.00     0.017 A 
HETATM    7  C14 UNL     1      25.903   2.040  52.051  1.00  0.00     0.080 A 
HETATM    8  C15 UNL     1      24.735   2.686  52.889  1.00  0.00     0.008 A 
HETATM    9  N3  UNL     1      24.459   2.485  51.686  1.00  0.00     0.000 N 
HETATM   10  C16 UNL     1      25.860   0.619  52.154  1.00  0.00     0.036 A 
HETATM   11  C17 UNL     1      26.781  -0.183  52.614  1.00  0.00     0.072 A 
HETATM   12 CL1  UNL     1      26.782  -1.919  52.754  1.00  0.00    -0.081 Cl
HETATM   13  C18 UNL     1      28.034   0.415  53.131  1.00  0.00     0.152 A 
HETATM   14  F1  UNL     1      29.086  -0.289  53.640  1.00  0.00    -0.203 F 
HETATM   15  C19 UNL     1      28.214   1.730  53.135  1.00  0.00     0.128 A 
HETATM   16  N4  UNL     1      27.116   2.496  52.610  1.00  0.00    -0.379 N 
HETATM   17  H17 UNL     1      27.259   3.548  52.666  1.00  0.00     0.160 HD
ENDROOT
BRANCH   1  18
HETATM   18  N2  UNL     1      26.355   5.903  49.380  1.00  0.00    -0.317 N 
HETATM   19  C7  UNL     1      27.544   5.635  48.684  1.00  0.00     0.301 C 
HETATM   20  O1  UNL     1      28.225   4.646  48.363  1.00  0.00    -0.258 OA
HETATM   21  H10 UNL     1      25.825   6.745  49.620  1.00  0.00     0.170 HD
BRANCH  19  22
HETATM   22  C6  UNL     1      28.201   6.804  48.183  1.00  0.00    -0.004 C 
HETATM   23  C5  UNL     1      28.759   7.778  47.745  1.00  0.00    -0.066 C 
BRANCH  23  24
HETATM   24  C4  UNL     1      29.443   8.939  47.197  1.00  0.00     0.366 C 
BRANCH  24  25
HETATM   25  N1  UNL     1      30.487   9.341  48.115  1.00  0.00     0.103 N 
BRANCH  25  26
HETATM   26  C3  UNL     1      30.905  10.695  47.909  1.00  0.00     0.273 C 
BRANCH  26  27
HETATM   27  C2  UNL     1      30.662  11.551  49.136  1.00  0.00     0.026 C 
HETATM   28  C1  UNL     1      29.611  12.584  48.899  1.00  0.00     0.007 C 
ENDBRANCH  26  27
ENDBRANCH  25  26
BRANCH  25  29
HETATM   29  C20 UNL     1      31.602   8.418  48.109  1.00  0.00     0.216 C 
HETATM   30  C21 UNL     1      31.910   8.050  49.549  1.00  0.00     0.042 C 
HETATM   31  C22 UNL     1      32.844   9.064  47.493  1.00  0.00     0.042 C 
ENDBRANCH  25  29
ENDBRANCH  24  25
ENDBRANCH  23  24
ENDBRANCH  19  22
ENDBRANCH   1  18
TORSDOF 7
ENDMDL
MODEL 3
REMARK VINA RESULT:      -7.8      2.654      3.810
REMARK  7 active torsions:
REMARK  status: ('A' for Active; 'I' for Inactive)
REMARK    1  A    between atoms: C2_2  and  C3_3 
REMARK    2  A    between atoms: C3_3  and  N1_4 
REMARK    3  A    between atoms: N1_4  and  C4_5 
REMARK    4  A    between atoms: N1_4  and  C20_27 
REMARK    5  A    between atoms: C4_5  and  C5_6 
REMARK    6  A    between atoms: C6_7  and  C7_8 
REMARK       I    between atoms: C7_8  and  N2_10 
REMARK    7  A    between atoms: N2_10  and  C8_11 
ROOT
HETATM    1  C8  UNL     1      26.443   4.231  49.370  1.00  0.00     0.029 A 
HETATM    2  C9  UNL     1      25.152   4.560  49.046  1.00  0.00     0.015 A 
HETATM    3  C10 UNL     1      24.334   3.721  49.805  1.00  0.00     0.012 A 
HETATM    4  C11 UNL     1      23.525   2.979  50.474  1.00  0.00     0.023 A 
HETATM    5  C12 UNL     1      25.018   2.924  50.572  1.00  0.00     0.030 A 
HETATM    6  C13 UNL     1      26.323   3.202  50.340  1.00  0.00     0.017 A 
HETATM    7  C14 UNL     1      24.873   2.618  52.073  1.00  0.00     0.080 A 
HETATM    8  C15 UNL     1      24.144   3.972  52.418  1.00  0.00     0.008 A 
HETATM    9  N3  UNL     1      23.935   3.553  51.258  1.00  0.00     0.000 N 
HETATM   10  C16 UNL     1      24.071   1.508  52.469  1.00  0.00     0.036 A 
HETATM   11  C17 UNL     1      24.369   0.560  53.315  1.00  0.00     0.072 A 
HETATM   12 CL1  UNL     1      23.432  -0.816  53.827  1.00  0.00    -0.081 Cl
HETATM   13  C18 UNL     1      25.683   0.619  53.996  1.00  0.00     0.152 A 
HETATM   14  F1  UNL     1      26.139  -0.295  54.900  1.00  0.00    -0.203 F 
HETATM   15  C19 UNL     1      26.533   1.611  53.759  1.00  0.00     0.128 A 
HETATM   16  N4  UNL     1      26.074   2.593  52.813  1.00  0.00    -0.379 N 
HETATM   17  H17 UNL     1      26.747   3.403  52.673  1.00  0.00     0.160 HD
ENDROOT
BRANCH   1  18
HETATM   18  N2  UNL     1      27.593   4.706  48.833  1.00  0.00    -0.317 N 
HETATM   19  C7  UNL     1      27.540   6.079  48.544  1.00  0.00     0.301 C 
HETATM   20  O1  UNL     1      26.727   7.013  48.640  1.00  0.00    -0.258 OA
HETATM   21  H10 UNL     1      28.296   3.968  48.738  1.00  0.00     0.170 HD
BRANCH  19  22
HETATM   22  C6  UNL     1      28.742   6.598  47.964  1.00  0.00    -0.004 C 
HETATM   23  C5  UNL     1      29.758   7.016  47.470  1.00  0.00    -0.066 C 
BRANCH  23  24
HETATM   24  C4  UNL     1      30.992   7.496  46.868  1.00  0.00     0.366 C 
BRANCH  24  25
HETATM   25  N1  UNL     1      32.090   6.681  47.343  1.00  0.00     0.103 N 
BRANCH  25  26
HETATM   26  C3  UNL     1      33.364   7.295  47.121  1.00  0.00     0.273 C 
BRANCH  26  27
HETATM   27  C2  UNL     1      34.076   7.602  48.424  1.00  0.00     0.026 C 
HETATM   28  C1  UNL     1      35.332   6.809  48.574  1.00  0.00     0.007 C 
ENDBRANCH  26  27
ENDBRANCH  25  26
BRANCH  25  29
HETATM   29  C20 UNL     1      32.034   5.333  46.817  1.00  0.00     0.216 C 
HETATM   30  C21 UNL     1      32.366   4.377  47.950  1.00  0.00     0.042 C 
HETATM   31  C22 UNL     1      33.057   5.139  45.698  1.00  0.00     0.042 C 
ENDBRANCH  25  29
ENDBRANCH  24  25
ENDBRANCH  23  24
ENDBRANCH  19  22
ENDBRANCH   1  18
TORSDOF 7
ENDMDL
MODEL 4
REMARK VINA RESULT:      -7.8      2.554      3.834
REMARK  7 active torsions:
REMARK  status: ('A' for Active; 'I' for Inactive)
REMARK    1  A    between atoms: C2_2  and  C3_3 
REMARK    2  A    between atoms: C3_3  and  N1_4 
REMARK    3  A    between atoms: N1_4  and  C4_5 
REMARK    4  A    between atoms: N1_4  and  C20_27 
REMARK    5  A    between atoms: C4_5  and  C5_6 
REMARK    6  A    between atoms: C6_7  and  C7_8 
REMARK       I    between atoms: C7_8  and  N2_10 
REMARK    7  A    between atoms: N2_10  and  C8_11 
ROOT
HETATM    1  C8  UNL     1      26.102   3.820  49.502  1.00  0.00     0.029 A 
HETATM    2  C9  UNL     1      24.773   4.034  49.246  1.00  0.00     0.015 A 
HETATM    3  C10 UNL     1      24.069   3.204  50.120  1.00  0.00     0.012 A 
HETATM    4  C11 UNL     1      23.361   2.464  50.897  1.00  0.00     0.023 A 
HETATM    5  C12 UNL     1      24.857   2.518  50.894  1.00  0.00     0.030 A 
HETATM    6  C13 UNL     1      26.120   2.864  50.551  1.00  0.00     0.017 A 
HETATM    7  C14 UNL     1      24.832   2.320  52.419  1.00  0.00     0.080 A 
HETATM    8  C15 UNL     1      24.031   3.645  52.714  1.00  0.00     0.008 A 
HETATM    9  N3  UNL     1      23.778   3.124  51.606  1.00  0.00     0.000 N 
HETATM   10  C16 UNL     1      24.140   1.193  52.952  1.00  0.00     0.036 A 
HETATM   11  C17 UNL     1      24.560   0.337  53.842  1.00  0.00     0.072 A 
HETATM   12 CL1  UNL     1      23.761  -1.055  54.518  1.00  0.00    -0.081 Cl
HETATM   13  C18 UNL     1      25.908   0.538  54.423  1.00  0.00     0.152 A 
HETATM   14  F1  UNL     1      26.487  -0.270  55.357  1.00  0.00    -0.203 F 
HETATM   15  C19 UNL     1      26.667   1.563  54.054  1.00  0.00     0.128 A 
HETATM   16  N4  UNL     1      26.077   2.434  53.074  1.00  0.00    -0.379 N 
HETATM   17  H17 UNL     1      26.679   3.275  52.828  1.00  0.00     0.160 HD
ENDROOT
BRANCH   1  18
HETATM   18  N2  UNL     1      27.178   4.328  48.852  1.00  0.00    -0.317 N 
HETATM   19  C7  UNL     1      27.186   5.731  48.816  1.00  0.00     0.301 C 
HETATM   20  O1  UNL     1      26.480   6.671  49.218  1.00  0.00    -0.258 OA
HETATM   21  H10 UNL     1      27.792   3.586  48.505  1.00  0.00     0.170 HD
BRANCH  19  22
HETATM   22  C6  UNL     1      28.309   6.288  48.123  1.00  0.00    -0.004 C 
HETATM   23  C5  UNL     1      29.266   6.746  47.553  1.00  0.00    -0.066 C 
BRANCH  23  24
HETATM   24  C4  UNL     1      30.437   7.290  46.882  1.00  0.00     0.366 C 
BRANCH  24  25
HETATM   25  N1  UNL     1      31.622   6.672  47.441  1.00  0.00     0.103 N 
BRANCH  25  26
HETATM   26  C3  UNL     1      31.540   5.243  47.453  1.00  0.00     0.273 C 
BRANCH  26  27
HETATM   27  C2  UNL     1      32.476   4.618  46.438  1.00  0.00     0.026 C 
HETATM   28  C1  UNL     1      32.354   3.130  46.407  1.00  0.00     0.007 C 
ENDBRANCH  26  27
ENDBRANCH  25  26
BRANCH  25  29
HETATM   29  C20 UNL     1      31.953   7.212  48.743  1.00  0.00     0.216 C 
HETATM   30  C21 UNL     1      33.327   7.851  48.645  1.00  0.00     0.042 C 
HETATM   31  C22 UNL     1      32.002   6.106  49.798  1.00  0.00     0.042 C 
ENDBRANCH  25  29
ENDBRANCH  24  25
ENDBRANCH  23  24
ENDBRANCH  19  22
ENDBRANCH   1  18
TORSDOF 7
ENDMDL
MODEL 5
REMARK VINA RESULT:      -7.7      2.224      3.049
REMARK  7 active torsions:
REMARK  status: ('A' for Active; 'I' for Inactive)
REMARK    1  A    between atoms: C2_2  and  C3_3 
REMARK    2  A    between atoms: C3_3  and  N1_4 
REMARK    3  A    between atoms: N1_4  and  C4_5 
REMARK    4  A    between atoms: N1_4  and  C20_27 
REMARK    5  A    between atoms: C4_5  and  C5_6 
REMARK    6  A    between atoms: C6_7  and  C7_8 
REMARK       I    between atoms: C7_8  and  N2_10 
REMARK    7  A    between atoms: N2_10  and  C8_11 
ROOT
HETATM    1  C8  UNL     1      24.480   2.866  52.669  1.00  0.00     0.029 A 
HETATM    2  C9  UNL     1      23.533   1.913  52.937  1.00  0.00     0.015 A 
HETATM    3  C10 UNL     1      24.223   0.709  53.091  1.00  0.00     0.012 A 
HETATM    4  C11 UNL     1      24.797  -0.431  53.244  1.00  0.00     0.023 A 
HETATM    5  C12 UNL     1      25.508   0.855  52.955  1.00  0.00     0.030 A 
HETATM    6  C13 UNL     1      25.715   2.167  52.695  1.00  0.00     0.017 A 
HETATM    7  C14 UNL     1      26.666   0.375  53.847  1.00  0.00     0.080 A 
HETATM    8  C15 UNL     1      25.795   0.273  55.156  1.00  0.00     0.008 A 
HETATM    9  N3  UNL     1      25.162   0.071  54.097  1.00  0.00     0.000 N 
HETATM   10  C16 UNL     1      27.276  -0.881  53.559  1.00  0.00     0.036 A 
HETATM   11  C17 UNL     1      28.548  -1.155  53.461  1.00  0.00     0.072 A 
HETATM   12 CL1  UNL     1      29.341  -2.664  53.105  1.00  0.00    -0.081 Cl
HETATM   13  C18 UNL     1      29.518  -0.062  53.700  1.00  0.00     0.152 A 
HETATM   14  F1  UNL     1      30.875  -0.190  53.633  1.00  0.00    -0.203 F 
HETATM   15  C19 UNL     1      29.108   1.162  54.013  1.00  0.00     0.128 A 
HETATM   16  N4  UNL     1      27.682   1.321  54.098  1.00  0.00    -0.379 N 
HETATM   17  H17 UNL     1      27.375   2.295  54.396  1.00  0.00     0.160 HD
ENDROOT
BRANCH   1  18
HETATM   18  N2  UNL     1      24.296   4.172  52.358  1.00  0.00    -0.317 N 
HETATM   19  C7  UNL     1      24.150   4.395  50.979  1.00  0.00     0.301 C 
HETATM   20  O1  UNL     1      24.137   3.728  49.931  1.00  0.00    -0.258 OA
HETATM   21  H10 UNL     1      24.297   4.761  53.195  1.00  0.00     0.170 HD
BRANCH  19  22
HETATM   22  C6  UNL     1      23.967   5.771  50.629  1.00  0.00    -0.004 C 
HETATM   23  C5  UNL     1      23.832   6.930  50.329  1.00  0.00    -0.066 C 
BRANCH  23  24
HETATM   24  C4  UNL     1      23.696   8.331  49.963  1.00  0.00     0.366 C 
BRANCH  24  25
HETATM   25  N1  UNL     1      24.714   8.659  48.987  1.00  0.00     0.103 N 
BRANCH  25  26
HETATM   26  C3  UNL     1      25.718   9.532  49.517  1.00  0.00     0.273 C 
BRANCH  26  27
HETATM   27  C2  UNL     1      26.953   8.769  49.953  1.00  0.00     0.026 C 
HETATM   28  C1  UNL     1      27.315   7.691  48.987  1.00  0.00     0.007 C 
ENDBRANCH  26  27
ENDBRANCH  25  26
BRANCH  25  29
HETATM   29  C20 UNL     1      24.145   9.164  47.755  1.00  0.00     0.216 C 
HETATM   30  C21 UNL     1      22.750   9.679  48.064  1.00  0.00     0.042 C 
HETATM   31  C22 UNL     1      24.035   8.055  46.708  1.00  0.00     0.042 C 
ENDBRANCH  25  29
ENDBRANCH  24  25
ENDBRANCH  23  24
ENDBRANCH  19  22
ENDBRANCH   1  18
TORSDOF 7
ENDMDL
MODEL 6
REMARK VINA RESULT:      -7.7      2.365      3.545
REMARK  7 active torsions:
REMARK  status: ('A' for Active; 'I' for Inactive)
REMARK    1  A    between atoms: C2_2  and  C3_3 
REMARK    2  A    between atoms: C3_3  and  N1_4 
REMARK    3  A    between atoms: N1_4  and  C4_5 
REMARK    4  A    between atoms: N1_4  and  C20_27 
REMARK    5  A    between atoms: C4_5  and  C5_6 
REMARK    6  A    between atoms: C6_7  and  C7_8 
REMARK       I    between atoms: C7_8  and  N2_10 
REMARK    7  A    between atoms: N2_10  and  C8_11 
ROOT
HETATM    1  C8  UNL     1      26.362   4.170  49.386  1.00  0.00     0.029 A 
HETATM    2  C9  UNL     1      25.062   4.459  49.063  1.00  0.00     0.015 A 
HETATM    3  C10 UNL     1      24.270   3.612  49.840  1.00  0.00     0.012 A 
HETATM    4  C11 UNL     1      23.484   2.860  50.525  1.00  0.00     0.023 A 
HETATM    5  C12 UNL     1      24.978   2.846  50.617  1.00  0.00     0.030 A 
HETATM    6  C13 UNL     1      26.274   3.154  50.373  1.00  0.00     0.017 A 
HETATM    7  C14 UNL     1      24.848   2.560  52.123  1.00  0.00     0.080 A 
HETATM    8  C15 UNL     1      24.086   3.900  52.449  1.00  0.00     0.008 A 
HETATM    9  N3  UNL     1      23.882   3.457  51.298  1.00  0.00     0.000 N 
HETATM   10  C16 UNL     1      24.078   1.436  52.541  1.00  0.00     0.036 A 
HETATM   11  C17 UNL     1      24.404   0.510  53.401  1.00  0.00     0.072 A 
HETATM   12 CL1  UNL     1      23.506  -0.881  53.939  1.00  0.00    -0.081 Cl
HETATM   13  C18 UNL     1      25.720   0.615  54.073  1.00  0.00     0.152 A 
HETATM   14  F1  UNL     1      26.204  -0.272  54.990  1.00  0.00    -0.203 F 
HETATM   15  C19 UNL     1      26.542   1.625  53.816  1.00  0.00     0.128 A 
HETATM   16  N4  UNL     1      26.053   2.578  52.857  1.00  0.00    -0.379 N 
HETATM   17  H17 UNL     1      26.704   3.403  52.701  1.00  0.00     0.160 HD
ENDROOT
BRANCH   1  18
HETATM   18  N2  UNL     1      27.497   4.666  48.836  1.00  0.00    -0.317 N 
HETATM   19  C7  UNL     1      27.409   6.033  48.530  1.00  0.00     0.301 C 
HETATM   20  O1  UNL     1      26.574   6.949  48.621  1.00  0.00    -0.258 OA
HETATM   21  H10 UNL     1      28.217   3.944  48.744  1.00  0.00     0.170 HD
BRANCH  19  22
HETATM   22  C6  UNL     1      28.594   6.574  47.936  1.00  0.00    -0.004 C 
HETATM   23  C5  UNL     1      29.582   7.028  47.418  1.00  0.00    -0.066 C 
BRANCH  23  24
HETATM   24  C4  UNL     1      30.765   7.572  46.769  1.00  0.00     0.366 C 
BRANCH  24  25
HETATM   25  N1  UNL     1      31.486   8.388  47.724  1.00  0.00     0.103 N 
BRANCH  25  26
HETATM   26  C3  UNL     1      31.858   7.657  48.897  1.00  0.00     0.273 C 
BRANCH  26  27
HETATM   27  C2  UNL     1      33.274   7.126  48.804  1.00  0.00     0.026 C 
HETATM   28  C1  UNL     1      34.201   8.112  48.174  1.00  0.00     0.007 C 
ENDBRANCH  26  27
ENDBRANCH  25  26
BRANCH  25  29
HETATM   29  C20 UNL     1      30.776   9.609  48.042  1.00  0.00     0.216 C 
HETATM   30  C21 UNL     1      31.567  10.771  47.467  1.00  0.00     0.042 C 
HETATM   31  C22 UNL     1      30.660   9.797  49.555  1.00  0.00     0.042 C 
ENDBRANCH  25  29
ENDBRANCH  24  25
ENDBRANCH  23  24
ENDBRANCH  19  22
ENDBRANCH   1  18
TORSDOF 7
ENDMDL
MODEL 7
REMARK VINA RESULT:      -7.6      5.579      9.920
REMARK  7 active torsions:
REMARK  status: ('A' for Active; 'I' for Inactive)
REMARK    1  A    between atoms: C2_2  and  C3_3 
REMARK    2  A    between atoms: C3_3  and  N1_4 
REMARK    3  A    between atoms: N1_4  and  C4_5 
REMARK    4  A    between atoms: N1_4  and  C20_27 
REMARK    5  A    between atoms: C4_5  and  C5_6 
REMARK    6  A    between atoms: C6_7  and  C7_8 
REMARK       I    between atoms: C7_8  and  N2_10 
REMARK    7  A    between atoms: N2_10  and  C8_11 
ROOT
HETATM    1  C8  UNL     1      22.898   0.733  52.696  1.00  0.00     0.029 A 
HETATM    2  C9  UNL     1      23.252   2.055  52.763  1.00  0.00     0.015 A 
HETATM    3  C10 UNL     1      24.612   2.078  53.077  1.00  0.00     0.012 A 
HETATM    4  C11 UNL     1      25.862   2.170  53.365  1.00  0.00     0.023 A 
HETATM    5  C12 UNL     1      25.115   0.884  53.190  1.00  0.00     0.030 A 
HETATM    6  C13 UNL     1      24.096   0.021  52.963  1.00  0.00     0.017 A 
HETATM    7  C14 UNL     1      26.383   0.273  52.569  1.00  0.00     0.080 A 
HETATM    8  C15 UNL     1      26.441   1.282  51.360  1.00  0.00     0.008 A 
HETATM    9  N3  UNL     1      25.930   1.751  52.400  1.00  0.00     0.000 N 
HETATM   10  C16 UNL     1      27.598   0.319  53.312  1.00  0.00     0.036 A 
HETATM   11  C17 UNL     1      28.439  -0.652  53.542  1.00  0.00     0.072 A 
HETATM   12 CL1  UNL     1      29.928  -0.650  54.445  1.00  0.00    -0.081 Cl
HETATM   13  C18 UNL     1      28.151  -1.980  52.952  1.00  0.00     0.152 A 
HETATM   14  F1  UNL     1      28.929  -3.090  53.103  1.00  0.00    -0.203 F 
HETATM   15  C19 UNL     1      27.072  -2.178  52.204  1.00  0.00     0.128 A 
HETATM   16  N4  UNL     1      26.237  -1.020  52.024  1.00  0.00    -0.379 N 
HETATM   17  H17 UNL     1      25.405  -1.186  51.384  1.00  0.00     0.160 HD
ENDROOT
BRANCH   1  18
HETATM   18  N2  UNL     1      21.666   0.200  52.506  1.00  0.00    -0.317 N 
HETATM   19  C7  UNL     1      20.980  -0.043  53.707  1.00  0.00     0.301 C 
HETATM   20  O1  UNL     1      21.174   0.094  54.926  1.00  0.00    -0.258 OA
HETATM   21  H10 UNL     1      21.462   0.072  51.511  1.00  0.00     0.170 HD
BRANCH  19  22
HETATM   22  C6  UNL     1      19.681  -0.618  53.527  1.00  0.00    -0.004 C 
HETATM   23  C5  UNL     1      18.581  -1.090  53.392  1.00  0.00    -0.066 C 
BRANCH  23  24
HETATM   24  C4  UNL     1      17.245  -1.647  53.250  1.00  0.00     0.366 C 
BRANCH  24  25
HETATM   25  N1  UNL     1      16.686  -1.202  51.990  1.00  0.00     0.103 N 
BRANCH  25  26
HETATM   26  C3  UNL     1      16.610   0.224  51.900  1.00  0.00     0.273 C 
BRANCH  26  27
HETATM   27  C2  UNL     1      16.949   0.719  50.508  1.00  0.00     0.026 C 
HETATM   28  C1  UNL     1      18.417   0.666  50.239  1.00  0.00     0.007 C 
ENDBRANCH  26  27
ENDBRANCH  25  26
BRANCH  25  29
HETATM   29  C20 UNL     1      15.417  -1.837  51.704  1.00  0.00     0.216 C 
HETATM   30  C21 UNL     1      14.317  -0.949  52.258  1.00  0.00     0.042 C 
HETATM   31  C22 UNL     1      15.325  -3.207  52.378  1.00  0.00     0.042 C 
ENDBRANCH  25  29
ENDBRANCH  24  25
ENDBRANCH  23  24
ENDBRANCH  19  22
ENDBRANCH   1  18
TORSDOF 7
ENDMDL
MODEL 8
REMARK VINA RESULT:      -7.3      1.824      2.585
REMARK  7 active torsions:
REMARK  status: ('A' for Active; 'I' for Inactive)
REMARK    1  A    between atoms: C2_2  and  C3_3 
REMARK    2  A    between atoms: C3_3  and  N1_4 
REMARK    3  A    between atoms: N1_4  and  C4_5 
REMARK    4  A    between atoms: N1_4  and  C20_27 
REMARK    5  A    between atoms: C4_5  and  C5_6 
REMARK    6  A    between atoms: C6_7  and  C7_8 
REMARK       I    between atoms: C7_8  and  N2_10 
REMARK    7  A    between atoms: N2_10  and  C8_11 
ROOT
HETATM    1  C8  UNL     1      25.740   4.794  49.881  1.00  0.00     0.029 A 
HETATM    2  C9  UNL     1      24.414   4.455  49.809  1.00  0.00     0.015 A 
HETATM    3  C10 UNL     1      24.313   3.161  50.324  1.00  0.00     0.012 A 
HETATM    4  C11 UNL     1      24.152   1.973  50.785  1.00  0.00     0.023 A 
HETATM    5  C12 UNL     1      25.462   2.694  50.716  1.00  0.00     0.030 A 
HETATM    6  C13 UNL     1      26.372   3.665  50.464  1.00  0.00     0.017 A 
HETATM    7  C14 UNL     1      25.864   2.018  52.038  1.00  0.00     0.080 A 
HETATM    8  C15 UNL     1      24.695   2.658  52.878  1.00  0.00     0.008 A 
HETATM    9  N3  UNL     1      24.424   2.475  51.672  1.00  0.00     0.000 N 
HETATM   10  C16 UNL     1      25.815   0.596  52.122  1.00  0.00     0.036 A 
HETATM   11  C17 UNL     1      26.729  -0.217  52.575  1.00  0.00     0.072 A 
HETATM   12 CL1  UNL     1      26.721  -1.954  52.692  1.00  0.00    -0.081 Cl
HETATM   13  C18 UNL     1      27.982   0.368  53.107  1.00  0.00     0.152 A 
HETATM   14  F1  UNL     1      29.028  -0.347  53.611  1.00  0.00    -0.203 F 
HETATM   15  C19 UNL     1      28.168   1.682  53.130  1.00  0.00     0.128 A 
HETATM   16  N4  UNL     1      27.076   2.460  52.610  1.00  0.00    -0.379 N 
HETATM   17  H17 UNL     1      27.225   3.510  52.681  1.00  0.00     0.160 HD
ENDROOT
BRANCH   1  18
HETATM   18  N2  UNL     1      26.349   5.915  49.423  1.00  0.00    -0.317 N 
HETATM   19  C7  UNL     1      25.899   7.084  50.056  1.00  0.00     0.301 C 
HETATM   20  O1  UNL     1      25.086   7.402  50.940  1.00  0.00    -0.258 OA
HETATM   21  H10 UNL     1      27.033   5.698  48.692  1.00  0.00     0.170 HD
BRANCH  19  22
HETATM   22  C6  UNL     1      26.522   8.281  49.577  1.00  0.00    -0.004 C 
HETATM   23  C5  UNL     1      27.064   9.278  49.175  1.00  0.00    -0.066 C 
BRANCH  23  24
HETATM   24  C4  UNL     1      27.742  10.472  48.693  1.00  0.00     0.366 C 
BRANCH  24  25
HETATM   25  N1  UNL     1      29.079  10.110  48.272  1.00  0.00     0.103 N 
BRANCH  25  26
HETATM   26  C3  UNL     1      29.956   9.876  49.379  1.00  0.00     0.273 C 
BRANCH  26  27
HETATM   27  C2  UNL     1      30.901   8.721  49.113  1.00  0.00     0.026 C 
HETATM   28  C1  UNL     1      30.197   7.550  48.512  1.00  0.00     0.007 C 
ENDBRANCH  26  27
ENDBRANCH  25  26
BRANCH  25  29
HETATM   29  C20 UNL     1      29.628  11.063  47.330  1.00  0.00     0.216 C 
HETATM   30  C21 UNL     1      28.659  12.227  47.227  1.00  0.00     0.042 C 
HETATM   31  C22 UNL     1      29.787  10.434  45.945  1.00  0.00     0.042 C 
ENDBRANCH  25  29
ENDBRANCH  24  25
ENDBRANCH  23  24
ENDBRANCH  19  22
ENDBRANCH   1  18
TORSDOF 7
ENDMDL
MODEL 9
REMARK VINA RESULT:      -7.1      4.005      9.576
REMARK  7 active torsions:
REMARK  status: ('A' for Active; 'I' for Inactive)
REMARK    1  A    between atoms: C2_2  and  C3_3 
REMARK    2  A    between atoms: C3_3  and  N1_4 
REMARK    3  A    between atoms: N1_4  and  C4_5 
REMARK    4  A    between atoms: N1_4  and  C20_27 
REMARK    5  A    between atoms: C4_5  and  C5_6 
REMARK    6  A    between atoms: C6_7  and  C7_8 
REMARK       I    between atoms: C7_8  and  N2_10 
REMARK    7  A    between atoms: N2_10  and  C8_11 
ROOT
HETATM    1  C8  UNL     1      24.511   5.970  50.025  1.00  0.00     0.029 A 
HETATM    2  C9  UNL     1      23.860   7.172  50.119  1.00  0.00     0.015 A 
HETATM    3  C10 UNL     1      24.847   8.157  50.041  1.00  0.00     0.012 A 
HETATM    4  C11 UNL     1      25.705   9.111  49.976  1.00  0.00     0.023 A 
HETATM    5  C12 UNL     1      26.037   7.653  49.892  1.00  0.00     0.030 A 
HETATM    6  C13 UNL     1      25.881   6.309  49.875  1.00  0.00     0.017 A 
HETATM    7  C14 UNL     1      27.147   8.000  48.885  1.00  0.00     0.080 A 
HETATM    8  C15 UNL     1      26.169   8.614  47.812  1.00  0.00     0.008 A 
HETATM    9  N3  UNL     1      25.781   8.734  48.994  1.00  0.00     0.000 N 
HETATM   10  C16 UNL     1      28.136   8.956  49.259  1.00  0.00     0.036 A 
HETATM   11  C17 UNL     1      29.432   8.860  49.149  1.00  0.00     0.072 A 
HETATM   12 CL1  UNL     1      30.679   9.991  49.595  1.00  0.00    -0.081 Cl
HETATM   13  C18 UNL     1      29.992   7.632  48.536  1.00  0.00     0.152 A 
HETATM   14  F1  UNL     1      31.320   7.383  48.355  1.00  0.00    -0.203 F 
HETATM   15  C19 UNL     1      29.198   6.659  48.105  1.00  0.00     0.128 A 
HETATM   16  N4  UNL     1      27.791   6.901  48.278  1.00  0.00    -0.379 N 
HETATM   17  H17 UNL     1      27.171   6.133  47.884  1.00  0.00     0.160 HD
ENDROOT
BRANCH   1  18
HETATM   18  N2  UNL     1      23.994   4.721  50.136  1.00  0.00    -0.317 N 
HETATM   19  C7  UNL     1      23.684   4.369  51.459  1.00  0.00     0.301 C 
HETATM   20  O1  UNL     1      23.743   4.881  52.590  1.00  0.00    -0.258 OA
HETATM   21  H10 UNL     1      23.924   4.262  49.224  1.00  0.00     0.170 HD
BRANCH  19  22
HETATM   22  C6  UNL     1      23.148   3.049  51.599  1.00  0.00    -0.004 C 
HETATM   23  C5  UNL     1      22.679   1.946  51.714  1.00  0.00    -0.066 C 
BRANCH  23  24
HETATM   24  C4  UNL     1      22.088   0.623  51.851  1.00  0.00     0.366 C 
BRANCH  24  25
HETATM   25  N1  UNL     1      22.422   0.097  53.157  1.00  0.00     0.103 N 
BRANCH  25  26
HETATM   26  C3  UNL     1      23.588  -0.732  53.130  1.00  0.00     0.273 C 
BRANCH  26  27
HETATM   27  C2  UNL     1      24.811  -0.000  53.645  1.00  0.00     0.026 C 
HETATM   28  C1  UNL     1      25.875   0.112  52.603  1.00  0.00     0.007 C 
ENDBRANCH  26  27
ENDBRANCH  25  26
BRANCH  25  29
HETATM   29  C20 UNL     1      21.295  -0.563  53.782  1.00  0.00     0.216 C 
HETATM   30  C21 UNL     1      20.619   0.439  54.701  1.00  0.00     0.042 C 
HETATM   31  C22 UNL     1      21.755  -1.759  54.617  1.00  0.00     0.042 C 
ENDBRANCH  25  29
ENDBRANCH  24  25
ENDBRANCH  23  24
ENDBRANCH  19  22
ENDBRANCH   1  18
TORSDOF 7
ENDMDL
