MODEL 1
REMARK VINA RESULT:      -9.2      0.000      0.000
REMARK  6 active torsions:
REMARK  status: ('A' for Active; 'I' for Inactive)
REMARK       I    between atoms: C1_2  and  N1_3 
REMARK       I    between atoms: C1_2  and  N5_22 
REMARK    1  A    between atoms: N1_3  and  C2_4 
REMARK    2  A    between atoms: C3_5  and  C4_6 
REMARK    3  A    between atoms: C4_6  and  C5_7 
REMARK    4  A    between atoms: N5_22  and  C16_23 
REMARK    5  A    between atoms: C16_23  and  C17_24 
REMARK    6  A    between atoms: C17_24  and  N6_25 
ROOT
HETATM    1  C4  UNL     1      23.529   2.260  51.947  1.00  0.00     0.034 C 
ENDROOT
BRANCH   1   2
HETATM    2  C3  UNL     1      22.676   3.428  52.166  1.00  0.00     0.019 C 
HETATM    3  C2  UNL     1      22.996   4.679  52.254  1.00  0.00     0.093 C 
BRANCH   3   4
HETATM    4  N1  UNL     1      23.946   5.752  52.251  1.00  0.00    -0.319 N 
HETATM    5  C1  UNL     1      24.243   6.578  51.108  1.00  0.00     0.320 C 
HETATM    6  O1  UNL     1      23.547   6.246  50.116  1.00  0.00    -0.247 OA
HETATM    7  N5  UNL     1      25.204   7.615  51.149  1.00  0.00    -0.341 N 
HETATM    8  H13 UNL     1      25.660   7.697  52.081  1.00  0.00     0.164 HD
HETATM    9  H1  UNL     1      24.470   5.989  53.150  1.00  0.00     0.170 HD
BRANCH   7  10
HETATM   10  C16 UNL     1      25.488   8.449  49.971  1.00  0.00     0.154 C 
BRANCH  10  11
HETATM   11  C17 UNL     1      26.910   8.200  49.568  1.00  0.00     0.292 C 
BRANCH  11  12
HETATM   12  N6  UNL     1      26.982   7.646  48.249  1.00  0.00     0.090 N 
HETATM   13  C18 UNL     1      28.345   7.760  47.721  1.00  0.00     0.272 C 
HETATM   14  C19 UNL     1      29.258   6.778  48.425  1.00  0.00     0.030 C 
HETATM   15  C20 UNL     1      28.756   5.380  48.161  1.00  0.00     0.003 C 
HETATM   16  C21 UNL     1      27.356   5.279  48.743  1.00  0.00     0.030 C 
HETATM   17  C22 UNL     1      26.472   6.322  48.091  1.00  0.00     0.272 C 
ENDBRANCH  11  12
ENDBRANCH  10  11
ENDBRANCH   7  10
ENDBRANCH   3   4
ENDBRANCH   1   2
BRANCH   1  18
HETATM   18  C5  UNL     1      23.451   1.155  52.618  1.00  0.00     0.072 A 
HETATM   19  N2  UNL     1      22.317   0.488  52.455  1.00  0.00    -0.241 NA
HETATM   20  C6  UNL     1      21.992  -0.664  53.037  1.00  0.00     0.235 A 
HETATM   21  N3  UNL     1      22.935  -1.166  53.865  1.00  0.00    -0.224 NA
HETATM   22  C7  UNL     1      24.105  -0.515  54.059  1.00  0.00     0.138 A 
HETATM   23  C8  UNL     1      24.408   0.661  53.448  1.00  0.00     0.043 A 
HETATM   24  N4  UNL     1      25.170  -0.927  54.892  1.00  0.00    -0.362 N 
HETATM   25  C9  UNL     1      25.618   1.039  53.804  1.00  0.00    -0.034 A 
HETATM   26  C10 UNL     1      26.188   2.245  53.258  1.00  0.00     0.065 C 
HETATM   27  C15 UNL     1      26.183   0.089  54.770  1.00  0.00     0.138 A 
HETATM   28  C11 UNL     1      27.668   2.378  53.565  1.00  0.00    -0.021 C 
HETATM   29  C12 UNL     1      28.658   1.549  53.849  1.00  0.00     0.015 C 
HETATM   30  C13 UNL     1      28.569   0.097  53.957  1.00  0.00     0.009 C 
HETATM   31 BR1  UNL     1      30.127  -0.869  53.486  1.00  0.00    -0.051 Br
HETATM   32  C14 UNL     1      27.459  -0.540  54.369  1.00  0.00     0.021 C 
HETATM   33  H12 UNL     1      25.326  -1.750  55.509  1.00  0.00     0.162 HD
ENDBRANCH   1  18
TORSDOF 6
ENDMDL
MODEL 2
REMARK VINA RESULT:      -8.9      1.362      1.694
REMARK  6 active torsions:
REMARK  status: ('A' for Active; 'I' for Inactive)
REMARK       I    between atoms: C1_2  and  N1_3 
REMARK       I    between atoms: C1_2  and  N5_22 
REMARK    1  A    between atoms: N1_3  and  C2_4 
REMARK    2  A    between atoms: C3_5  and  C4_6 
REMARK    3  A    between atoms: C4_6  and  C5_7 
REMARK    4  A    between atoms: N5_22  and  C16_23 
REMARK    5  A    between atoms: C16_23  and  C17_24 
REMARK    6  A    between atoms: C17_24  and  N6_25 
ROOT
HETATM    1  C4  UNL     1      24.572   3.126  50.922  1.00  0.00     0.034 C 
ENDROOT
BRANCH   1   2
HETATM    2  C3  UNL     1      23.853   4.381  50.701  1.00  0.00     0.019 C 
HETATM    3  C2  UNL     1      24.266   5.601  50.822  1.00  0.00     0.093 C 
BRANCH   3   4
HETATM    4  N1  UNL     1      25.269   6.580  51.124  1.00  0.00    -0.319 N 
HETATM    5  C1  UNL     1      25.875   7.454  50.152  1.00  0.00     0.320 C 
HETATM    6  O1  UNL     1      25.399   7.259  49.006  1.00  0.00    -0.247 OA
HETATM    7  N5  UNL     1      26.876   8.394  50.496  1.00  0.00    -0.341 N 
HETATM    8  H13 UNL     1      27.114   8.368  51.509  1.00  0.00     0.164 HD
HETATM    9  H1  UNL     1      25.592   6.704  52.134  1.00  0.00     0.170 HD
BRANCH   7  10
HETATM   10  C16 UNL     1      27.479   9.280  49.488  1.00  0.00     0.154 C 
BRANCH  10  11
HETATM   11  C17 UNL     1      28.923   8.901  49.352  1.00  0.00     0.292 C 
BRANCH  11  12
HETATM   12  N6  UNL     1      29.226   8.502  48.010  1.00  0.00     0.090 N 
HETATM   13  C18 UNL     1      30.659   8.220  47.873  1.00  0.00     0.272 C 
HETATM   14  C19 UNL     1      31.002   6.922  48.575  1.00  0.00     0.030 C 
HETATM   15  C20 UNL     1      30.228   5.805  47.923  1.00  0.00     0.003 C 
HETATM   16  C21 UNL     1      28.750   6.104  48.104  1.00  0.00     0.030 C 
HETATM   17  C22 UNL     1      28.434   7.443  47.472  1.00  0.00     0.272 C 
ENDBRANCH  11  12
ENDBRANCH  10  11
ENDBRANCH   7  10
ENDBRANCH   3   4
ENDBRANCH   1   2
BRANCH   1  18
HETATM   18  C5  UNL     1      24.086   2.098  51.542  1.00  0.00     0.072 A 
HETATM   19  N2  UNL     1      22.858   1.758  51.173  1.00  0.00    -0.241 NA
HETATM   20  C6  UNL     1      22.142   0.750  51.663  1.00  0.00     0.235 A 
HETATM   21  N3  UNL     1      22.760   0.030  52.626  1.00  0.00    -0.224 NA
HETATM   22  C7  UNL     1      24.012   0.346  53.031  1.00  0.00     0.138 A 
HETATM   23  C8  UNL     1      24.719   1.383  52.509  1.00  0.00     0.043 A 
HETATM   24  N4  UNL     1      24.770  -0.320  54.020  1.00  0.00    -0.362 N 
HETATM   25  C9  UNL     1      25.908   1.428  53.073  1.00  0.00    -0.034 A 
HETATM   26  C10 UNL     1      26.866   2.423  52.662  1.00  0.00     0.065 C 
HETATM   27  C15 UNL     1      26.025   0.382  54.097  1.00  0.00     0.138 A 
HETATM   28  C11 UNL     1      28.253   2.158  53.217  1.00  0.00    -0.021 C 
HETATM   29  C12 UNL     1      28.920   1.099  53.644  1.00  0.00     0.015 C 
HETATM   30  C13 UNL     1      28.426  -0.272  53.699  1.00  0.00     0.009 C 
HETATM   31 BR1  UNL     1      29.722  -1.633  53.473  1.00  0.00    -0.051 Br
HETATM   32  C14 UNL     1      27.133  -0.577  53.902  1.00  0.00     0.021 C 
HETATM   33  H12 UNL     1      24.592  -1.141  54.635  1.00  0.00     0.162 HD
ENDBRANCH   1  18
TORSDOF 6
ENDMDL
MODEL 3
REMARK VINA RESULT:      -8.7      2.104      2.917
REMARK  6 active torsions:
REMARK  status: ('A' for Active; 'I' for Inactive)
REMARK       I    between atoms: C1_2  and  N1_3 
REMARK       I    between atoms: C1_2  and  N5_22 
REMARK    1  A    between atoms: N1_3  and  C2_4 
REMARK    2  A    between atoms: C3_5  and  C4_6 
REMARK    3  A    between atoms: C4_6  and  C5_7 
REMARK    4  A    between atoms: N5_22  and  C16_23 
REMARK    5  A    between atoms: C16_23  and  C17_24 
REMARK    6  A    between atoms: C17_24  and  N6_25 
ROOT
HETATM    1  C4  UNL     1      23.793   2.725  51.551  1.00  0.00     0.034 C 
ENDROOT
BRANCH   1   2
HETATM    2  C3  UNL     1      24.027   2.879  50.116  1.00  0.00     0.019 C 
HETATM    3  C2  UNL     1      25.090   3.271  49.491  1.00  0.00     0.093 C 
BRANCH   3   4
HETATM    4  N1  UNL     1      26.447   3.732  49.455  1.00  0.00    -0.319 N 
HETATM    5  C1  UNL     1      26.861   5.013  48.943  1.00  0.00     0.320 C 
HETATM    6  O1  UNL     1      25.875   5.683  48.546  1.00  0.00    -0.247 OA
HETATM    7  N5  UNL     1      28.217   5.417  48.911  1.00  0.00    -0.341 N 
HETATM    8  H13 UNL     1      28.857   4.688  49.289  1.00  0.00     0.164 HD
HETATM    9  H1  UNL     1      27.221   3.109  49.846  1.00  0.00     0.170 HD
BRANCH   7  10
HETATM   10  C16 UNL     1      28.617   6.732  48.388  1.00  0.00     0.154 C 
BRANCH  10  11
HETATM   11  C17 UNL     1      29.972   6.581  47.764  1.00  0.00     0.292 C 
BRANCH  11  12
HETATM   12  N6  UNL     1      30.991   7.137  48.603  1.00  0.00     0.090 N 
HETATM   13  C18 UNL     1      31.668   6.076  49.354  1.00  0.00     0.272 C 
HETATM   14  C19 UNL     1      32.557   5.271  48.429  1.00  0.00     0.030 C 
HETATM   15  C20 UNL     1      33.601   6.190  47.847  1.00  0.00     0.003 C 
HETATM   16  C21 UNL     1      32.877   7.262  47.050  1.00  0.00     0.030 C 
HETATM   17  C22 UNL     1      31.929   8.005  47.968  1.00  0.00     0.272 C 
ENDBRANCH  11  12
ENDBRANCH  10  11
ENDBRANCH   7  10
ENDBRANCH   3   4
ENDBRANCH   1   2
BRANCH   1  18
HETATM   18  C5  UNL     1      23.544   1.598  52.139  1.00  0.00     0.072 A 
HETATM   19  N2  UNL     1      22.372   1.059  51.833  1.00  0.00    -0.241 NA
HETATM   20  C6  UNL     1      21.884  -0.083  52.308  1.00  0.00     0.235 A 
HETATM   21  N3  UNL     1      22.691  -0.725  53.183  1.00  0.00    -0.224 NA
HETATM   22  C7  UNL     1      23.894  -0.208  53.522  1.00  0.00     0.138 A 
HETATM   23  C8  UNL     1      24.366   0.964  53.018  1.00  0.00     0.043 A 
HETATM   24  N4  UNL     1      24.831  -0.772  54.418  1.00  0.00    -0.362 N 
HETATM   25  C9  UNL     1      25.567   1.195  53.504  1.00  0.00    -0.034 A 
HETATM   26  C10 UNL     1      26.300   2.366  53.090  1.00  0.00     0.065 C 
HETATM   27  C15 UNL     1      25.944   0.141  54.453  1.00  0.00     0.138 A 
HETATM   28  C11 UNL     1      27.750   2.330  53.536  1.00  0.00    -0.021 C 
HETATM   29  C12 UNL     1      28.624   1.390  53.853  1.00  0.00     0.015 C 
HETATM   30  C13 UNL     1      28.386  -0.049  53.858  1.00  0.00     0.009 C 
HETATM   31 BR1  UNL     1      29.882  -1.141  53.466  1.00  0.00    -0.051 Br
HETATM   32  C14 UNL     1      27.186  -0.591  54.128  1.00  0.00     0.021 C 
HETATM   33  H12 UNL     1      24.848  -1.639  54.992  1.00  0.00     0.162 HD
ENDBRANCH   1  18
TORSDOF 6
ENDMDL
MODEL 4
REMARK VINA RESULT:      -8.5      1.702      2.158
REMARK  6 active torsions:
REMARK  status: ('A' for Active; 'I' for Inactive)
REMARK       I    between atoms: C1_2  and  N1_3 
REMARK       I    between atoms: C1_2  and  N5_22 
REMARK    1  A    between atoms: N1_3  and  C2_4 
REMARK    2  A    between atoms: C3_5  and  C4_6 
REMARK    3  A    between atoms: C4_6  and  C5_7 
REMARK    4  A    between atoms: N5_22  and  C16_23 
REMARK    5  A    between atoms: C16_23  and  C17_24 
REMARK    6  A    between atoms: C17_24  and  N6_25 
ROOT
HETATM    1  C4  UNL     1      23.919   2.743  50.726  1.00  0.00     0.034 C 
ENDROOT
BRANCH   1   2
HETATM    2  C3  UNL     1      23.265   4.051  50.727  1.00  0.00     0.019 C 
HETATM    3  C2  UNL     1      23.771   5.226  50.925  1.00  0.00     0.093 C 
BRANCH   3   4
HETATM    4  N1  UNL     1      24.865   6.110  51.204  1.00  0.00    -0.319 N 
HETATM    5  C1  UNL     1      25.247   7.223  50.373  1.00  0.00     0.320 C 
HETATM    6  O1  UNL     1      24.487   7.331  49.379  1.00  0.00    -0.247 OA
HETATM    7  N5  UNL     1      26.348   8.057  50.681  1.00  0.00    -0.341 N 
HETATM    8  H13 UNL     1      26.834   7.767  51.555  1.00  0.00     0.164 HD
HETATM    9  H1  UNL     1      25.439   5.966  52.092  1.00  0.00     0.170 HD
BRANCH   7  10
HETATM   10  C16 UNL     1      26.719   9.192  49.822  1.00  0.00     0.154 C 
BRANCH  10  11
HETATM   11  C17 UNL     1      28.216   9.252  49.767  1.00  0.00     0.292 C 
BRANCH  11  12
HETATM   12  N6  UNL     1      28.681   9.278  48.412  1.00  0.00     0.090 N 
HETATM   13  C18 UNL     1      29.118  10.630  48.049  1.00  0.00     0.272 C 
HETATM   14  C19 UNL     1      30.427  10.954  48.739  1.00  0.00     0.030 C 
HETATM   15  C20 UNL     1      31.472   9.970  48.277  1.00  0.00     0.003 C 
HETATM   16  C21 UNL     1      31.010   8.583  48.691  1.00  0.00     0.030 C 
HETATM   17  C22 UNL     1      29.661   8.302  48.062  1.00  0.00     0.272 C 
ENDBRANCH  11  12
ENDBRANCH  10  11
ENDBRANCH   7  10
ENDBRANCH   3   4
ENDBRANCH   1   2
BRANCH   1  18
HETATM   18  C5  UNL     1      23.530   1.725  51.426  1.00  0.00     0.072 A 
HETATM   19  N2  UNL     1      22.319   1.275  51.124  1.00  0.00    -0.241 NA
HETATM   20  C6  UNL     1      21.694   0.253  51.701  1.00  0.00     0.235 A 
HETATM   21  N3  UNL     1      22.394  -0.358  52.684  1.00  0.00    -0.224 NA
HETATM   22  C7  UNL     1      23.632   0.071  53.022  1.00  0.00     0.138 A 
HETATM   23  C8  UNL     1      24.244   1.121  52.412  1.00  0.00     0.043 A 
HETATM   24  N4  UNL     1      24.468  -0.474  54.023  1.00  0.00    -0.362 N 
HETATM   25  C9  UNL     1      25.444   1.286  52.928  1.00  0.00    -0.034 A 
HETATM   26  C10 UNL     1      26.313   2.318  52.421  1.00  0.00     0.065 C 
HETATM   27  C15 UNL     1      25.670   0.319  54.010  1.00  0.00     0.138 A 
HETATM   28  C11 UNL     1      27.733   2.190  52.941  1.00  0.00    -0.021 C 
HETATM   29  C12 UNL     1      28.489   1.211  53.408  1.00  0.00     0.015 C 
HETATM   30  C13 UNL     1      28.099  -0.186  53.566  1.00  0.00     0.009 C 
HETATM   31 BR1  UNL     1      29.484  -1.462  53.378  1.00  0.00    -0.051 Br
HETATM   32  C14 UNL     1      26.839  -0.568  53.834  1.00  0.00     0.021 C 
HETATM   33  H12 UNL     1      24.370  -1.264  54.693  1.00  0.00     0.162 HD
ENDBRANCH   1  18
TORSDOF 6
ENDMDL
MODEL 5
REMARK VINA RESULT:      -8.5      3.124      4.374
REMARK  6 active torsions:
REMARK  status: ('A' for Active; 'I' for Inactive)
REMARK       I    between atoms: C1_2  and  N1_3 
REMARK       I    between atoms: C1_2  and  N5_22 
REMARK    1  A    between atoms: N1_3  and  C2_4 
REMARK    2  A    between atoms: C3_5  and  C4_6 
REMARK    3  A    between atoms: C4_6  and  C5_7 
REMARK    4  A    between atoms: N5_22  and  C16_23 
REMARK    5  A    between atoms: C16_23  and  C17_24 
REMARK    6  A    between atoms: C17_24  and  N6_25 
ROOT
HETATM    1  C4  UNL     1      25.954   3.840  50.409  1.00  0.00     0.034 C 
ENDROOT
BRANCH   1   2
HETATM    2  C3  UNL     1      25.953   4.637  49.184  1.00  0.00     0.019 C 
HETATM    3  C2  UNL     1      26.618   5.710  48.897  1.00  0.00     0.093 C 
BRANCH   3   4
HETATM    4  N1  UNL     1      27.553   6.750  49.213  1.00  0.00    -0.319 N 
HETATM    5  C1  UNL     1      28.798   6.967  48.522  1.00  0.00     0.320 C 
HETATM    6  O1  UNL     1      28.953   6.136  47.593  1.00  0.00    -0.247 OA
HETATM    7  N5  UNL     1      29.697   7.998  48.884  1.00  0.00    -0.341 N 
HETATM    8  H13 UNL     1      29.356   8.558  49.693  1.00  0.00     0.164 HD
HETATM    9  H1  UNL     1      27.324   7.436  49.998  1.00  0.00     0.170 HD
BRANCH   7  10
HETATM   10  C16 UNL     1      30.962   8.206  48.161  1.00  0.00     0.154 C 
BRANCH  10  11
HETATM   11  C17 UNL     1      31.953   7.209  48.683  1.00  0.00     0.292 C 
BRANCH  11  12
HETATM   12  N6  UNL     1      32.838   6.771  47.644  1.00  0.00     0.090 N 
HETATM   13  C18 UNL     1      33.767   7.845  47.280  1.00  0.00     0.272 C 
HETATM   14  C19 UNL     1      34.792   8.039  48.378  1.00  0.00     0.030 C 
HETATM   15  C20 UNL     1      35.574   6.759  48.538  1.00  0.00     0.003 C 
HETATM   16  C21 UNL     1      34.595   5.671  48.944  1.00  0.00     0.030 C 
HETATM   17  C22 UNL     1      33.527   5.543  47.878  1.00  0.00     0.272 C 
ENDBRANCH  11  12
ENDBRANCH  10  11
ENDBRANCH   7  10
ENDBRANCH   3   4
ENDBRANCH   1   2
BRANCH   1  18
HETATM   18  C5  UNL     1      25.057   2.957  50.714  1.00  0.00     0.072 A 
HETATM   19  N2  UNL     1      23.923   3.061  50.034  1.00  0.00    -0.241 NA
HETATM   20  C6  UNL     1      22.852   2.284  50.167  1.00  0.00     0.235 A 
HETATM   21  N3  UNL     1      22.972   1.307  51.095  1.00  0.00    -0.224 NA
HETATM   22  C7  UNL     1      24.112   1.168  51.810  1.00  0.00     0.138 A 
HETATM   23  C8  UNL     1      25.191   1.979  51.649  1.00  0.00     0.043 A 
HETATM   24  N4  UNL     1      24.370   0.195  52.803  1.00  0.00    -0.362 N 
HETATM   25  C9  UNL     1      26.155   1.587  52.455  1.00  0.00    -0.034 A 
HETATM   26  C10 UNL     1      27.426   2.268  52.447  1.00  0.00     0.065 C 
HETATM   27  C15 UNL     1      25.705   0.454  53.274  1.00  0.00     0.138 A 
HETATM   28  C11 UNL     1      28.490   1.523  53.231  1.00  0.00    -0.021 C 
HETATM   29  C12 UNL     1      28.700   0.268  53.593  1.00  0.00     0.015 C 
HETATM   30  C13 UNL     1      27.847  -0.875  53.291  1.00  0.00     0.009 C 
HETATM   31 BR1  UNL     1      28.724  -2.542  53.108  1.00  0.00    -0.051 Br
HETATM   32  C14 UNL     1      26.513  -0.777  53.152  1.00  0.00     0.021 C 
HETATM   33  H12 UNL     1      23.816  -0.589  53.206  1.00  0.00     0.162 HD
ENDBRANCH   1  18
TORSDOF 6
ENDMDL
MODEL 6
REMARK VINA RESULT:      -8.2      4.739      7.971
REMARK  6 active torsions:
REMARK  status: ('A' for Active; 'I' for Inactive)
REMARK       I    between atoms: C1_2  and  N1_3 
REMARK       I    between atoms: C1_2  and  N5_22 
REMARK    1  A    between atoms: N1_3  and  C2_4 
REMARK    2  A    between atoms: C3_5  and  C4_6 
REMARK    3  A    between atoms: C4_6  and  C5_7 
REMARK    4  A    between atoms: N5_22  and  C16_23 
REMARK    5  A    between atoms: C16_23  and  C17_24 
REMARK    6  A    between atoms: C17_24  and  N6_25 
ROOT
HETATM    1  C4  UNL     1      21.302   1.147  51.291  1.00  0.00     0.034 C 
ENDROOT
BRANCH   1   2
HETATM    2  C3  UNL     1      21.549   2.585  51.385  1.00  0.00     0.019 C 
HETATM    3  C2  UNL     1      22.661   3.240  51.283  1.00  0.00     0.093 C 
BRANCH   3   4
HETATM    4  N1  UNL     1      24.080   3.315  51.088  1.00  0.00    -0.319 N 
HETATM    5  C1  UNL     1      25.058   2.749  51.981  1.00  0.00     0.320 C 
HETATM    6  O1  UNL     1      24.508   2.166  52.947  1.00  0.00    -0.247 OA
HETATM    7  N5  UNL     1      26.450   2.866  51.754  1.00  0.00    -0.341 N 
HETATM    8  H13 UNL     1      26.668   3.402  50.889  1.00  0.00     0.164 HD
HETATM    9  H1  UNL     1      24.462   3.801  50.218  1.00  0.00     0.170 HD
BRANCH   7  10
HETATM   10  C16 UNL     1      27.433   2.277  52.677  1.00  0.00     0.154 C 
BRANCH  10  11
HETATM   11  C17 UNL     1      27.525   0.812  52.370  1.00  0.00     0.292 C 
BRANCH  11  12
HETATM   12  N6  UNL     1      27.462   0.030  53.568  1.00  0.00     0.090 N 
HETATM   13  C18 UNL     1      26.594  -1.135  53.372  1.00  0.00     0.272 C 
HETATM   14  C19 UNL     1      27.279  -2.149  52.480  1.00  0.00     0.030 C 
HETATM   15  C20 UNL     1      28.548  -2.604  53.156  1.00  0.00     0.003 C 
HETATM   16  C21 UNL     1      29.442  -1.387  53.320  1.00  0.00     0.030 C 
HETATM   17  C22 UNL     1      28.713  -0.345  54.144  1.00  0.00     0.272 C 
ENDBRANCH  11  12
ENDBRANCH  10  11
ENDBRANCH   7  10
ENDBRANCH   3   4
ENDBRANCH   1   2
BRANCH   1  18
HETATM   18  C5  UNL     1      21.008   0.384  52.295  1.00  0.00     0.072 A 
HETATM   19  N2  UNL     1      21.985   0.229  53.179  1.00  0.00    -0.241 NA
HETATM   20  C6  UNL     1      21.934  -0.507  54.285  1.00  0.00     0.235 A 
HETATM   21  N3  UNL     1      20.758  -1.142  54.491  1.00  0.00    -0.224 NA
HETATM   22  C7  UNL     1      19.738  -1.011  53.613  1.00  0.00     0.138 A 
HETATM   23  C8  UNL     1      19.820  -0.249  52.489  1.00  0.00     0.043 A 
HETATM   24  N4  UNL     1      18.463  -1.615  53.706  1.00  0.00    -0.362 N 
HETATM   25  C9  UNL     1      18.671  -0.290  51.849  1.00  0.00    -0.034 A 
HETATM   26  C10 UNL     1      18.491   0.471  50.639  1.00  0.00     0.065 C 
HETATM   27  C15 UNL     1      17.733  -1.182  52.543  1.00  0.00     0.138 A 
HETATM   28  C11 UNL     1      17.041   0.518  50.192  1.00  0.00    -0.021 C 
HETATM   29  C12 UNL     1      15.862   0.393  50.777  1.00  0.00     0.015 C 
HETATM   30  C13 UNL     1      15.619   0.144  52.193  1.00  0.00     0.009 C 
HETATM   31 BR1  UNL     1      14.021   0.870  52.903  1.00  0.00    -0.051 Br
HETATM   32  C14 UNL     1      16.462  -0.560  52.968  1.00  0.00     0.021 C 
HETATM   33  H12 UNL     1      18.015  -2.250  54.399  1.00  0.00     0.162 HD
ENDBRANCH   1  18
TORSDOF 6
ENDMDL
MODEL 7
REMARK VINA RESULT:      -8.1      4.712      9.038
REMARK  6 active torsions:
REMARK  status: ('A' for Active; 'I' for Inactive)
REMARK       I    between atoms: C1_2  and  N1_3 
REMARK       I    between atoms: C1_2  and  N5_22 
REMARK    1  A    between atoms: N1_3  and  C2_4 
REMARK    2  A    between atoms: C3_5  and  C4_6 
REMARK    3  A    between atoms: C4_6  and  C5_7 
REMARK    4  A    between atoms: N5_22  and  C16_23 
REMARK    5  A    between atoms: C16_23  and  C17_24 
REMARK    6  A    between atoms: C17_24  and  N6_25 
ROOT
HETATM    1  C4  UNL     1      22.719  -0.082  52.756  1.00  0.00     0.034 C 
ENDROOT
BRANCH   1   2
HETATM    2  C3  UNL     1      22.182  -0.399  54.078  1.00  0.00     0.019 C 
HETATM    3  C2  UNL     1      21.045  -0.925  54.403  1.00  0.00     0.093 C 
BRANCH   3   4
HETATM    4  N1  UNL     1      19.761  -1.476  54.082  1.00  0.00    -0.319 N 
HETATM    5  C1  UNL     1      18.818  -0.876  53.173  1.00  0.00     0.320 C 
HETATM    6  O1  UNL     1      19.274   0.187  52.683  1.00  0.00    -0.247 OA
HETATM    7  N5  UNL     1      17.553  -1.450  52.903  1.00  0.00    -0.341 N 
HETATM    8  H13 UNL     1      17.394  -2.331  53.434  1.00  0.00     0.164 HD
HETATM    9  H1  UNL     1      19.467  -2.405  54.519  1.00  0.00     0.170 HD
BRANCH   7  10
HETATM   10  C16 UNL     1      16.607  -0.823  51.967  1.00  0.00     0.154 C 
BRANCH  10  11
HETATM   11  C17 UNL     1      15.488  -0.236  52.775  1.00  0.00     0.292 C 
BRANCH  11  12
HETATM   12  N6  UNL     1      14.539   0.428  51.932  1.00  0.00     0.090 N 
HETATM   13  C18 UNL     1      13.183   0.268  52.467  1.00  0.00     0.272 C 
HETATM   14  C19 UNL     1      13.011   1.117  53.710  1.00  0.00     0.030 C 
HETATM   15  C20 UNL     1      13.212   2.564  53.335  1.00  0.00     0.003 C 
HETATM   16  C21 UNL     1      14.631   2.710  52.813  1.00  0.00     0.030 C 
HETATM   17  C22 UNL     1      14.817   1.794  51.621  1.00  0.00     0.272 C 
ENDBRANCH  11  12
ENDBRANCH  10  11
ENDBRANCH   7  10
ENDBRANCH   3   4
ENDBRANCH   1   2
BRANCH   1  18
HETATM   18  C5  UNL     1      23.062   1.104  52.365  1.00  0.00     0.072 A 
HETATM   19  N2  UNL     1      22.053   1.949  52.207  1.00  0.00    -0.241 NA
HETATM   20  C6  UNL     1      22.142   3.215  51.809  1.00  0.00     0.235 A 
HETATM   21  N3  UNL     1      23.400   3.641  51.551  1.00  0.00    -0.224 NA
HETATM   22  C7  UNL     1      24.457   2.809  51.699  1.00  0.00     0.138 A 
HETATM   23  C8  UNL     1      24.332   1.519  52.109  1.00  0.00     0.043 A 
HETATM   24  N4  UNL     1      25.815   3.123  51.467  1.00  0.00    -0.362 N 
HETATM   25  C9  UNL     1      25.525   0.969  52.188  1.00  0.00    -0.034 A 
HETATM   26  C10 UNL     1      25.664  -0.393  52.639  1.00  0.00     0.065 C 
HETATM   27  C15 UNL     1      26.554   1.922  51.755  1.00  0.00     0.138 A 
HETATM   28  C11 UNL     1      27.108  -0.767  52.921  1.00  0.00    -0.021 C 
HETATM   29  C12 UNL     1      28.214  -0.115  53.238  1.00  0.00     0.015 C 
HETATM   30  C13 UNL     1      28.349   1.326  53.421  1.00  0.00     0.009 C 
HETATM   31 BR1  UNL     1      29.659   1.887  54.667  1.00  0.00    -0.051 Br
HETATM   32  C14 UNL     1      27.602   2.222  52.753  1.00  0.00     0.021 C 
HETATM   33  H12 UNL     1      26.313   3.982  51.155  1.00  0.00     0.162 HD
ENDBRANCH   1  18
TORSDOF 6
ENDMDL
MODEL 8
REMARK VINA RESULT:      -7.9      3.045      4.383
REMARK  6 active torsions:
REMARK  status: ('A' for Active; 'I' for Inactive)
REMARK       I    between atoms: C1_2  and  N1_3 
REMARK       I    between atoms: C1_2  and  N5_22 
REMARK    1  A    between atoms: N1_3  and  C2_4 
REMARK    2  A    between atoms: C3_5  and  C4_6 
REMARK    3  A    between atoms: C4_6  and  C5_7 
REMARK    4  A    between atoms: N5_22  and  C16_23 
REMARK    5  A    between atoms: C16_23  and  C17_24 
REMARK    6  A    between atoms: C17_24  and  N6_25 
ROOT
HETATM    1  C4  UNL     1      24.417   4.473  49.818  1.00  0.00     0.034 C 
ENDROOT
BRANCH   1   2
HETATM    2  C3  UNL     1      24.571   5.925  49.903  1.00  0.00     0.019 C 
HETATM    3  C2  UNL     1      25.638   6.649  49.788  1.00  0.00     0.093 C 
BRANCH   3   4
HETATM    4  N1  UNL     1      27.046   6.815  49.579  1.00  0.00    -0.319 N 
HETATM    5  C1  UNL     1      27.873   5.907  48.825  1.00  0.00     0.320 C 
HETATM    6  O1  UNL     1      27.195   4.957  48.360  1.00  0.00    -0.247 OA
HETATM    7  N5  UNL     1      29.264   6.104  48.662  1.00  0.00    -0.341 N 
HETATM    8  H13 UNL     1      29.604   6.960  49.147  1.00  0.00     0.164 HD
HETATM    9  H1  UNL     1      27.537   7.673  49.982  1.00  0.00     0.170 HD
BRANCH   7  10
HETATM   10  C16 UNL     1      30.089   5.166  47.884  1.00  0.00     0.154 C 
BRANCH  10  11
HETATM   11  C17 UNL     1      31.526   5.454  48.199  1.00  0.00     0.292 C 
BRANCH  11  12
HETATM   12  N6  UNL     1      32.364   5.188  47.068  1.00  0.00     0.090 N 
HETATM   13  C18 UNL     1      33.673   5.825  47.242  1.00  0.00     0.272 C 
HETATM   14  C19 UNL     1      34.475   5.085  48.293  1.00  0.00     0.030 C 
HETATM   15  C20 UNL     1      34.689   3.668  47.825  1.00  0.00     0.003 C 
HETATM   16  C21 UNL     1      33.322   3.021  47.682  1.00  0.00     0.030 C 
HETATM   17  C22 UNL     1      32.499   3.818  46.691  1.00  0.00     0.272 C 
ENDBRANCH  11  12
ENDBRANCH  10  11
ENDBRANCH   7  10
ENDBRANCH   3   4
ENDBRANCH   1   2
BRANCH   1  18
HETATM   18  C5  UNL     1      23.516   3.790  50.451  1.00  0.00     0.072 A 
HETATM   19  N2  UNL     1      22.268   4.038  50.077  1.00  0.00    -0.241 NA
HETATM   20  C6  UNL     1      21.171   3.476  50.577  1.00  0.00     0.235 A 
HETATM   21  N3  UNL     1      21.394   2.572  51.558  1.00  0.00    -0.224 NA
HETATM   22  C7  UNL     1      22.652   2.292  51.969  1.00  0.00     0.138 A 
HETATM   23  C8  UNL     1      23.755   2.885  51.436  1.00  0.00     0.043 A 
HETATM   24  N4  UNL     1      23.025   1.374  52.977  1.00  0.00    -0.362 N 
HETATM   25  C9  UNL     1      24.833   2.395  52.011  1.00  0.00    -0.034 A 
HETATM   26  C10 UNL     1      26.139   2.838  51.592  1.00  0.00     0.065 C 
HETATM   27  C15 UNL     1      24.461   1.431  53.054  1.00  0.00     0.138 A 
HETATM   28  C11 UNL     1      27.254   1.983  52.165  1.00  0.00    -0.021 C 
HETATM   29  C12 UNL     1      27.366   0.745  52.616  1.00  0.00     0.015 C 
HETATM   30  C13 UNL     1      26.304  -0.250  52.690  1.00  0.00     0.009 C 
HETATM   31 BR1  UNL     1      26.840  -2.056  52.500  1.00  0.00    -0.051 Br
HETATM   32  C14 UNL     1      25.013   0.070  52.885  1.00  0.00     0.021 C 
HETATM   33  H12 UNL     1      22.492   0.736  53.604  1.00  0.00     0.162 HD
ENDBRANCH   1  18
TORSDOF 6
ENDMDL
MODEL 9
REMARK VINA RESULT:      -7.8      5.644      9.209
REMARK  6 active torsions:
REMARK  status: ('A' for Active; 'I' for Inactive)
REMARK       I    between atoms: C1_2  and  N1_3 
REMARK       I    between atoms: C1_2  and  N5_22 
REMARK    1  A    between atoms: N1_3  and  C2_4 
REMARK    2  A    between atoms: C3_5  and  C4_6 
REMARK    3  A    between atoms: C4_6  and  C5_7 
REMARK    4  A    between atoms: N5_22  and  C16_23 
REMARK    5  A    between atoms: C16_23  and  C17_24 
REMARK    6  A    between atoms: C17_24  and  N6_25 
ROOT
HETATM    1  C4  UNL     1      22.109   0.720  52.870  1.00  0.00     0.034 C 
ENDROOT
BRANCH   1   2
HETATM    2  C3  UNL     1      20.988   0.070  52.192  1.00  0.00     0.019 C 
HETATM    3  C2  UNL     1      19.836   0.554  51.854  1.00  0.00     0.093 C 
BRANCH   3   4
HETATM    4  N1  UNL     1      18.874   1.614  51.779  1.00  0.00    -0.319 N 
HETATM    5  C1  UNL     1      17.482   1.433  51.454  1.00  0.00     0.320 C 
HETATM    6  O1  UNL     1      17.215   0.221  51.261  1.00  0.00    -0.247 OA
HETATM    7  N5  UNL     1      16.574   2.515  51.374  1.00  0.00    -0.341 N 
HETATM    8  H13 UNL     1      17.029   3.431  51.568  1.00  0.00     0.164 HD
HETATM    9  H1  UNL     1      19.181   2.614  51.993  1.00  0.00     0.170 HD
BRANCH   7  10
HETATM   10  C16 UNL     1      15.155   2.307  51.046  1.00  0.00     0.154 C 
BRANCH  10  11
HETATM   11  C17 UNL     1      14.393   2.243  52.336  1.00  0.00     0.292 C 
BRANCH  11  12
HETATM   12  N6  UNL     1      13.040   2.678  52.157  1.00  0.00     0.090 N 
HETATM   13  C18 UNL     1      12.128   1.848  52.951  1.00  0.00     0.272 C 
HETATM   14  C19 UNL     1      12.275   2.177  54.422  1.00  0.00     0.030 C 
HETATM   15  C20 UNL     1      11.911   3.625  54.630  1.00  0.00     0.003 C 
HETATM   16  C21 UNL     1      12.887   4.464  53.822  1.00  0.00     0.030 C 
HETATM   17  C22 UNL     1      12.791   4.068  52.363  1.00  0.00     0.272 C 
ENDBRANCH  11  12
ENDBRANCH  10  11
ENDBRANCH   7  10
ENDBRANCH   3   4
ENDBRANCH   1   2
BRANCH   1  18
HETATM   18  C5  UNL     1      22.649   1.835  52.496  1.00  0.00     0.072 A 
HETATM   19  N2  UNL     1      21.813   2.862  52.430  1.00  0.00    -0.241 NA
HETATM   20  C6  UNL     1      22.120   4.104  52.066  1.00  0.00     0.235 A 
HETATM   21  N3  UNL     1      23.419   4.295  51.740  1.00  0.00    -0.224 NA
HETATM   22  C7  UNL     1      24.303   3.273  51.793  1.00  0.00     0.138 A 
HETATM   23  C8  UNL     1      23.958   2.013  52.170  1.00  0.00     0.043 A 
HETATM   24  N4  UNL     1      25.681   3.334  51.482  1.00  0.00    -0.362 N 
HETATM   25  C9  UNL     1      25.026   1.244  52.154  1.00  0.00    -0.034 A 
HETATM   26  C10 UNL     1      24.928  -0.138  52.552  1.00  0.00     0.065 C 
HETATM   27  C15 UNL     1      26.192   2.003  51.684  1.00  0.00     0.138 A 
HETATM   28  C11 UNL     1      26.287  -0.789  52.728  1.00  0.00    -0.021 C 
HETATM   29  C12 UNL     1      27.514  -0.372  52.992  1.00  0.00     0.015 C 
HETATM   30  C13 UNL     1      27.933   1.007  53.211  1.00  0.00     0.009 C 
HETATM   31 BR1  UNL     1      29.396   1.256  54.386  1.00  0.00    -0.051 Br
HETATM   32  C14 UNL     1      27.334   2.056  52.621  1.00  0.00     0.021 C 
HETATM   33  H12 UNL     1      26.316   4.096  51.166  1.00  0.00     0.162 HD
ENDBRANCH   1  18
TORSDOF 6
ENDMDL
