MODEL 1
REMARK VINA RESULT:      -8.7      0.000      0.000
REMARK  7 active torsions:
REMARK  status: ('A' for Active; 'I' for Inactive)
REMARK       I    between atoms: N1_1  and  C1_2 
REMARK    1  A    between atoms: C1_2  and  C2_4 
REMARK    2  A    between atoms: C3_6  and  N2_7 
REMARK    3  A    between atoms: C14_20  and  O2_21 
REMARK    4  A    between atoms: O2_21  and  C15_22 
REMARK    5  A    between atoms: C15_22  and  C16_23 
REMARK    6  A    between atoms: C21_28  and  C22_29 
REMARK    7  A    between atoms: C22_29  and  C23_30 
ROOT
HETATM    1  C2  UNL     1      25.064   3.187  50.915  1.00  0.00     0.107 A 
HETATM    2  S1  UNL     1      23.357   3.427  50.210  1.00  0.00    -0.064 SA
HETATM    3  C3  UNL     1      22.606   2.315  51.497  1.00  0.00     0.085 A 
HETATM    4  C13 UNL     1      23.631   1.876  52.303  1.00  0.00     0.076 A 
HETATM    5  C14 UNL     1      24.871   2.343  51.995  1.00  0.00     0.094 A 
ENDROOT
BRANCH   3   6
HETATM    6  N2  UNL     1      21.247   2.258  51.477  1.00  0.00    -0.300 N 
HETATM    7  C4  UNL     1      20.476   3.478  51.985  1.00  0.00     0.211 C 
HETATM    8  N3  UNL     1      19.158   3.700  51.934  1.00  0.00    -0.265 NA
HETATM    9  C5  UNL     1      17.883   3.126  51.550  1.00  0.00     0.274 C 
HETATM   10  N4  UNL     1      18.100   1.652  51.128  1.00  0.00    -0.363 N 
HETATM   11  C6  UNL     1      18.258   0.775  49.801  1.00  0.00     0.090 C 
HETATM   12  C12 UNL     1      18.386   0.838  52.319  1.00  0.00     0.117 C 
HETATM   13  C7  UNL     1      19.414   1.416  49.793  1.00  0.00     0.047 C 
HETATM   14  C8  UNL     1      20.259   1.159  51.092  1.00  0.00     0.046 C 
HETATM   15  C9  UNL     1      19.743   0.214  52.015  1.00  0.00    -0.030 C 
HETATM   16  C10 UNL     1      19.268  -0.850  52.992  1.00  0.00     0.041 C 
HETATM   17  C11 UNL     1      17.897  -0.543  52.475  1.00  0.00     0.034 C 
ENDBRANCH   3   6
BRANCH   1  18
HETATM   18  C1  UNL     1      26.097   3.828  50.169  1.00  0.00     0.259 C 
HETATM   19  N1  UNL     1      25.723   5.219  50.405  1.00  0.00    -0.365 N 
HETATM   20  H1  UNL     1      25.018   5.994  50.203  1.00  0.00     0.159 HD
HETATM   21  H2  UNL     1      25.985   6.082  50.964  1.00  0.00     0.159 HD
HETATM   22  O1  UNL     1      27.082   3.506  49.479  1.00  0.00    -0.267 OA
ENDBRANCH   1  18
BRANCH   5  23
HETATM   23  O2  UNL     1      26.028   2.287  52.465  1.00  0.00    -0.345 OA
BRANCH  23  24
HETATM   24  C15 UNL     1      27.247   2.203  52.980  1.00  0.00     0.215 C 
BRANCH  24  25
HETATM   25  C16 UNL     1      27.628   0.739  53.176  1.00  0.00    -0.028 A 
HETATM   26  C17 UNL     1      29.051   0.945  53.383  1.00  0.00     0.010 A 
HETATM   27  C18 UNL     1      30.043  -0.081  53.513  1.00  0.00     0.001 A 
HETATM   28  C19 UNL     1      29.593  -1.337  53.442  1.00  0.00     0.001 A 
HETATM   29  C20 UNL     1      28.231  -1.615  53.241  1.00  0.00     0.008 A 
HETATM   30  C21 UNL     1      27.366  -0.557  53.129  1.00  0.00    -0.048 A 
BRANCH  30  31
HETATM   31  C22 UNL     1      25.954  -0.870  53.004  1.00  0.00     0.070 C 
BRANCH  31  32
HETATM   32  C23 UNL     1      25.172  -0.816  54.212  1.00  0.00     0.226 C 
HETATM   33  F1  UNL     1      23.768  -0.962  53.990  1.00  0.00    -0.255 F 
ENDBRANCH  31  32
ENDBRANCH  30  31
ENDBRANCH  24  25
ENDBRANCH  23  24
ENDBRANCH   5  23
TORSDOF 7
ENDMDL
MODEL 2
REMARK VINA RESULT:      -8.7      3.190      5.919
REMARK  7 active torsions:
REMARK  status: ('A' for Active; 'I' for Inactive)
REMARK       I    between atoms: N1_1  and  C1_2 
REMARK    1  A    between atoms: C1_2  and  C2_4 
REMARK    2  A    between atoms: C3_6  and  N2_7 
REMARK    3  A    between atoms: C14_20  and  O2_21 
REMARK    4  A    between atoms: O2_21  and  C15_22 
REMARK    5  A    between atoms: C15_22  and  C16_23 
REMARK    6  A    between atoms: C21_28  and  C22_29 
REMARK    7  A    between atoms: C22_29  and  C23_30 
ROOT
HETATM    1  C2  UNL     1      23.084   1.166  52.727  1.00  0.00     0.107 A 
HETATM    2  S1  UNL     1      22.229   2.661  52.018  1.00  0.00    -0.064 SA
HETATM    3  C3  UNL     1      23.835   3.353  51.387  1.00  0.00     0.085 A 
HETATM    4  C13 UNL     1      24.825   2.465  51.737  1.00  0.00     0.076 A 
HETATM    5  C14 UNL     1      24.418   1.353  52.407  1.00  0.00     0.094 A 
ENDROOT
BRANCH   3   6
HETATM    6  N2  UNL     1      23.712   4.475  50.628  1.00  0.00    -0.300 N 
HETATM    7  C4  UNL     1      22.537   4.548  49.651  1.00  0.00     0.211 C 
HETATM    8  N3  UNL     1      22.142   5.591  48.913  1.00  0.00    -0.265 NA
HETATM    9  C5  UNL     1      22.455   6.959  48.548  1.00  0.00     0.274 C 
HETATM   10  N4  UNL     1      23.824   7.344  49.161  1.00  0.00    -0.363 N 
HETATM   11  C6  UNL     1      24.417   8.136  50.418  1.00  0.00     0.090 C 
HETATM   12  C12 UNL     1      24.898   6.647  48.440  1.00  0.00     0.117 C 
HETATM   13  C7  UNL     1      23.942   7.062  51.025  1.00  0.00     0.047 C 
HETATM   14  C8  UNL     1      24.571   5.729  50.481  1.00  0.00     0.046 C 
HETATM   15  C9  UNL     1      25.613   5.855  49.529  1.00  0.00    -0.030 C 
HETATM   16  C10 UNL     1      26.789   5.946  48.567  1.00  0.00     0.041 C 
HETATM   17  C11 UNL     1      26.207   7.266  48.169  1.00  0.00     0.034 C 
ENDBRANCH   3   6
BRANCH   1  18
HETATM   18  C1  UNL     1      22.221   0.289  53.448  1.00  0.00     0.259 C 
HETATM   19  N1  UNL     1      22.035  -0.740  52.429  1.00  0.00    -0.365 N 
HETATM   20  H1  UNL     1      21.595  -0.988  51.489  1.00  0.00     0.159 HD
HETATM   21  H2  UNL     1      22.331  -1.721  52.154  1.00  0.00     0.159 HD
HETATM   22  O1  UNL     1      21.686   0.226  54.570  1.00  0.00    -0.267 OA
ENDBRANCH   1  18
BRANCH   5  23
HETATM   23  O2  UNL     1      24.918   0.291  52.835  1.00  0.00    -0.345 OA
BRANCH  23  24
HETATM   24  C15 UNL     1      25.467  -0.837  53.264  1.00  0.00     0.215 C 
BRANCH  24  25
HETATM   25  C16 UNL     1      26.983  -0.682  53.337  1.00  0.00    -0.028 A 
HETATM   26  C17 UNL     1      27.326  -2.041  52.956  1.00  0.00     0.010 A 
HETATM   27  C18 UNL     1      28.641  -2.609  52.944  1.00  0.00     0.001 A 
HETATM   28  C19 UNL     1      29.631  -1.791  53.315  1.00  0.00     0.001 A 
HETATM   29  C20 UNL     1      29.377  -0.464  53.699  1.00  0.00     0.008 A 
HETATM   30  C21 UNL     1      28.080  -0.022  53.675  1.00  0.00    -0.048 A 
BRANCH  30  31
HETATM   31  C22 UNL     1      27.853   1.375  53.998  1.00  0.00     0.070 C 
BRANCH  31  32
HETATM   32  C23 UNL     1      28.955   2.275  53.780  1.00  0.00     0.226 C 
HETATM   33  F1  UNL     1      29.830   2.387  54.904  1.00  0.00    -0.255 F 
ENDBRANCH  31  32
ENDBRANCH  30  31
ENDBRANCH  24  25
ENDBRANCH  23  24
ENDBRANCH   5  23
TORSDOF 7
ENDMDL
MODEL 3
REMARK VINA RESULT:      -8.5      6.027     11.016
REMARK  7 active torsions:
REMARK  status: ('A' for Active; 'I' for Inactive)
REMARK       I    between atoms: N1_1  and  C1_2 
REMARK    1  A    between atoms: C1_2  and  C2_4 
REMARK    2  A    between atoms: C3_6  and  N2_7 
REMARK    3  A    between atoms: C14_20  and  O2_21 
REMARK    4  A    between atoms: O2_21  and  C15_22 
REMARK    5  A    between atoms: C15_22  and  C16_23 
REMARK    6  A    between atoms: C21_28  and  C22_29 
REMARK    7  A    between atoms: C22_29  and  C23_30 
ROOT
HETATM    1  C2  UNL     1      27.726   8.354  49.002  1.00  0.00     0.107 A 
HETATM    2  S1  UNL     1      29.540   8.571  48.640  1.00  0.00    -0.064 SA
HETATM    3  C3  UNL     1      29.682   6.826  48.014  1.00  0.00     0.085 A 
HETATM    4  C13 UNL     1      28.437   6.253  48.121  1.00  0.00     0.076 A 
HETATM    5  C14 UNL     1      27.454   7.053  48.615  1.00  0.00     0.094 A 
ENDROOT
BRANCH   3   6
HETATM    6  N2  UNL     1      30.892   6.511  47.477  1.00  0.00    -0.300 N 
HETATM    7  C4  UNL     1      31.352   7.298  46.248  1.00  0.00     0.211 C 
HETATM    8  N3  UNL     1      32.543   7.258  45.641  1.00  0.00    -0.265 NA
HETATM    9  C5  UNL     1      33.842   6.613  45.643  1.00  0.00     0.274 C 
HETATM   10  N4  UNL     1      33.829   5.453  46.669  1.00  0.00    -0.363 N 
HETATM   11  C6  UNL     1      34.299   5.145  48.166  1.00  0.00     0.090 C 
HETATM   12  C12 UNL     1      33.008   4.349  46.151  1.00  0.00     0.117 C 
HETATM   13  C7  UNL     1      33.289   5.965  48.405  1.00  0.00     0.047 C 
HETATM   14  C8  UNL     1      31.931   5.442  47.812  1.00  0.00     0.046 C 
HETATM   15  C9  UNL     1      31.943   4.153  47.223  1.00  0.00    -0.030 C 
HETATM   16  C10 UNL     1      31.892   2.743  46.656  1.00  0.00     0.041 C 
HETATM   17  C11 UNL     1      33.349   2.933  46.371  1.00  0.00     0.034 C 
ENDBRANCH   3   6
BRANCH   1  18
HETATM   18  C1  UNL     1      27.118   9.485  49.624  1.00  0.00     0.259 C 
HETATM   19  N1  UNL     1      27.520   9.232  51.005  1.00  0.00    -0.365 N 
HETATM   20  H1  UNL     1      27.392   8.617  51.867  1.00  0.00     0.159 HD
HETATM   21  H2  UNL     1      28.199   9.542  51.759  1.00  0.00     0.159 HD
HETATM   22  O1  UNL     1      26.436  10.472  49.295  1.00  0.00    -0.267 OA
ENDBRANCH   1  18
BRANCH   5  23
HETATM   23  O2  UNL     1      26.220   6.999  48.807  1.00  0.00    -0.345 OA
BRANCH  23  24
HETATM   24  C15 UNL     1      24.907   6.943  48.980  1.00  0.00     0.215 C 
BRANCH  24  25
HETATM   25  C16 UNL     1      24.445   5.489  48.989  1.00  0.00    -0.028 A 
HETATM   26  C17 UNL     1      23.414   5.616  47.973  1.00  0.00     0.010 A 
HETATM   27  C18 UNL     1      22.487   4.598  47.578  1.00  0.00     0.001 A 
HETATM   28  C19 UNL     1      22.606   3.427  48.211  1.00  0.00     0.001 A 
HETATM   29  C20 UNL     1      23.577   3.229  49.206  1.00  0.00     0.008 A 
HETATM   30  C21 UNL     1      24.414   4.272  49.508  1.00  0.00    -0.048 A 
BRANCH  30  31
HETATM   31  C22 UNL     1      25.461   4.017  50.481  1.00  0.00     0.070 C 
BRANCH  31  32
HETATM   32  C23 UNL     1      26.489   3.087  50.093  1.00  0.00     0.226 C 
HETATM   33  F1  UNL     1      27.087   3.390  48.831  1.00  0.00    -0.255 F 
ENDBRANCH  31  32
ENDBRANCH  30  31
ENDBRANCH  24  25
ENDBRANCH  23  24
ENDBRANCH   5  23
TORSDOF 7
ENDMDL
MODEL 4
REMARK VINA RESULT:      -8.5      4.465      7.727
REMARK  7 active torsions:
REMARK  status: ('A' for Active; 'I' for Inactive)
REMARK       I    between atoms: N1_1  and  C1_2 
REMARK    1  A    between atoms: C1_2  and  C2_4 
REMARK    2  A    between atoms: C3_6  and  N2_7 
REMARK    3  A    between atoms: C14_20  and  O2_21 
REMARK    4  A    between atoms: O2_21  and  C15_22 
REMARK    5  A    between atoms: C15_22  and  C16_23 
REMARK    6  A    between atoms: C21_28  and  C22_29 
REMARK    7  A    between atoms: C22_29  and  C23_30 
ROOT
HETATM    1  C2  UNL     1      24.628   5.417  50.441  1.00  0.00     0.107 A 
HETATM    2  S1  UNL     1      24.104   4.172  51.723  1.00  0.00    -0.064 SA
HETATM    3  C3  UNL     1      25.521   3.047  51.293  1.00  0.00     0.085 A 
HETATM    4  C13 UNL     1      26.230   3.654  50.283  1.00  0.00     0.076 A 
HETATM    5  C14 UNL     1      25.764   4.865  49.874  1.00  0.00     0.094 A 
ENDROOT
BRANCH   3   6
HETATM    6  N2  UNL     1      25.654   1.964  52.105  1.00  0.00    -0.300 N 
HETATM    7  C4  UNL     1      24.488   1.625  53.037  1.00  0.00     0.211 C 
HETATM    8  N3  UNL     1      24.339   0.546  53.812  1.00  0.00    -0.265 NA
HETATM    9  C5  UNL     1      24.977  -0.677  54.260  1.00  0.00     0.274 C 
HETATM   10  N4  UNL     1      26.429  -0.716  53.722  1.00  0.00    -0.363 N 
HETATM   11  C6  UNL     1      27.271  -1.375  52.533  1.00  0.00     0.090 C 
HETATM   12  C12 UNL     1      27.247   0.266  54.449  1.00  0.00     0.117 C 
HETATM   13  C7  UNL     1      26.566  -0.488  51.852  1.00  0.00     0.047 C 
HETATM   14  C8  UNL     1      26.799   0.984  52.351  1.00  0.00     0.046 C 
HETATM   15  C9  UNL     1      27.788   1.173  53.349  1.00  0.00    -0.030 C 
HETATM   16  C10 UNL     1      28.895   1.430  54.360  1.00  0.00     0.041 C 
HETATM   17  C11 UNL     1      28.655   0.021  54.803  1.00  0.00     0.034 C 
ENDBRANCH   3   6
BRANCH   1  18
HETATM   18  C1  UNL     1      23.741   6.526  50.310  1.00  0.00     0.259 C 
HETATM   19  N1  UNL     1      24.069   7.230  51.547  1.00  0.00    -0.365 N 
HETATM   20  H1  UNL     1      24.002   7.229  52.612  1.00  0.00     0.159 HD
HETATM   21  H2  UNL     1      24.599   8.065  51.930  1.00  0.00     0.159 HD
HETATM   22  O1  UNL     1      22.893   6.950  49.502  1.00  0.00    -0.267 OA
ENDBRANCH   1  18
BRANCH   5  23
HETATM   23  O2  UNL     1      26.106   5.775  49.088  1.00  0.00    -0.345 OA
BRANCH  23  24
HETATM   24  C15 UNL     1      26.485   6.720  48.239  1.00  0.00     0.215 C 
BRANCH  24  25
HETATM   25  C16 UNL     1      27.945   7.086  48.487  1.00  0.00    -0.028 A 
HETATM   26  C17 UNL     1      27.717   8.432  48.983  1.00  0.00     0.010 A 
HETATM   27  C18 UNL     1      28.726   9.399  49.298  1.00  0.00     0.001 A 
HETATM   28  C19 UNL     1      29.989   9.001  49.117  1.00  0.00     0.001 A 
HETATM   29  C20 UNL     1      30.288   7.715  48.638  1.00  0.00     0.008 A 
HETATM   30  C21 UNL     1      29.246   6.868  48.367  1.00  0.00    -0.048 A 
BRANCH  30  31
HETATM   31  C22 UNL     1      29.583   5.519  47.951  1.00  0.00     0.070 C 
BRANCH  31  32
HETATM   32  C23 UNL     1      30.984   5.216  47.815  1.00  0.00     0.226 C 
HETATM   33  F1  UNL     1      31.239   3.991  47.127  1.00  0.00    -0.255 F 
ENDBRANCH  31  32
ENDBRANCH  30  31
ENDBRANCH  24  25
ENDBRANCH  23  24
ENDBRANCH   5  23
TORSDOF 7
ENDMDL
MODEL 5
REMARK VINA RESULT:      -8.4      4.783      9.649
REMARK  7 active torsions:
REMARK  status: ('A' for Active; 'I' for Inactive)
REMARK       I    between atoms: N1_1  and  C1_2 
REMARK    1  A    between atoms: C1_2  and  C2_4 
REMARK    2  A    between atoms: C3_6  and  N2_7 
REMARK    3  A    between atoms: C14_20  and  O2_21 
REMARK    4  A    between atoms: O2_21  and  C15_22 
REMARK    5  A    between atoms: C15_22  and  C16_23 
REMARK    6  A    between atoms: C21_28  and  C22_29 
REMARK    7  A    between atoms: C22_29  and  C23_30 
ROOT
HETATM    1  C2  UNL     1      25.733   6.094  49.321  1.00  0.00     0.107 A 
HETATM    2  S1  UNL     1      27.139   7.230  48.875  1.00  0.00    -0.064 SA
HETATM    3  C3  UNL     1      28.265   5.793  48.523  1.00  0.00     0.085 A 
HETATM    4  C13 UNL     1      27.543   4.645  48.756  1.00  0.00     0.076 A 
HETATM    5  C14 UNL     1      26.253   4.823  49.149  1.00  0.00     0.094 A 
ENDROOT
BRANCH   3   6
HETATM    6  N2  UNL     1      29.476   6.131  48.005  1.00  0.00    -0.300 N 
HETATM    7  C4  UNL     1      29.514   7.238  46.949  1.00  0.00     0.211 C 
HETATM    8  N3  UNL     1      30.587   7.824  46.407  1.00  0.00    -0.265 NA
HETATM    9  C5  UNL     1      32.037   7.817  46.369  1.00  0.00     0.274 C 
HETATM   10  N4  UNL     1      32.558   6.610  47.187  1.00  0.00    -0.363 N 
HETATM   11  C6  UNL     1      33.154   6.285  48.635  1.00  0.00     0.090 C 
HETATM   12  C12 UNL     1      32.289   5.366  46.451  1.00  0.00     0.117 C 
HETATM   13  C7  UNL     1      31.894   6.530  48.953  1.00  0.00     0.047 C 
HETATM   14  C8  UNL     1      30.886   5.580  48.212  1.00  0.00     0.046 C 
HETATM   15  C9  UNL     1      31.444   4.546  47.419  1.00  0.00    -0.030 C 
HETATM   16  C10 UNL     1      32.000   3.374  46.625  1.00  0.00     0.041 C 
HETATM   17  C11 UNL     1      33.219   4.225  46.452  1.00  0.00     0.034 C 
ENDBRANCH   3   6
BRANCH   1  18
HETATM   18  C1  UNL     1      24.562   6.769  49.778  1.00  0.00     0.259 C 
HETATM   19  N1  UNL     1      24.860   6.804  51.207  1.00  0.00    -0.365 N 
HETATM   20  H1  UNL     1      24.954   6.238  52.107  1.00  0.00     0.159 HD
HETATM   21  H2  UNL     1      25.186   7.444  51.988  1.00  0.00     0.159 HD
HETATM   22  O1  UNL     1      23.521   7.254  49.298  1.00  0.00    -0.267 OA
ENDBRANCH   1  18
BRANCH   5  23
HETATM   23  O2  UNL     1      25.248   4.118  49.384  1.00  0.00    -0.345 OA
BRANCH  23  24
HETATM   24  C15 UNL     1      24.198   3.346  49.627  1.00  0.00     0.215 C 
BRANCH  24  25
HETATM   25  C16 UNL     1      24.495   2.420  50.802  1.00  0.00    -0.028 A 
HETATM   26  C17 UNL     1      23.151   1.896  50.969  1.00  0.00     0.010 A 
HETATM   27  C18 UNL     1      22.706   1.029  52.020  1.00  0.00     0.001 A 
HETATM   28  C19 UNL     1      23.634   0.677  52.914  1.00  0.00     0.001 A 
HETATM   29  C20 UNL     1      24.955   1.145  52.820  1.00  0.00     0.008 A 
HETATM   30  C21 UNL     1      25.274   1.972  51.774  1.00  0.00    -0.048 A 
BRANCH  30  31
HETATM   31  C22 UNL     1      26.663   2.377  51.653  1.00  0.00     0.070 C 
BRANCH  31  32
HETATM   32  C23 UNL     1      27.576   1.853  52.635  1.00  0.00     0.226 C 
HETATM   33  F1  UNL     1      28.477   2.831  53.156  1.00  0.00    -0.255 F 
ENDBRANCH  31  32
ENDBRANCH  30  31
ENDBRANCH  24  25
ENDBRANCH  23  24
ENDBRANCH   5  23
TORSDOF 7
ENDMDL
MODEL 6
REMARK VINA RESULT:      -8.2      3.296      7.471
REMARK  7 active torsions:
REMARK  status: ('A' for Active; 'I' for Inactive)
REMARK       I    between atoms: N1_1  and  C1_2 
REMARK    1  A    between atoms: C1_2  and  C2_4 
REMARK    2  A    between atoms: C3_6  and  N2_7 
REMARK    3  A    between atoms: C14_20  and  O2_21 
REMARK    4  A    between atoms: O2_21  and  C15_22 
REMARK    5  A    between atoms: C15_22  and  C16_23 
REMARK    6  A    between atoms: C21_28  and  C22_29 
REMARK    7  A    between atoms: C22_29  and  C23_30 
ROOT
HETATM    1  C2  UNL     1      21.907   2.986  49.640  1.00  0.00     0.107 A 
HETATM    2  S1  UNL     1      22.801   3.959  48.329  1.00  0.00    -0.064 SA
HETATM    3  C3  UNL     1      23.390   5.207  49.574  1.00  0.00     0.085 A 
HETATM    4  C13 UNL     1      22.899   4.822  50.800  1.00  0.00     0.076 A 
HETATM    5  C14 UNL     1      22.157   3.681  50.811  1.00  0.00     0.094 A 
ENDROOT
BRANCH   3   6
HETATM    6  N2  UNL     1      24.255   6.136  49.085  1.00  0.00    -0.300 N 
HETATM    7  C4  UNL     1      23.827   6.923  47.844  1.00  0.00     0.211 C 
HETATM    8  N3  UNL     1      24.444   7.965  47.276  1.00  0.00    -0.265 NA
HETATM    9  C5  UNL     1      25.618   8.813  47.338  1.00  0.00     0.274 C 
HETATM   10  N4  UNL     1      26.593   8.248  48.401  1.00  0.00    -0.363 N 
HETATM   11  C6  UNL     1      27.019   8.504  49.920  1.00  0.00     0.090 C 
HETATM   12  C12 UNL     1      27.209   7.013  47.894  1.00  0.00     0.117 C 
HETATM   13  C7  UNL     1      25.814   7.990  50.102  1.00  0.00     0.047 C 
HETATM   14  C8  UNL     1      25.669   6.552  49.485  1.00  0.00     0.046 C 
HETATM   15  C9  UNL     1      26.840   5.967  48.940  1.00  0.00    -0.030 C 
HETATM   16  C10 UNL     1      28.087   5.271  48.419  1.00  0.00     0.041 C 
HETATM   17  C11 UNL     1      28.610   6.652  48.172  1.00  0.00     0.034 C 
ENDBRANCH   3   6
BRANCH   1  18
HETATM   18  C1  UNL     1      21.164   1.877  49.138  1.00  0.00     0.259 C 
HETATM   19  N1  UNL     1      19.837   2.483  49.108  1.00  0.00    -0.365 N 
HETATM   20  H1  UNL     1      19.014   2.845  49.684  1.00  0.00     0.159 HD
HETATM   21  H2  UNL     1      19.110   2.898  48.455  1.00  0.00     0.159 HD
HETATM   22  O1  UNL     1      21.374   0.703  48.778  1.00  0.00    -0.267 OA
ENDBRANCH   1  18
BRANCH   5  23
HETATM   23  O2  UNL     1      21.603   2.941  51.653  1.00  0.00    -0.345 OA
BRANCH  23  24
HETATM   24  C15 UNL     1      21.011   2.181  52.563  1.00  0.00     0.215 C 
BRANCH  24  25
HETATM   25  C16 UNL     1      21.966   1.084  53.024  1.00  0.00    -0.028 A 
HETATM   26  C17 UNL     1      21.023   0.356  53.855  1.00  0.00     0.010 A 
HETATM   27  C18 UNL     1      21.328  -0.761  54.699  1.00  0.00     0.001 A 
HETATM   28  C19 UNL     1      22.604  -1.157  54.701  1.00  0.00     0.001 A 
HETATM   29  C20 UNL     1      23.574  -0.500  53.925  1.00  0.00     0.008 A 
HETATM   30  C21 UNL     1      23.174   0.559  53.153  1.00  0.00    -0.048 A 
BRANCH  30  31
HETATM   31  C22 UNL     1      24.177   1.168  52.298  1.00  0.00     0.070 C 
BRANCH  31  32
HETATM   32  C23 UNL     1      25.045   2.139  52.914  1.00  0.00     0.226 C 
HETATM   33  F1  UNL     1      24.345   3.228  53.519  1.00  0.00    -0.255 F 
ENDBRANCH  31  32
ENDBRANCH  30  31
ENDBRANCH  24  25
ENDBRANCH  23  24
ENDBRANCH   5  23
TORSDOF 7
ENDMDL
MODEL 7
REMARK VINA RESULT:      -8.1      4.468      9.069
REMARK  7 active torsions:
REMARK  status: ('A' for Active; 'I' for Inactive)
REMARK       I    between atoms: N1_1  and  C1_2 
REMARK    1  A    between atoms: C1_2  and  C2_4 
REMARK    2  A    between atoms: C3_6  and  N2_7 
REMARK    3  A    between atoms: C14_20  and  O2_21 
REMARK    4  A    between atoms: O2_21  and  C15_22 
REMARK    5  A    between atoms: C15_22  and  C16_23 
REMARK    6  A    between atoms: C21_28  and  C22_29 
REMARK    7  A    between atoms: C22_29  and  C23_30 
ROOT
HETATM    1  C2  UNL     1      24.180   5.764  50.455  1.00  0.00     0.107 A 
HETATM    2  S1  UNL     1      25.185   7.332  50.476  1.00  0.00    -0.064 SA
HETATM    3  C3  UNL     1      26.448   6.606  49.321  1.00  0.00     0.085 A 
HETATM    4  C13 UNL     1      26.045   5.324  49.030  1.00  0.00     0.076 A 
HETATM    5  C14 UNL     1      24.881   4.921  49.609  1.00  0.00     0.094 A 
ENDROOT
BRANCH   3   6
HETATM    6  N2  UNL     1      27.405   7.478  48.904  1.00  0.00    -0.300 N 
HETATM    7  C4  UNL     1      27.530   8.808  49.649  1.00  0.00     0.211 C 
HETATM    8  N3  UNL     1      28.472   9.748  49.508  1.00  0.00    -0.265 NA
HETATM    9  C5  UNL     1      29.651  10.126  48.754  1.00  0.00     0.274 C 
HETATM   10  N4  UNL     1      29.858   9.115  47.599  1.00  0.00    -0.363 N 
HETATM   11  C6  UNL     1      30.736   7.825  47.251  1.00  0.00     0.090 C 
HETATM   12  C12 UNL     1      28.830   9.331  46.569  1.00  0.00     0.117 C 
HETATM   13  C7  UNL     1      29.918   7.311  48.154  1.00  0.00     0.047 C 
HETATM   14  C8  UNL     1      28.406   7.449  47.750  1.00  0.00     0.046 C 
HETATM   15  C9  UNL     1      28.131   7.980  46.465  1.00  0.00    -0.030 C 
HETATM   16  C10 UNL     1      27.795   8.468  45.064  1.00  0.00     0.041 C 
HETATM   17  C11 UNL     1      29.105   9.188  45.129  1.00  0.00     0.034 C 
ENDBRANCH   3   6
BRANCH   1  18
HETATM   18  C1  UNL     1      23.049   5.786  51.323  1.00  0.00     0.259 C 
HETATM   19  N1  UNL     1      23.716   5.458  52.579  1.00  0.00    -0.365 N 
HETATM   20  H1  UNL     1      24.210   4.703  53.149  1.00  0.00     0.159 HD
HETATM   21  H2  UNL     1      24.063   5.879  53.489  1.00  0.00     0.159 HD
HETATM   22  O1  UNL     1      21.823   5.994  51.249  1.00  0.00    -0.267 OA
ENDBRANCH   1  18
BRANCH   5  23
HETATM   23  O2  UNL     1      24.121   3.929  49.576  1.00  0.00    -0.345 OA
BRANCH  23  24
HETATM   24  C15 UNL     1      23.334   2.863  49.561  1.00  0.00     0.215 C 
BRANCH  24  25
HETATM   25  C16 UNL     1      23.533   2.052  50.837  1.00  0.00    -0.028 A 
HETATM   26  C17 UNL     1      22.284   1.312  50.783  1.00  0.00     0.010 A 
HETATM   27  C18 UNL     1      21.781   0.428  51.792  1.00  0.00     0.001 A 
HETATM   28  C19 UNL     1      22.554   0.278  52.872  1.00  0.00     0.001 A 
HETATM   29  C20 UNL     1      23.775   0.962  52.997  1.00  0.00     0.008 A 
HETATM   30  C21 UNL     1      24.162   1.786  51.972  1.00  0.00    -0.048 A 
BRANCH  30  31
HETATM   31  C22 UNL     1      25.464   2.417  52.088  1.00  0.00     0.070 C 
BRANCH  31  32
HETATM   32  C23 UNL     1      26.562   1.755  51.434  1.00  0.00     0.226 C 
HETATM   33  F1  UNL     1      26.814   2.236  50.113  1.00  0.00    -0.255 F 
ENDBRANCH  31  32
ENDBRANCH  30  31
ENDBRANCH  24  25
ENDBRANCH  23  24
ENDBRANCH   5  23
TORSDOF 7
ENDMDL
MODEL 8
REMARK VINA RESULT:      -8.1      4.709      6.901
REMARK  7 active torsions:
REMARK  status: ('A' for Active; 'I' for Inactive)
REMARK       I    between atoms: N1_1  and  C1_2 
REMARK    1  A    between atoms: C1_2  and  C2_4 
REMARK    2  A    between atoms: C3_6  and  N2_7 
REMARK    3  A    between atoms: C14_20  and  O2_21 
REMARK    4  A    between atoms: O2_21  and  C15_22 
REMARK    5  A    between atoms: C15_22  and  C16_23 
REMARK    6  A    between atoms: C21_28  and  C22_29 
REMARK    7  A    between atoms: C22_29  and  C23_30 
ROOT
HETATM    1  C2  UNL     1      26.227   7.964  49.586  1.00  0.00     0.107 A 
HETATM    2  S1  UNL     1      24.871   7.420  50.741  1.00  0.00    -0.064 SA
HETATM    3  C3  UNL     1      24.803   5.734  49.960  1.00  0.00     0.085 A 
HETATM    4  C13 UNL     1      25.743   5.713  48.956  1.00  0.00     0.076 A 
HETATM    5  C14 UNL     1      26.464   6.855  48.792  1.00  0.00     0.094 A 
ENDROOT
BRANCH   3   6
HETATM    6  N2  UNL     1      23.978   4.850  50.584  1.00  0.00    -0.300 N 
HETATM    7  C4  UNL     1      22.828   5.418  51.419  1.00  0.00     0.211 C 
HETATM    8  N3  UNL     1      21.824   4.752  52.001  1.00  0.00    -0.265 NA
HETATM    9  C5  UNL     1      21.280   3.433  52.253  1.00  0.00     0.274 C 
HETATM   10  N4  UNL     1      22.285   2.367  51.751  1.00  0.00    -0.363 N 
HETATM   11  C6  UNL     1      22.520   1.413  50.489  1.00  0.00     0.090 C 
HETATM   12  C12 UNL     1      23.448   2.327  52.649  1.00  0.00     0.117 C 
HETATM   13  C7  UNL     1      22.805   2.586  49.948  1.00  0.00     0.047 C 
HETATM   14  C8  UNL     1      23.976   3.327  50.690  1.00  0.00     0.046 C 
HETATM   15  C9  UNL     1      24.628   2.616  51.728  1.00  0.00    -0.030 C 
HETATM   16  C10 UNL     1      25.408   1.859  52.793  1.00  0.00     0.041 C 
HETATM   17  C11 UNL     1      24.147   1.077  52.991  1.00  0.00     0.034 C 
ENDBRANCH   3   6
BRANCH   1  18
HETATM   18  C1  UNL     1      26.610   9.329  49.741  1.00  0.00     0.259 C 
HETATM   19  N1  UNL     1      27.534   9.183  50.861  1.00  0.00    -0.365 N 
HETATM   20  H1  UNL     1      27.639   8.977  51.903  1.00  0.00     0.159 HD
HETATM   21  H2  UNL     1      28.565   9.164  51.111  1.00  0.00     0.159 HD
HETATM   22  O1  UNL     1      26.366  10.429  49.211  1.00  0.00    -0.267 OA
ENDBRANCH   1  18
BRANCH   5  23
HETATM   23  O2  UNL     1      27.427   7.255  48.102  1.00  0.00    -0.345 OA
BRANCH  23  24
HETATM   24  C15 UNL     1      28.466   7.661  47.386  1.00  0.00     0.215 C 
BRANCH  24  25
HETATM   25  C16 UNL     1      29.763   7.279  48.091  1.00  0.00    -0.028 A 
HETATM   26  C17 UNL     1      30.038   8.574  48.688  1.00  0.00     0.010 A 
HETATM   27  C18 UNL     1      31.220   8.937  49.412  1.00  0.00     0.001 A 
HETATM   28  C19 UNL     1      32.139   7.976  49.545  1.00  0.00     0.001 A 
HETATM   29  C20 UNL     1      31.945   6.699  48.993  1.00  0.00     0.008 A 
HETATM   30  C21 UNL     1      30.777   6.458  48.318  1.00  0.00    -0.048 A 
BRANCH  30  31
HETATM   31  C22 UNL     1      30.564   5.108  47.828  1.00  0.00     0.070 C 
BRANCH  31  32
HETATM   32  C23 UNL     1      31.740   4.361  47.464  1.00  0.00     0.226 C 
HETATM   33  F1  UNL     1      31.528   3.452  46.383  1.00  0.00    -0.255 F 
ENDBRANCH  31  32
ENDBRANCH  30  31
ENDBRANCH  24  25
ENDBRANCH  23  24
ENDBRANCH   5  23
TORSDOF 7
ENDMDL
MODEL 9
REMARK VINA RESULT:      -8.0      3.791      8.281
REMARK  7 active torsions:
REMARK  status: ('A' for Active; 'I' for Inactive)
REMARK       I    between atoms: N1_1  and  C1_2 
REMARK    1  A    between atoms: C1_2  and  C2_4 
REMARK    2  A    between atoms: C3_6  and  N2_7 
REMARK    3  A    between atoms: C14_20  and  O2_21 
REMARK    4  A    between atoms: O2_21  and  C15_22 
REMARK    5  A    between atoms: C15_22  and  C16_23 
REMARK    6  A    between atoms: C21_28  and  C22_29 
REMARK    7  A    between atoms: C22_29  and  C23_30 
ROOT
HETATM    1  C2  UNL     1      23.218   4.927  50.446  1.00  0.00     0.107 A 
HETATM    2  S1  UNL     1      24.235   6.437  50.051  1.00  0.00    -0.064 SA
HETATM    3  C3  UNL     1      25.636   5.396  49.410  1.00  0.00     0.085 A 
HETATM    4  C13 UNL     1      25.257   4.081  49.537  1.00  0.00     0.076 A 
HETATM    5  C14 UNL     1      24.017   3.866  50.054  1.00  0.00     0.094 A 
ENDROOT
BRANCH   3   6
HETATM    6  N2  UNL     1      26.656   6.099  48.848  1.00  0.00    -0.300 N 
HETATM    7  C4  UNL     1      27.968   5.358  48.580  1.00  0.00     0.211 C 
HETATM    8  N3  UNL     1      29.045   5.800  47.921  1.00  0.00    -0.265 NA
HETATM    9  C5  UNL     1      29.621   6.946  47.245  1.00  0.00     0.274 C 
HETATM   10  N4  UNL     1      28.688   8.167  47.436  1.00  0.00    -0.363 N 
HETATM   11  C6  UNL     1      27.558   8.973  46.641  1.00  0.00     0.090 C 
HETATM   12  C12 UNL     1      28.772   8.636  48.826  1.00  0.00     0.117 C 
HETATM   13  C7  UNL     1      26.899   7.860  46.913  1.00  0.00     0.047 C 
HETATM   14  C8  UNL     1      26.814   7.566  48.454  1.00  0.00     0.046 C 
HETATM   15  C9  UNL     1      27.333   8.557  49.325  1.00  0.00    -0.030 C 
HETATM   16  C10 UNL     1      27.804   9.629  50.295  1.00  0.00     0.041 C 
HETATM   17  C11 UNL     1      28.715  10.062  49.189  1.00  0.00     0.034 C 
ENDBRANCH   3   6
BRANCH   1  18
HETATM   18  C1  UNL     1      21.977   5.213  51.087  1.00  0.00     0.259 C 
HETATM   19  N1  UNL     1      22.415   5.146  52.478  1.00  0.00    -0.365 N 
HETATM   20  H1  UNL     1      22.746   4.516  53.273  1.00  0.00     0.159 HD
HETATM   21  H2  UNL     1      22.659   5.745  53.318  1.00  0.00     0.159 HD
HETATM   22  O1  UNL     1      20.801   5.468  50.766  1.00  0.00    -0.267 OA
ENDBRANCH   1  18
BRANCH   5  23
HETATM   23  O2  UNL     1      23.254   2.900  50.269  1.00  0.00    -0.345 OA
BRANCH  23  24
HETATM   24  C15 UNL     1      22.465   1.863  50.515  1.00  0.00     0.215 C 
BRANCH  24  25
HETATM   25  C16 UNL     1      23.038   1.035  51.661  1.00  0.00    -0.028 A 
HETATM   26  C17 UNL     1      21.785   0.456  52.115  1.00  0.00     0.010 A 
HETATM   27  C18 UNL     1      21.603  -0.358  53.280  1.00  0.00     0.001 A 
HETATM   28  C19 UNL     1      22.705  -0.601  53.997  1.00  0.00     0.001 A 
HETATM   29  C20 UNL     1      23.952  -0.073  53.622  1.00  0.00     0.008 A 
HETATM   30  C21 UNL     1      24.014   0.695  52.489  1.00  0.00    -0.048 A 
BRANCH  30  31
HETATM   31  C22 UNL     1      25.326   1.160  52.077  1.00  0.00     0.070 C 
BRANCH  31  32
HETATM   32  C23 UNL     1      26.450   0.351  52.473  1.00  0.00     0.226 C 
HETATM   33  F1  UNL     1      26.638  -0.804  51.654  1.00  0.00    -0.255 F 
ENDBRANCH  31  32
ENDBRANCH  30  31
ENDBRANCH  24  25
ENDBRANCH  23  24
ENDBRANCH   5  23
TORSDOF 7
ENDMDL
