MODEL 1
REMARK VINA RESULT:      -8.2      0.000      0.000
REMARK  5 active torsions:
REMARK  status: ('A' for Active; 'I' for Inactive)
REMARK    1  A    between atoms: C5_5  and  S1_6 
REMARK    2  A    between atoms: S1_6  and  N1_8 
REMARK    3  A    between atoms: N1_8  and  C6_9 
REMARK    4  A    between atoms: C11_15  and  O2_16 
REMARK    5  A    between atoms: O2_16  and  O3_17 
ROOT
HETATM    1  C6  UNL     1      22.614   0.264  52.491  1.00  0.00     0.024 C 
HETATM    2  C7  UNL     1      21.531   0.780  51.947  1.00  0.00     0.027 C 
HETATM    3  C8  UNL     1      20.174   0.258  52.190  1.00  0.00     0.026 C 
HETATM    4  C9  UNL     1      19.749  -0.590  53.113  1.00  0.00     0.036 C 
HETATM    5 CL1  UNL     1      18.026  -0.999  53.107  1.00  0.00    -0.084 Cl
HETATM    6  C10 UNL     1      20.546  -1.234  54.144  1.00  0.00     0.059 C 
HETATM    7  C11 UNL     1      21.863  -1.319  54.239  1.00  0.00     0.091 C 
HETATM    8  C12 UNL     1      22.940  -0.826  53.396  1.00  0.00     0.125 C 
ENDROOT
BRANCH   1   9
HETATM    9  N1  UNL     1      23.734   1.017  52.035  1.00  0.00    -0.305 N 
HETATM   10  H6  UNL     1      23.971   0.783  51.030  1.00  0.00     0.176 HD
BRANCH   9  11
HETATM   11  S1  UNL     1      24.930   2.201  52.435  1.00  0.00     0.150 S 
HETATM   12  O1  UNL     1      24.533   3.131  53.545  1.00  0.00    -0.230 OA
BRANCH  11  13
HETATM   13  C5  UNL     1      26.467   1.409  52.864  1.00  0.00     0.052 A 
HETATM   14  C4  UNL     1      26.445   0.042  52.594  1.00  0.00     0.023 A 
HETATM   15  C3  UNL     1      27.553  -0.757  52.859  1.00  0.00     0.008 A 
HETATM   16  C2  UNL     1      28.686  -0.141  53.404  1.00  0.00    -0.062 A 
HETATM   17  C1  UNL     1      29.888  -0.967  53.700  1.00  0.00     0.048 C 
HETATM   18  C14 UNL     1      28.681   1.214  53.661  1.00  0.00     0.008 A 
HETATM   19  C13 UNL     1      27.586   2.013  53.401  1.00  0.00     0.023 A 
ENDBRANCH  11  13
ENDBRANCH   9  11
ENDBRANCH   1   9
BRANCH   7  20
HETATM   20  O2  UNL     1      22.242  -2.020  55.378  1.00  0.00    -0.204 OA
BRANCH  20  21
HETATM   21  O3  UNL     1      23.365  -1.656  56.034  1.00  0.00    -0.245 OA
HETATM   22  H10 UNL     1      23.167  -1.807  56.987  1.00  0.00     0.254 HD
ENDBRANCH  20  21
ENDBRANCH   7  20
TORSDOF 5
ENDMDL
MODEL 2
REMARK VINA RESULT:      -8.1      4.703      6.811
REMARK  5 active torsions:
REMARK  status: ('A' for Active; 'I' for Inactive)
REMARK    1  A    between atoms: C5_5  and  S1_6 
REMARK    2  A    between atoms: S1_6  and  N1_8 
REMARK    3  A    between atoms: N1_8  and  C6_9 
REMARK    4  A    between atoms: C11_15  and  O2_16 
REMARK    5  A    between atoms: O2_16  and  O3_17 
ROOT
HETATM    1  C6  UNL     1      26.396   0.998  52.195  1.00  0.00     0.024 C 
HETATM    2  C7  UNL     1      26.375  -0.318  52.165  1.00  0.00     0.027 C 
HETATM    3  C8  UNL     1      27.503  -1.157  52.605  1.00  0.00     0.026 C 
HETATM    4  C9  UNL     1      28.580  -0.826  53.301  1.00  0.00     0.036 C 
HETATM    5 CL1  UNL     1      29.745  -2.112  53.654  1.00  0.00    -0.084 Cl
HETATM    6  C10 UNL     1      28.920   0.490  53.815  1.00  0.00     0.059 C 
HETATM    7  C11 UNL     1      28.387   1.662  53.505  1.00  0.00     0.091 C 
HETATM    8  C12 UNL     1      27.325   2.044  52.589  1.00  0.00     0.125 C 
ENDROOT
BRANCH   1   9
HETATM    9  N1  UNL     1      25.145   1.467  51.699  1.00  0.00    -0.305 N 
HETATM   10  H6  UNL     1      24.391   0.731  51.801  1.00  0.00     0.176 HD
BRANCH   9  11
HETATM   11  S1  UNL     1      24.289   2.780  50.968  1.00  0.00     0.150 S 
HETATM   12  O1  UNL     1      23.493   3.613  51.931  1.00  0.00    -0.230 OA
BRANCH  11  13
HETATM   13  C5  UNL     1      25.417   3.838  50.082  1.00  0.00     0.052 A 
HETATM   14  C4  UNL     1      24.985   5.162  50.057  1.00  0.00     0.023 A 
HETATM   15  C3  UNL     1      25.730   6.146  49.414  1.00  0.00     0.008 A 
HETATM   16  C2  UNL     1      26.923   5.759  48.794  1.00  0.00    -0.062 A 
HETATM   17  C1  UNL     1      27.743   6.786  48.096  1.00  0.00     0.048 C 
HETATM   18  C14 UNL     1      27.329   4.441  48.834  1.00  0.00     0.008 A 
HETATM   19  C13 UNL     1      26.595   3.460  49.469  1.00  0.00     0.023 A 
ENDBRANCH  11  13
ENDBRANCH   9  11
ENDBRANCH   1   9
BRANCH   7  20
HETATM   20  O2  UNL     1      28.990   2.694  54.217  1.00  0.00    -0.204 OA
BRANCH  20  21
HETATM   21  O3  UNL     1      30.032   2.414  55.028  1.00  0.00    -0.245 OA
HETATM   22  H10 UNL     1      30.516   1.681  54.582  1.00  0.00     0.254 HD
ENDBRANCH  20  21
ENDBRANCH   7  20
TORSDOF 5
ENDMDL
MODEL 3
REMARK VINA RESULT:      -7.7      3.480      7.080
REMARK  5 active torsions:
REMARK  status: ('A' for Active; 'I' for Inactive)
REMARK    1  A    between atoms: C5_5  and  S1_6 
REMARK    2  A    between atoms: S1_6  and  N1_8 
REMARK    3  A    between atoms: N1_8  and  C6_9 
REMARK    4  A    between atoms: C11_15  and  O2_16 
REMARK    5  A    between atoms: O2_16  and  O3_17 
ROOT
HETATM    1  C6  UNL     1      26.070   0.877  52.458  1.00  0.00     0.024 C 
HETATM    2  C7  UNL     1      26.099  -0.437  52.373  1.00  0.00     0.027 C 
HETATM    3  C8  UNL     1      27.294  -1.242  52.682  1.00  0.00     0.026 C 
HETATM    4  C9  UNL     1      28.411  -0.892  53.299  1.00  0.00     0.036 C 
HETATM    5 CL1  UNL     1      29.653  -2.139  53.498  1.00  0.00    -0.084 Cl
HETATM    6  C10 UNL     1      28.741   0.417  53.839  1.00  0.00     0.059 C 
HETATM    7  C11 UNL     1      28.138   1.575  53.625  1.00  0.00     0.091 C 
HETATM    8  C12 UNL     1      26.987   1.946  52.818  1.00  0.00     0.125 C 
ENDROOT
BRANCH   1   9
HETATM    9  N1  UNL     1      24.764   1.311  52.089  1.00  0.00    -0.305 N 
HETATM   10  H6  UNL     1      24.524   1.009  51.103  1.00  0.00     0.176 HD
BRANCH   9  11
HETATM   11  S1  UNL     1      23.337   2.157  52.578  1.00  0.00     0.150 S 
HETATM   12  O1  UNL     1      22.832   3.152  51.573  1.00  0.00    -0.230 OA
BRANCH  11  13
HETATM   13  C5  UNL     1      22.033   1.004  52.959  1.00  0.00     0.052 A 
HETATM   14  C4  UNL     1      20.874   1.263  52.231  1.00  0.00     0.023 A 
HETATM   15  C3  UNL     1      19.740   0.472  52.384  1.00  0.00     0.008 A 
HETATM   16  C2  UNL     1      19.805  -0.589  53.294  1.00  0.00    -0.062 A 
HETATM   17  C1  UNL     1      18.609  -1.455  53.483  1.00  0.00     0.048 C 
HETATM   18  C14 UNL     1      20.964  -0.825  54.003  1.00  0.00     0.008 A 
HETATM   19  C13 UNL     1      22.093  -0.044  53.856  1.00  0.00     0.023 A 
ENDBRANCH  11  13
ENDBRANCH   9  11
ENDBRANCH   1   9
BRANCH   7  20
HETATM   20  O2  UNL     1      28.757   2.603  54.327  1.00  0.00    -0.204 OA
BRANCH  20  21
HETATM   21  O3  UNL     1      30.074   2.509  54.609  1.00  0.00    -0.245 OA
HETATM   22  H10 UNL     1      30.380   3.439  54.719  1.00  0.00     0.254 HD
ENDBRANCH  20  21
ENDBRANCH   7  20
TORSDOF 5
ENDMDL
MODEL 4
REMARK VINA RESULT:      -7.6      4.072      5.940
REMARK  5 active torsions:
REMARK  status: ('A' for Active; 'I' for Inactive)
REMARK    1  A    between atoms: C5_5  and  S1_6 
REMARK    2  A    between atoms: S1_6  and  N1_8 
REMARK    3  A    between atoms: N1_8  and  C6_9 
REMARK    4  A    between atoms: C11_15  and  O2_16 
REMARK    5  A    between atoms: O2_16  and  O3_17 
ROOT
HETATM    1  C6  UNL     1      24.437   2.573  51.288  1.00  0.00     0.024 C 
HETATM    2  C7  UNL     1      25.578   2.145  50.788  1.00  0.00     0.027 C 
HETATM    3  C8  UNL     1      26.437   2.963  49.915  1.00  0.00     0.026 C 
HETATM    4  C9  UNL     1      26.396   4.263  49.669  1.00  0.00     0.036 C 
HETATM    5 CL1  UNL     1      27.603   4.915  48.549  1.00  0.00    -0.084 Cl
HETATM    6  C10 UNL     1      25.461   5.230  50.220  1.00  0.00     0.059 C 
HETATM    7  C11 UNL     1      24.327   5.008  50.865  1.00  0.00     0.091 C 
HETATM    8  C12 UNL     1      23.637   3.786  51.242  1.00  0.00     0.125 C 
ENDROOT
BRANCH   1   9
HETATM    9  N1  UNL     1      23.884   1.523  52.078  1.00  0.00    -0.305 N 
HETATM   10  H6  UNL     1      22.878   1.331  51.811  1.00  0.00     0.176 HD
BRANCH   9  11
HETATM   11  S1  UNL     1      24.161   0.377  53.343  1.00  0.00     0.150 S 
HETATM   12  O1  UNL     1      23.293  -0.846  53.271  1.00  0.00    -0.230 OA
BRANCH  11  13
HETATM   13  C5  UNL     1      25.871  -0.126  53.359  1.00  0.00     0.052 A 
HETATM   14  C4  UNL     1      26.640   0.660  54.214  1.00  0.00     0.023 A 
HETATM   15  C3  UNL     1      28.003   0.426  54.368  1.00  0.00     0.008 A 
HETATM   16  C2  UNL     1      28.571  -0.623  53.636  1.00  0.00    -0.062 A 
HETATM   17  C1  UNL     1      30.026  -0.899  53.777  1.00  0.00     0.048 C 
HETATM   18  C14 UNL     1      27.787  -1.386  52.796  1.00  0.00     0.008 A 
HETATM   19  C13 UNL     1      26.434  -1.159  52.638  1.00  0.00     0.023 A 
ENDBRANCH  11  13
ENDBRANCH   9  11
ENDBRANCH   1   9
BRANCH   7  20
HETATM   20  O2  UNL     1      23.715   6.202  51.234  1.00  0.00    -0.204 OA
BRANCH  20  21
HETATM   21  O3  UNL     1      24.354   7.035  52.082  1.00  0.00    -0.245 OA
HETATM   22  H10 UNL     1      24.790   7.704  51.505  1.00  0.00     0.254 HD
ENDBRANCH  20  21
ENDBRANCH   7  20
TORSDOF 5
ENDMDL
MODEL 5
REMARK VINA RESULT:      -7.5      4.959      7.531
REMARK  5 active torsions:
REMARK  status: ('A' for Active; 'I' for Inactive)
REMARK    1  A    between atoms: C5_5  and  S1_6 
REMARK    2  A    between atoms: S1_6  and  N1_8 
REMARK    3  A    between atoms: N1_8  and  C6_9 
REMARK    4  A    between atoms: C11_15  and  O2_16 
REMARK    5  A    between atoms: O2_16  and  O3_17 
ROOT
HETATM    1  C6  UNL     1      26.021   4.008  49.976  1.00  0.00     0.024 C 
HETATM    2  C7  UNL     1      27.101   4.036  49.223  1.00  0.00     0.027 C 
HETATM    3  C8  UNL     1      27.535   5.228  48.472  1.00  0.00     0.026 C 
HETATM    4  C9  UNL     1      27.130   6.484  48.575  1.00  0.00     0.036 C 
HETATM    5 CL1  UNL     1      27.881   7.669  47.495  1.00  0.00    -0.084 Cl
HETATM    6  C10 UNL     1      26.124   7.008  49.484  1.00  0.00     0.059 C 
HETATM    7  C11 UNL     1      25.238   6.344  50.210  1.00  0.00     0.091 C 
HETATM    8  C12 UNL     1      24.959   4.925  50.358  1.00  0.00     0.125 C 
ENDROOT
BRANCH   1   9
HETATM    9  N1  UNL     1      25.917   2.705  50.543  1.00  0.00    -0.305 N 
HETATM   10  H6  UNL     1      25.021   2.227  50.244  1.00  0.00     0.176 HD
BRANCH   9  11
HETATM   11  S1  UNL     1      26.656   1.515  51.558  1.00  0.00     0.150 S 
HETATM   12  O1  UNL     1      27.739   2.049  52.450  1.00  0.00    -0.230 OA
BRANCH  11  13
HETATM   13  C5  UNL     1      25.424   0.706  52.561  1.00  0.00     0.052 A 
HETATM   14  C4  UNL     1      24.131   1.084  52.210  1.00  0.00     0.023 A 
HETATM   15  C3  UNL     1      23.027   0.561  52.876  1.00  0.00     0.008 A 
HETATM   16  C2  UNL     1      23.262  -0.353  53.908  1.00  0.00    -0.062 A 
HETATM   17  C1  UNL     1      22.103  -0.931  54.642  1.00  0.00     0.048 C 
HETATM   18  C14 UNL     1      24.553  -0.711  54.237  1.00  0.00     0.008 A 
HETATM   19  C13 UNL     1      25.653  -0.196  53.580  1.00  0.00     0.023 A 
ENDBRANCH  11  13
ENDBRANCH   9  11
ENDBRANCH   1   9
BRANCH   7  20
HETATM   20  O2  UNL     1      24.447   7.211  50.956  1.00  0.00    -0.204 OA
BRANCH  20  21
HETATM   21  O3  UNL     1      24.355   7.035  52.291  1.00  0.00    -0.245 OA
HETATM   22  H10 UNL     1      25.063   6.386  52.514  1.00  0.00     0.254 HD
ENDBRANCH  20  21
ENDBRANCH   7  20
TORSDOF 5
ENDMDL
MODEL 6
REMARK VINA RESULT:      -7.5      5.981      8.447
REMARK  5 active torsions:
REMARK  status: ('A' for Active; 'I' for Inactive)
REMARK    1  A    between atoms: C5_5  and  S1_6 
REMARK    2  A    between atoms: S1_6  and  N1_8 
REMARK    3  A    between atoms: N1_8  and  C6_9 
REMARK    4  A    between atoms: C11_15  and  O2_16 
REMARK    5  A    between atoms: O2_16  and  O3_17 
ROOT
HETATM    1  C6  UNL     1      25.790   5.962  49.899  1.00  0.00     0.024 C 
HETATM    2  C7  UNL     1      26.593   5.171  49.218  1.00  0.00     0.027 C 
HETATM    3  C8  UNL     1      27.645   5.668  48.313  1.00  0.00     0.026 C 
HETATM    4  C9  UNL     1      28.144   6.887  48.189  1.00  0.00     0.036 C 
HETATM    5 CL1  UNL     1      29.416   7.124  46.981  1.00  0.00    -0.084 Cl
HETATM    6  C10 UNL     1      27.760   8.071  48.940  1.00  0.00     0.059 C 
HETATM    7  C11 UNL     1      26.698   8.256  49.708  1.00  0.00     0.091 C 
HETATM    8  C12 UNL     1      25.585   7.391  50.064  1.00  0.00     0.125 C 
ENDROOT
BRANCH   1   9
HETATM    9  N1  UNL     1      24.909   5.140  50.661  1.00  0.00    -0.305 N 
HETATM   10  H6  UNL     1      24.764   5.531  51.633  1.00  0.00     0.176 HD
BRANCH   9  11
HETATM   11  S1  UNL     1      23.931   3.714  50.682  1.00  0.00     0.150 S 
HETATM   12  O1  UNL     1      23.385   3.318  49.340  1.00  0.00    -0.230 OA
BRANCH  11  13
HETATM   13  C5  UNL     1      24.848   2.345  51.362  1.00  0.00     0.052 A 
HETATM   14  C4  UNL     1      24.040   1.497  52.117  1.00  0.00     0.023 A 
HETATM   15  C3  UNL     1      24.569   0.367  52.732  1.00  0.00     0.008 A 
HETATM   16  C2  UNL     1      25.936   0.114  52.567  1.00  0.00    -0.062 A 
HETATM   17  C1  UNL     1      26.533  -1.086  53.213  1.00  0.00     0.048 C 
HETATM   18  C14 UNL     1      26.713   0.970  51.814  1.00  0.00     0.008 A 
HETATM   19  C13 UNL     1      26.195   2.093  51.201  1.00  0.00     0.023 A 
ENDBRANCH  11  13
ENDBRANCH   9  11
ENDBRANCH   1   9
BRANCH   7  20
HETATM   20  O2  UNL     1      26.688   9.534  50.256  1.00  0.00    -0.204 OA
BRANCH  20  21
HETATM   21  O3  UNL     1      27.520   9.817  51.280  1.00  0.00    -0.245 OA
HETATM   22  H10 UNL     1      27.218  10.690  51.623  1.00  0.00     0.254 HD
ENDBRANCH  20  21
ENDBRANCH   7  20
TORSDOF 5
ENDMDL
MODEL 7
REMARK VINA RESULT:      -7.5      4.017      4.920
REMARK  5 active torsions:
REMARK  status: ('A' for Active; 'I' for Inactive)
REMARK    1  A    between atoms: C5_5  and  S1_6 
REMARK    2  A    between atoms: S1_6  and  N1_8 
REMARK    3  A    between atoms: N1_8  and  C6_9 
REMARK    4  A    between atoms: C11_15  and  O2_16 
REMARK    5  A    between atoms: O2_16  and  O3_17 
ROOT
HETATM    1  C6  UNL     1      24.303   1.345  52.154  1.00  0.00     0.024 C 
HETATM    2  C7  UNL     1      22.989   1.386  52.229  1.00  0.00     0.027 C 
HETATM    3  C8  UNL     1      22.187   0.378  52.945  1.00  0.00     0.026 C 
HETATM    4  C9  UNL     1      22.572  -0.554  53.802  1.00  0.00     0.036 C 
HETATM    5 CL1  UNL     1      21.317  -1.606  54.475  1.00  0.00    -0.084 Cl
HETATM    6  C10 UNL     1      23.926  -0.817  54.260  1.00  0.00     0.059 C 
HETATM    7  C11 UNL     1      25.069  -0.377  53.758  1.00  0.00     0.091 C 
HETATM    8  C12 UNL     1      25.376   0.485  52.628  1.00  0.00     0.125 C 
ENDROOT
BRANCH   1   9
HETATM    9  N1  UNL     1      24.733   2.470  51.392  1.00  0.00    -0.305 N 
HETATM   10  H6  UNL     1      25.767   2.413  51.173  1.00  0.00     0.176 HD
BRANCH   9  11
HETATM   11  S1  UNL     1      24.272   3.957  50.638  1.00  0.00     0.150 S 
HETATM   12  O1  UNL     1      23.728   4.988  51.584  1.00  0.00    -0.230 OA
BRANCH  11  13
HETATM   13  C5  UNL     1      25.652   4.654  49.751  1.00  0.00     0.052 A 
HETATM   14  C4  UNL     1      25.481   6.014  49.501  1.00  0.00     0.023 A 
HETATM   15  C3  UNL     1      26.450   6.743  48.819  1.00  0.00     0.008 A 
HETATM   16  C2  UNL     1      27.598   6.065  48.395  1.00  0.00    -0.062 A 
HETATM   17  C1  UNL     1      28.654   6.815  47.663  1.00  0.00     0.048 C 
HETATM   18  C14 UNL     1      27.743   4.718  48.656  1.00  0.00     0.008 A 
HETATM   19  C13 UNL     1      26.786   3.988  49.331  1.00  0.00     0.023 A 
ENDBRANCH  11  13
ENDBRANCH   9  11
ENDBRANCH   1   9
BRANCH   7  20
HETATM   20  O2  UNL     1      26.156  -0.854  54.483  1.00  0.00    -0.204 OA
BRANCH  20  21
HETATM   21  O3  UNL     1      27.342  -1.017  53.861  1.00  0.00    -0.245 OA
HETATM   22  H10 UNL     1      27.791  -0.143  53.928  1.00  0.00     0.254 HD
ENDBRANCH  20  21
ENDBRANCH   7  20
TORSDOF 5
ENDMDL
MODEL 8
REMARK VINA RESULT:      -7.2      5.067      6.533
REMARK  5 active torsions:
REMARK  status: ('A' for Active; 'I' for Inactive)
REMARK    1  A    between atoms: C5_5  and  S1_6 
REMARK    2  A    between atoms: S1_6  and  N1_8 
REMARK    3  A    between atoms: N1_8  and  C6_9 
REMARK    4  A    between atoms: C11_15  and  O2_16 
REMARK    5  A    between atoms: O2_16  and  O3_17 
ROOT
HETATM    1  C6  UNL     1      25.439   3.052  51.513  1.00  0.00     0.024 C 
HETATM    2  C7  UNL     1      24.268   2.650  51.963  1.00  0.00     0.027 C 
HETATM    3  C8  UNL     1      24.082   1.418  52.751  1.00  0.00     0.026 C 
HETATM    4  C9  UNL     1      24.983   0.653  53.346  1.00  0.00     0.036 C 
HETATM    5 CL1  UNL     1      24.391  -0.770  54.216  1.00  0.00    -0.084 Cl
HETATM    6  C10 UNL     1      26.423   0.849  53.365  1.00  0.00     0.059 C 
HETATM    7  C11 UNL     1      27.158   1.655  52.616  1.00  0.00     0.091 C 
HETATM    8  C12 UNL     1      26.817   2.591  51.557  1.00  0.00     0.125 C 
ENDROOT
BRANCH   1   9
HETATM    9  N1  UNL     1      25.239   4.270  50.801  1.00  0.00    -0.305 N 
HETATM   10  H6  UNL     1      25.297   5.106  51.447  1.00  0.00     0.176 HD
BRANCH   9  11
HETATM   11  S1  UNL     1      24.927   5.004  49.266  1.00  0.00     0.150 S 
HETATM   12  O1  UNL     1      23.828   6.026  49.281  1.00  0.00    -0.230 OA
BRANCH  11  13
HETATM   13  C5  UNL     1      26.411   5.757  48.627  1.00  0.00     0.052 A 
HETATM   14  C4  UNL     1      27.513   4.911  48.727  1.00  0.00     0.023 A 
HETATM   15  C3  UNL     1      28.767   5.315  48.281  1.00  0.00     0.008 A 
HETATM   16  C2  UNL     1      28.882   6.597  47.731  1.00  0.00    -0.062 A 
HETATM   17  C1  UNL     1      30.210   7.060  47.246  1.00  0.00     0.048 C 
HETATM   18  C14 UNL     1      27.775   7.415  47.644  1.00  0.00     0.008 A 
HETATM   19  C13 UNL     1      26.527   7.021  48.085  1.00  0.00     0.023 A 
ENDBRANCH  11  13
ENDBRANCH   9  11
ENDBRANCH   1   9
BRANCH   7  20
HETATM   20  O2  UNL     1      28.507   1.554  52.940  1.00  0.00    -0.204 OA
BRANCH  20  21
HETATM   21  O3  UNL     1      29.243   2.680  53.055  1.00  0.00    -0.245 OA
HETATM   22  H10 UNL     1      29.084   2.999  53.973  1.00  0.00     0.254 HD
ENDBRANCH  20  21
ENDBRANCH   7  20
TORSDOF 5
ENDMDL
MODEL 9
REMARK VINA RESULT:      -7.2      4.628      5.794
REMARK  5 active torsions:
REMARK  status: ('A' for Active; 'I' for Inactive)
REMARK    1  A    between atoms: C5_5  and  S1_6 
REMARK    2  A    between atoms: S1_6  and  N1_8 
REMARK    3  A    between atoms: N1_8  and  C6_9 
REMARK    4  A    between atoms: C11_15  and  O2_16 
REMARK    5  A    between atoms: O2_16  and  O3_17 
ROOT
HETATM    1  C6  UNL     1      25.157   2.405  52.167  1.00  0.00     0.024 C 
HETATM    2  C7  UNL     1      26.247   1.893  51.633  1.00  0.00     0.027 C 
HETATM    3  C8  UNL     1      26.732   0.534  51.929  1.00  0.00     0.026 C 
HETATM    4  C9  UNL     1      26.115  -0.470  52.531  1.00  0.00     0.036 C 
HETATM    5 CL1  UNL     1      27.018  -1.982  52.719  1.00  0.00    -0.084 Cl
HETATM    6  C10 UNL     1      24.762  -0.474  53.064  1.00  0.00     0.059 C 
HETATM    7  C11 UNL     1      23.960   0.554  53.290  1.00  0.00     0.091 C 
HETATM    8  C12 UNL     1      24.124   1.986  53.099  1.00  0.00     0.125 C 
ENDROOT
BRANCH   1   9
HETATM    9  N1  UNL     1      24.998   3.726  51.655  1.00  0.00    -0.305 N 
HETATM   10  H6  UNL     1      25.355   4.449  52.341  1.00  0.00     0.176 HD
BRANCH   9  11
HETATM   11  S1  UNL     1      24.447   4.701  50.337  1.00  0.00     0.150 S 
HETATM   12  O1  UNL     1      23.453   5.758  50.723  1.00  0.00    -0.230 OA
BRANCH  11  13
HETATM   13  C5  UNL     1      25.829   5.476  49.520  1.00  0.00     0.052 A 
HETATM   14  C4  UNL     1      26.814   4.556  49.170  1.00  0.00     0.023 A 
HETATM   15  C3  UNL     1      27.975   4.963  48.520  1.00  0.00     0.008 A 
HETATM   16  C2  UNL     1      28.118   6.326  48.234  1.00  0.00    -0.062 A 
HETATM   17  C1  UNL     1      29.349   6.795  47.542  1.00  0.00     0.048 C 
HETATM   18  C14 UNL     1      27.128   7.216  48.593  1.00  0.00     0.008 A 
HETATM   19  C13 UNL     1      25.974   6.820  49.237  1.00  0.00     0.023 A 
ENDBRANCH  11  13
ENDBRANCH   9  11
ENDBRANCH   1   9
BRANCH   7  20
HETATM   20  O2  UNL     1      22.738   0.136  53.807  1.00  0.00    -0.204 OA
BRANCH  20  21
HETATM   21  O3  UNL     1      22.691  -0.983  54.561  1.00  0.00    -0.245 OA
HETATM   22  H10 UNL     1      23.613  -1.327  54.570  1.00  0.00     0.254 HD
ENDBRANCH  20  21
ENDBRANCH   7  20
TORSDOF 5
ENDMDL
