MODEL 1
REMARK VINA RESULT:      -8.5      0.000      0.000
REMARK  3 active torsions:
REMARK  status: ('A' for Active; 'I' for Inactive)
REMARK    1  A    between atoms: C1_2  and  C2_3 
REMARK       I    between atoms: C1_2  and  N2_14 
REMARK    2  A    between atoms: C2_3  and  C3_4 
REMARK    3  A    between atoms: C10_15  and  C11_16 
ROOT
HETATM    1  C2  UNL     1      25.791   1.884  53.105  1.00  0.00     0.119 C 
ENDROOT
BRANCH   1   2
HETATM    2  C1  UNL     1      26.695   2.407  52.264  1.00  0.00     0.218 C 
HETATM    3  O1  UNL     1      27.928   2.477  52.217  1.00  0.00    -0.274 OA
HETATM    4  N2  UNL     1      25.949   3.073  51.190  1.00  0.00    -0.357 N 
HETATM    5  C10 UNL     1      26.370   3.533  49.997  1.00  0.00     0.161 C 
HETATM    6  H9  UNL     1      24.926   3.529  51.342  1.00  0.00     0.162 HD
BRANCH   5   7
HETATM    7  C11 UNL     1      26.575   4.637  49.133  1.00  0.00    -0.041 C 
HETATM    8  C12 UNL     1      25.683   5.610  49.014  1.00  0.00     0.009 C 
HETATM    9  C13 UNL     1      26.016   6.851  48.412  1.00  0.00     0.001 C 
HETATM   10  C14 UNL     1      27.350   6.954  48.129  1.00  0.00     0.000 C 
HETATM   11  C15 UNL     1      28.259   5.995  48.229  1.00  0.00     0.001 C 
HETATM   12  C16 UNL     1      27.930   4.721  48.685  1.00  0.00     0.009 C 
ENDBRANCH   5   7
ENDBRANCH   1   2
BRANCH   1  13
HETATM   13  C3  UNL     1      25.863   0.774  54.089  1.00  0.00     0.093 C 
HETATM   14  C4  UNL     1      25.002  -0.240  53.365  1.00  0.00     0.087 C 
HETATM   15  S1  UNL     1      23.324  -0.357  53.676  1.00  0.00    -0.065 SA
HETATM   16  N1  UNL     1      25.763  -1.156  52.637  1.00  0.00    -0.350 N 
HETATM   17  C5  UNL     1      27.071  -1.000  53.178  1.00  0.00     0.040 C 
HETATM   18  H4  UNL     1      25.324  -1.724  51.893  1.00  0.00     0.166 HD
HETATM   19  C6  UNL     1      28.044  -1.769  52.752  1.00  0.00     0.029 C 
HETATM   20  C9  UNL     1      27.214  -0.046  54.132  1.00  0.00     0.001 C 
HETATM   21  C7  UNL     1      29.385  -1.531  53.464  1.00  0.00     0.204 C 
HETATM   22  O2  UNL     1      29.304  -0.667  54.547  1.00  0.00    -0.359 OA
HETATM   23  C8  UNL     1      28.215   0.275  54.783  1.00  0.00     0.145 C 
ENDBRANCH   1  13
TORSDOF 3
ENDMDL
MODEL 2
REMARK VINA RESULT:      -8.5      4.140      6.726
REMARK  3 active torsions:
REMARK  status: ('A' for Active; 'I' for Inactive)
REMARK    1  A    between atoms: C1_2  and  C2_3 
REMARK       I    between atoms: C1_2  and  N2_14 
REMARK    2  A    between atoms: C2_3  and  C3_4 
REMARK    3  A    between atoms: C10_15  and  C11_16 
ROOT
HETATM    1  C2  UNL     1      24.780   1.292  52.357  1.00  0.00     0.119 C 
ENDROOT
BRANCH   1   2
HETATM    2  C1  UNL     1      23.852   0.557  52.988  1.00  0.00     0.218 C 
HETATM    3  O1  UNL     1      23.849  -0.274  53.903  1.00  0.00    -0.274 OA
HETATM    4  N2  UNL     1      22.565   0.841  52.342  1.00  0.00    -0.357 N 
HETATM    5  C10 UNL     1      21.312   0.555  52.742  1.00  0.00     0.161 C 
HETATM    6  H9  UNL     1      22.473   1.131  51.254  1.00  0.00     0.162 HD
BRANCH   5   7
HETATM    7  C11 UNL     1      20.101  -0.143  52.510  1.00  0.00    -0.041 C 
HETATM    8  C12 UNL     1      19.513  -0.860  53.457  1.00  0.00     0.009 C 
HETATM    9  C13 UNL     1      18.166  -1.287  53.335  1.00  0.00     0.001 C 
HETATM   10  C14 UNL     1      17.547  -0.755  52.237  1.00  0.00     0.000 C 
HETATM   11  C15 UNL     1      18.113  -0.045  51.272  1.00  0.00     0.001 C 
HETATM   12  C16 UNL     1      19.469   0.270  51.296  1.00  0.00     0.009 C 
ENDBRANCH   5   7
ENDBRANCH   1   2
BRANCH   1  13
HETATM   13  C3  UNL     1      26.057   0.936  51.690  1.00  0.00     0.093 C 
HETATM   14  C4  UNL     1      26.639   2.325  51.535  1.00  0.00     0.087 C 
HETATM   15  S1  UNL     1      26.393   3.232  50.105  1.00  0.00    -0.065 SA
HETATM   16  N1  UNL     1      27.539   2.639  52.555  1.00  0.00    -0.350 N 
HETATM   17  C5  UNL     1      27.839   1.371  53.130  1.00  0.00     0.040 C 
HETATM   18  H4  UNL     1      27.802   3.622  52.734  1.00  0.00     0.166 HD
HETATM   19  C6  UNL     1      28.718   1.291  54.100  1.00  0.00     0.029 C 
HETATM   20  C9  UNL     1      27.181   0.306  52.606  1.00  0.00     0.001 C 
HETATM   21  C7  UNL     1      28.986  -0.143  54.583  1.00  0.00     0.204 C 
HETATM   22  O2  UNL     1      28.385  -1.122  53.804  1.00  0.00    -0.359 OA
HETATM   23  C8  UNL     1      27.272  -0.894  52.888  1.00  0.00     0.145 C 
ENDBRANCH   1  13
TORSDOF 3
ENDMDL
MODEL 3
REMARK VINA RESULT:      -8.3      2.246      3.303
REMARK  3 active torsions:
REMARK  status: ('A' for Active; 'I' for Inactive)
REMARK    1  A    between atoms: C1_2  and  C2_3 
REMARK       I    between atoms: C1_2  and  N2_14 
REMARK    2  A    between atoms: C2_3  and  C3_4 
REMARK    3  A    between atoms: C10_15  and  C11_16 
ROOT
HETATM    1  C2  UNL     1      25.806   1.370  52.794  1.00  0.00     0.119 C 
ENDROOT
BRANCH   1   2
HETATM    2  C1  UNL     1      26.692   2.156  52.164  1.00  0.00     0.218 C 
HETATM    3  O1  UNL     1      27.854   2.525  52.368  1.00  0.00    -0.274 OA
HETATM    4  N2  UNL     1      26.019   2.700  50.979  1.00  0.00    -0.357 N 
HETATM    5  C10 UNL     1      26.528   3.334  49.906  1.00  0.00     0.161 C 
HETATM    6  H9  UNL     1      24.904   2.884  50.933  1.00  0.00     0.162 HD
BRANCH   5   7
HETATM    7  C11 UNL     1      26.609   4.516  49.129  1.00  0.00    -0.041 C 
HETATM    8  C12 UNL     1      25.657   5.438  49.152  1.00  0.00     0.009 C 
HETATM    9  C13 UNL     1      25.876   6.743  48.638  1.00  0.00     0.001 C 
HETATM   10  C14 UNL     1      27.179   6.950  48.278  1.00  0.00     0.000 C 
HETATM   11  C15 UNL     1      28.146   6.044  48.235  1.00  0.00     0.001 C 
HETATM   12  C16 UNL     1      27.922   4.719  48.600  1.00  0.00     0.009 C 
ENDBRANCH   5   7
ENDBRANCH   1   2
BRANCH   1  13
HETATM   13  C3  UNL     1      25.375  -0.032  52.571  1.00  0.00     0.093 C 
HETATM   14  C4  UNL     1      26.312  -0.725  53.537  1.00  0.00     0.087 C 
HETATM   15  S1  UNL     1      27.825  -1.333  53.017  1.00  0.00    -0.065 SA
HETATM   16  N1  UNL     1      25.706  -0.988  54.766  1.00  0.00    -0.350 N 
HETATM   17  C5  UNL     1      24.318  -0.839  54.486  1.00  0.00     0.040 C 
HETATM   18  H4  UNL     1      26.282  -1.203  55.597  1.00  0.00     0.166 HD
HETATM   19  C6  UNL     1      23.437  -1.078  55.428  1.00  0.00     0.029 C 
HETATM   20  C9  UNL     1      23.999  -0.461  53.222  1.00  0.00     0.001 C 
HETATM   21  C7  UNL     1      21.977  -0.935  54.970  1.00  0.00     0.204 C 
HETATM   22  O2  UNL     1      21.831  -0.744  53.603  1.00  0.00    -0.359 OA
HETATM   23  C8  UNL     1      22.889  -0.290  52.706  1.00  0.00     0.145 C 
ENDBRANCH   1  13
TORSDOF 3
ENDMDL
MODEL 4
REMARK VINA RESULT:      -8.1      1.534      1.728
REMARK  3 active torsions:
REMARK  status: ('A' for Active; 'I' for Inactive)
REMARK    1  A    between atoms: C1_2  and  C2_3 
REMARK       I    between atoms: C1_2  and  N2_14 
REMARK    2  A    between atoms: C2_3  and  C3_4 
REMARK    3  A    between atoms: C10_15  and  C11_16 
ROOT
HETATM    1  C2  UNL     1      24.874   1.177  51.902  1.00  0.00     0.119 C 
ENDROOT
BRANCH   1   2
HETATM    2  C1  UNL     1      24.504   2.134  51.038  1.00  0.00     0.218 C 
HETATM    3  O1  UNL     1      23.484   2.402  50.393  1.00  0.00    -0.274 OA
HETATM    4  N2  UNL     1      25.667   3.007  50.839  1.00  0.00    -0.357 N 
HETATM    5  C10 UNL     1      25.750   4.225  50.272  1.00  0.00     0.161 C 
HETATM    6  H9  UNL     1      26.733   2.641  50.918  1.00  0.00     0.162 HD
BRANCH   5   7
HETATM    7  C11 UNL     1      26.259   5.039  49.229  1.00  0.00    -0.041 C 
HETATM    8  C12 UNL     1      25.665   6.168  48.868  1.00  0.00     0.009 C 
HETATM    9  C13 UNL     1      26.330   7.131  48.065  1.00  0.00     0.001 C 
HETATM   10  C14 UNL     1      27.646   6.819  47.857  1.00  0.00     0.000 C 
HETATM   11  C15 UNL     1      28.260   5.695  48.198  1.00  0.00     0.001 C 
HETATM   12  C16 UNL     1      27.591   4.671  48.864  1.00  0.00     0.009 C 
ENDBRANCH   5   7
ENDBRANCH   1   2
BRANCH   1  13
HETATM   13  C3  UNL     1      25.160   1.196  53.358  1.00  0.00     0.093 C 
HETATM   14  C4  UNL     1      24.887  -0.259  53.673  1.00  0.00     0.087 C 
HETATM   15  S1  UNL     1      23.342  -0.773  54.200  1.00  0.00    -0.065 SA
HETATM   16  N1  UNL     1      26.054  -1.023  53.699  1.00  0.00    -0.350 N 
HETATM   17  C5  UNL     1      27.085  -0.046  53.793  1.00  0.00     0.040 C 
HETATM   18  H4  UNL     1      26.005  -2.054  53.631  1.00  0.00     0.166 HD
HETATM   19  C6  UNL     1      28.334  -0.429  53.900  1.00  0.00     0.029 C 
HETATM   20  C9  UNL     1      26.684   1.251  53.778  1.00  0.00     0.001 C 
HETATM   21  C7  UNL     1      29.333   0.729  54.053  1.00  0.00     0.204 C 
HETATM   22  O2  UNL     1      28.735   1.970  54.222  1.00  0.00    -0.359 OA
HETATM   23  C8  UNL     1      27.353   2.285  53.877  1.00  0.00     0.145 C 
ENDBRANCH   1  13
TORSDOF 3
ENDMDL
MODEL 5
REMARK VINA RESULT:      -8.1      2.028      2.612
REMARK  3 active torsions:
REMARK  status: ('A' for Active; 'I' for Inactive)
REMARK    1  A    between atoms: C1_2  and  C2_3 
REMARK       I    between atoms: C1_2  and  N2_14 
REMARK    2  A    between atoms: C2_3  and  C3_4 
REMARK    3  A    between atoms: C10_15  and  C11_16 
ROOT
HETATM    1  C2  UNL     1      23.792   1.942  51.156  1.00  0.00     0.119 C 
ENDROOT
BRANCH   1   2
HETATM    2  C1  UNL     1      23.819   2.885  50.202  1.00  0.00     0.218 C 
HETATM    3  O1  UNL     1      23.061   3.256  49.299  1.00  0.00    -0.274 OA
HETATM    4  N2  UNL     1      25.115   3.566  50.306  1.00  0.00    -0.357 N 
HETATM    5  C10 UNL     1      25.536   4.719  49.754  1.00  0.00     0.161 C 
HETATM    6  H9  UNL     1      26.051   3.054  50.680  1.00  0.00     0.162 HD
BRANCH   5   7
HETATM    7  C11 UNL     1      26.424   5.381  48.870  1.00  0.00    -0.041 C 
HETATM    8  C12 UNL     1      26.220   6.630  48.477  1.00  0.00     0.009 C 
HETATM    9  C13 UNL     1      27.249   7.392  47.865  1.00  0.00     0.001 C 
HETATM   10  C14 UNL     1      28.455   6.747  47.878  1.00  0.00     0.000 C 
HETATM   11  C15 UNL     1      28.684   5.497  48.255  1.00  0.00     0.001 C 
HETATM   12  C16 UNL     1      27.661   4.678  48.729  1.00  0.00     0.009 C 
ENDBRANCH   5   7
ENDBRANCH   1   2
BRANCH   1  13
HETATM   13  C3  UNL     1      23.698   2.015  52.635  1.00  0.00     0.093 C 
HETATM   14  C4  UNL     1      22.815   0.810  52.877  1.00  0.00     0.087 C 
HETATM   15  S1  UNL     1      21.114   0.966  52.975  1.00  0.00    -0.065 SA
HETATM   16  N1  UNL     1      23.551  -0.325  53.220  1.00  0.00    -0.350 N 
HETATM   17  C5  UNL     1      24.823   0.204  53.580  1.00  0.00     0.040 C 
HETATM   18  H4  UNL     1      23.125  -1.265  53.149  1.00  0.00     0.166 HD
HETATM   19  C6  UNL     1      25.760  -0.601  54.019  1.00  0.00     0.029 C 
HETATM   20  C9  UNL     1      24.971   1.547  53.448  1.00  0.00     0.001 C 
HETATM   21  C7  UNL     1      27.059   0.114  54.426  1.00  0.00     0.204 C 
HETATM   22  O2  UNL     1      26.966   1.499  54.419  1.00  0.00    -0.359 OA
HETATM   23  C8  UNL     1      25.942   2.264  53.714  1.00  0.00     0.145 C 
ENDBRANCH   1  13
TORSDOF 3
ENDMDL
MODEL 6
REMARK VINA RESULT:      -7.8      2.381      6.930
REMARK  3 active torsions:
REMARK  status: ('A' for Active; 'I' for Inactive)
REMARK    1  A    between atoms: C1_2  and  C2_3 
REMARK       I    between atoms: C1_2  and  N2_14 
REMARK    2  A    between atoms: C2_3  and  C3_4 
REMARK    3  A    between atoms: C10_15  and  C11_16 
ROOT
HETATM    1  C2  UNL     1      24.158   3.364  51.386  1.00  0.00     0.119 C 
ENDROOT
BRANCH   1   2
HETATM    2  C1  UNL     1      24.686   2.803  52.483  1.00  0.00     0.218 C 
HETATM    3  O1  UNL     1      24.686   3.049  53.695  1.00  0.00    -0.274 OA
HETATM    4  N2  UNL     1      25.473   1.646  52.039  1.00  0.00    -0.357 N 
HETATM    5  C10 UNL     1      25.992   0.626  52.748  1.00  0.00     0.161 C 
HETATM    6  H9  UNL     1      25.977   1.595  51.029  1.00  0.00     0.162 HD
BRANCH   5   7
HETATM    7  C11 UNL     1      27.142  -0.070  53.196  1.00  0.00    -0.041 C 
HETATM    8  C12 UNL     1      27.371  -1.333  52.865  1.00  0.00     0.009 C 
HETATM    9  C13 UNL     1      28.650  -1.924  53.037  1.00  0.00     0.001 C 
HETATM   10  C14 UNL     1      29.597  -1.017  53.426  1.00  0.00     0.000 C 
HETATM   11  C15 UNL     1      29.393   0.246  53.773  1.00  0.00     0.001 C 
HETATM   12  C16 UNL     1      28.121   0.814  53.748  1.00  0.00     0.009 C 
ENDBRANCH   5   7
ENDBRANCH   1   2
BRANCH   1  13
HETATM   13  C3  UNL     1      24.439   3.194  49.939  1.00  0.00     0.093 C 
HETATM   14  C4  UNL     1      23.234   3.918  49.376  1.00  0.00     0.087 C 
HETATM   15  S1  UNL     1      21.801   3.071  48.979  1.00  0.00    -0.065 SA
HETATM   16  N1  UNL     1      23.524   5.238  49.031  1.00  0.00    -0.350 N 
HETATM   17  C5  UNL     1      24.947   5.263  48.992  1.00  0.00     0.040 C 
HETATM   18  H4  UNL     1      22.760   5.922  48.894  1.00  0.00     0.166 HD
HETATM   19  C6  UNL     1      25.566   6.362  48.634  1.00  0.00     0.029 C 
HETATM   20  C9  UNL     1      25.575   4.108  49.327  1.00  0.00     0.001 C 
HETATM   21  C7  UNL     1      27.097   6.228  48.580  1.00  0.00     0.204 C 
HETATM   22  O2  UNL     1      27.555   4.929  48.752  1.00  0.00    -0.359 OA
HETATM   23  C8  UNL     1      26.782   3.843  49.347  1.00  0.00     0.145 C 
ENDBRANCH   1  13
TORSDOF 3
ENDMDL
MODEL 7
REMARK VINA RESULT:      -7.7      2.959      7.823
REMARK  3 active torsions:
REMARK  status: ('A' for Active; 'I' for Inactive)
REMARK    1  A    between atoms: C1_2  and  C2_3 
REMARK       I    between atoms: C1_2  and  N2_14 
REMARK    2  A    between atoms: C2_3  and  C3_4 
REMARK    3  A    between atoms: C10_15  and  C11_16 
ROOT
HETATM    1  C2  UNL     1      25.506   4.955  50.064  1.00  0.00     0.119 C 
ENDROOT
BRANCH   1   2
HETATM    2  C1  UNL     1      26.331   3.898  50.071  1.00  0.00     0.218 C 
HETATM    3  O1  UNL     1      27.067   3.339  49.249  1.00  0.00    -0.274 OA
HETATM    4  N2  UNL     1      26.248   3.295  51.407  1.00  0.00    -0.357 N 
HETATM    5  C10 UNL     1      27.039   2.380  51.997  1.00  0.00     0.161 C 
HETATM    6  H9  UNL     1      25.318   3.343  52.047  1.00  0.00     0.162 HD
BRANCH   5   7
HETATM    7  C11 UNL     1      27.180   1.084  52.551  1.00  0.00    -0.041 C 
HETATM    8  C12 UNL     1      26.440   0.062  52.144  1.00  0.00     0.009 C 
HETATM    9  C13 UNL     1      26.789  -1.277  52.456  1.00  0.00     0.001 C 
HETATM   10  C14 UNL     1      28.009  -1.370  53.068  1.00  0.00     0.000 C 
HETATM   11  C15 UNL     1      28.763  -0.367  53.494  1.00  0.00     0.001 C 
HETATM   12  C16 UNL     1      28.376   0.961  53.326  1.00  0.00     0.009 C 
ENDBRANCH   5   7
ENDBRANCH   1   2
BRANCH   1  13
HETATM   13  C3  UNL     1      25.291   6.051  49.086  1.00  0.00     0.093 C 
HETATM   14  C4  UNL     1      24.344   6.909  49.898  1.00  0.00     0.087 C 
HETATM   15  S1  UNL     1      22.648   6.735  49.751  1.00  0.00    -0.065 SA
HETATM   16  N1  UNL     1      25.003   7.949  50.555  1.00  0.00    -0.350 N 
HETATM   17  C5  UNL     1      26.260   8.014  49.890  1.00  0.00     0.040 C 
HETATM   18  H4  UNL     1      24.548   8.440  51.343  1.00  0.00     0.166 HD
HETATM   19  C6  UNL     1      27.124   8.942  50.225  1.00  0.00     0.029 C 
HETATM   20  C9  UNL     1      26.472   7.090  48.919  1.00  0.00     0.001 C 
HETATM   21  C7  UNL     1      28.411   8.930  49.384  1.00  0.00     0.204 C 
HETATM   22  O2  UNL     1      28.374   8.055  48.308  1.00  0.00    -0.359 OA
HETATM   23  C8  UNL     1      27.444   6.938  48.172  1.00  0.00     0.145 C 
ENDBRANCH   1  13
TORSDOF 3
ENDMDL
MODEL 8
REMARK VINA RESULT:      -7.5      3.047      4.109
REMARK  3 active torsions:
REMARK  status: ('A' for Active; 'I' for Inactive)
REMARK    1  A    between atoms: C1_2  and  C2_3 
REMARK       I    between atoms: C1_2  and  N2_14 
REMARK    2  A    between atoms: C2_3  and  C3_4 
REMARK    3  A    between atoms: C10_15  and  C11_16 
ROOT
HETATM    1  C2  UNL     1      24.092   2.388  52.991  1.00  0.00     0.119 C 
ENDROOT
BRANCH   1   2
HETATM    2  C1  UNL     1      24.072   3.650  52.537  1.00  0.00     0.218 C 
HETATM    3  O1  UNL     1      23.588   4.722  52.917  1.00  0.00    -0.274 OA
HETATM    4  N2  UNL     1      24.787   3.659  51.256  1.00  0.00    -0.357 N 
HETATM    5  C10 UNL     1      25.250   4.692  50.528  1.00  0.00     0.161 C 
HETATM    6  H9  UNL     1      24.822   2.767  50.564  1.00  0.00     0.162 HD
BRANCH   5   7
HETATM    7  C11 UNL     1      25.199   5.441  49.326  1.00  0.00    -0.041 C 
HETATM    8  C12 UNL     1      24.050   5.829  48.791  1.00  0.00     0.009 C 
HETATM    9  C13 UNL     1      24.001   6.832  47.788  1.00  0.00     0.001 C 
HETATM   10  C14 UNL     1      25.219   7.417  47.575  1.00  0.00     0.000 C 
HETATM   11  C15 UNL     1      26.382   7.042  48.088  1.00  0.00     0.001 C 
HETATM   12  C16 UNL     1      26.479   5.968  48.969  1.00  0.00     0.009 C 
ENDBRANCH   5   7
ENDBRANCH   1   2
BRANCH   1  13
HETATM   13  C3  UNL     1      23.909   1.078  52.316  1.00  0.00     0.093 C 
HETATM   14  C4  UNL     1      25.074   0.331  52.929  1.00  0.00     0.087 C 
HETATM   15  S1  UNL     1      26.598   0.279  52.151  1.00  0.00    -0.065 SA
HETATM   16  N1  UNL     1      24.688  -0.449  54.020  1.00  0.00    -0.350 N 
HETATM   17  C5  UNL     1      23.273  -0.526  53.884  1.00  0.00     0.040 C 
HETATM   18  H4  UNL     1      25.394  -0.792  54.693  1.00  0.00     0.166 HD
HETATM   19  C6  UNL     1      22.579  -1.250  54.729  1.00  0.00     0.029 C 
HETATM   20  C9  UNL     1      22.732   0.166  52.849  1.00  0.00     0.001 C 
HETATM   21  C7  UNL     1      21.072  -1.291  54.426  1.00  0.00     0.204 C 
HETATM   22  O2  UNL     1      20.723  -0.698  53.221  1.00  0.00    -0.359 OA
HETATM   23  C8  UNL     1      21.555   0.247  52.484  1.00  0.00     0.145 C 
ENDBRANCH   1  13
TORSDOF 3
ENDMDL
MODEL 9
REMARK VINA RESULT:      -7.4      3.736      7.654
REMARK  3 active torsions:
REMARK  status: ('A' for Active; 'I' for Inactive)
REMARK    1  A    between atoms: C1_2  and  C2_3 
REMARK       I    between atoms: C1_2  and  N2_14 
REMARK    2  A    between atoms: C2_3  and  C3_4 
REMARK    3  A    between atoms: C10_15  and  C11_16 
ROOT
HETATM    1  C2  UNL     1      25.420   6.345  49.919  1.00  0.00     0.119 C 
ENDROOT
BRANCH   1   2
HETATM    2  C1  UNL     1      24.795   5.513  50.765  1.00  0.00     0.218 C 
HETATM    3  O1  UNL     1      23.870   5.605  51.580  1.00  0.00    -0.274 OA
HETATM    4  N2  UNL     1      25.462   4.210  50.661  1.00  0.00    -0.357 N 
HETATM    5  C10 UNL     1      25.078   3.000  51.107  1.00  0.00     0.161 C 
HETATM    6  H9  UNL     1      26.555   4.097  50.396  1.00  0.00     0.162 HD
BRANCH   5   7
HETATM    7  C11 UNL     1      25.319   1.896  51.962  1.00  0.00    -0.041 C 
HETATM    8  C12 UNL     1      24.347   1.320  52.655  1.00  0.00     0.009 C 
HETATM    9  C13 UNL     1      24.516   0.042  53.248  1.00  0.00     0.001 C 
HETATM   10  C14 UNL     1      25.701  -0.545  52.896  1.00  0.00     0.000 C 
HETATM   11  C15 UNL     1      26.692   0.012  52.215  1.00  0.00     0.001 C 
HETATM   12  C16 UNL     1      26.608   1.319  51.741  1.00  0.00     0.009 C 
ENDBRANCH   5   7
ENDBRANCH   1   2
BRANCH   1  13
HETATM   13  C3  UNL     1      25.938   6.167  48.539  1.00  0.00     0.093 C 
HETATM   14  C4  UNL     1      25.781   7.589  48.043  1.00  0.00     0.087 C 
HETATM   15  S1  UNL     1      24.366   8.085  47.218  1.00  0.00    -0.065 SA
HETATM   16  N1  UNL     1      26.968   8.317  48.137  1.00  0.00    -0.350 N 
HETATM   17  C5  UNL     1      27.959   7.309  48.311  1.00  0.00     0.040 C 
HETATM   18  H4  UNL     1      26.952   9.350  48.095  1.00  0.00     0.166 HD
HETATM   19  C6  UNL     1      29.224   7.648  48.377  1.00  0.00     0.029 C 
HETATM   20  C9  UNL     1      27.506   6.031  48.386  1.00  0.00     0.001 C 
HETATM   21  C7  UNL     1      30.184   6.454  48.506  1.00  0.00     0.204 C 
HETATM   22  O2  UNL     1      29.571   5.218  48.361  1.00  0.00    -0.359 OA
HETATM   23  C8  UNL     1      28.138   4.976  48.501  1.00  0.00     0.145 C 
ENDBRANCH   1  13
TORSDOF 3
ENDMDL
