MODEL 1
REMARK VINA RESULT:      -8.3      0.000      0.000
REMARK  7 active torsions:
REMARK  status: ('A' for Active; 'I' for Inactive)
REMARK    1  A    between atoms: C2_2  and  C3_3 
REMARK    2  A    between atoms: C3_3  and  O2_5 
REMARK    3  A    between atoms: O2_5  and  C4_6 
REMARK    4  A    between atoms: C4_6  and  C5_7 
REMARK    5  A    between atoms: C5_7  and  N1_8 
REMARK    6  A    between atoms: C5_7  and  C14_21 
REMARK    7  A    between atoms: N1_8  and  C6_9 
ROOT
HETATM    1  N1  UNL     1      25.641   2.953  50.820  1.00  0.00    -0.363 N 
HETATM    2  H7  UNL     1      25.007   2.377  50.266  1.00  0.00     0.162 HD
ENDROOT
BRANCH   1   3
HETATM    3  C5  UNL     1      25.909   2.413  52.154  1.00  0.00     0.140 C 
BRANCH   3   4
HETATM    4  C4  UNL     1      27.147   1.531  52.034  1.00  0.00     0.209 C 
BRANCH   4   5
HETATM    5  O2  UNL     1      28.256   2.120  52.688  1.00  0.00    -0.316 OA
BRANCH   5   6
HETATM    6  C3  UNL     1      28.784   1.452  53.792  1.00  0.00     0.279 C 
HETATM    7  O1  UNL     1      29.008   2.489  54.467  1.00  0.00    -0.261 OA
BRANCH   6   8
HETATM    8  C2  UNL     1      28.802  -0.014  53.605  1.00  0.00     0.056 C 
HETATM    9  C1  UNL     1      29.781  -0.916  53.471  1.00  0.00     0.037 C 
ENDBRANCH   6   8
ENDBRANCH   5   6
ENDBRANCH   4   5
ENDBRANCH   3   4
BRANCH   3  10
HETATM   10  C14 UNL     1      24.809   1.444  52.511  1.00  0.00    -0.034 A 
HETATM   11  C15 UNL     1      23.549   1.452  51.984  1.00  0.00     0.009 A 
HETATM   12  C16 UNL     1      22.532   0.576  52.284  1.00  0.00     0.001 A 
HETATM   13  C17 UNL     1      22.770  -0.423  53.205  1.00  0.00     0.000 A 
HETATM   14  C18 UNL     1      24.018  -0.497  53.779  1.00  0.00     0.001 A 
HETATM   15  C19 UNL     1      24.986   0.416  53.428  1.00  0.00     0.009 A 
ENDBRANCH   3  10
ENDBRANCH   1   3
BRANCH   1  16
HETATM   16  C6  UNL     1      26.023   4.098  50.061  1.00  0.00     0.139 A 
HETATM   17  N2  UNL     1      27.165   3.944  49.392  1.00  0.00    -0.224 NA
HETATM   18  C7  UNL     1      27.744   4.839  48.591  1.00  0.00     0.236 A 
HETATM   19  N3  UNL     1      27.087   6.002  48.465  1.00  0.00    -0.234 NA
HETATM   20  C8  UNL     1      25.932   6.185  49.129  1.00  0.00     0.114 A 
HETATM   21  S1  UNL     1      24.896   7.566  49.148  1.00  0.00    -0.072 SA
HETATM   22  C11 UNL     1      25.315   5.299  49.950  1.00  0.00     0.054 A 
HETATM   23  C9  UNL     1      23.653   6.906  50.268  1.00  0.00     0.022 A 
HETATM   24  C10 UNL     1      24.130   5.646  50.555  1.00  0.00     0.002 A 
HETATM   25  C13 UNL     1      22.393   7.239  50.932  1.00  0.00     0.316 C 
HETATM   26  C12 UNL     1      23.109   5.088  51.475  1.00  0.00     0.310 C 
HETATM   27  N4  UNL     1      22.045   6.016  51.550  1.00  0.00     0.092 N 
HETATM   28  H11 UNL     1      21.584   6.111  52.480  1.00  0.00     0.316 HD
ENDBRANCH   1  16
TORSDOF 7
ENDMDL
MODEL 2
REMARK VINA RESULT:      -8.2      3.540      6.495
REMARK  7 active torsions:
REMARK  status: ('A' for Active; 'I' for Inactive)
REMARK    1  A    between atoms: C2_2  and  C3_3 
REMARK    2  A    between atoms: C3_3  and  O2_5 
REMARK    3  A    between atoms: O2_5  and  C4_6 
REMARK    4  A    between atoms: C4_6  and  C5_7 
REMARK    5  A    between atoms: C5_7  and  N1_8 
REMARK    6  A    between atoms: C5_7  and  C14_21 
REMARK    7  A    between atoms: N1_8  and  C6_9 
ROOT
HETATM    1  N1  UNL     1      24.909   0.206  52.713  1.00  0.00    -0.363 N 
HETATM    2  H7  UNL     1      24.943  -0.272  51.812  1.00  0.00     0.162 HD
ENDROOT
BRANCH   1   3
HETATM    3  C5  UNL     1      25.989   1.175  52.905  1.00  0.00     0.140 C 
BRANCH   3   4
HETATM    4  C4  UNL     1      26.181   1.892  51.573  1.00  0.00     0.209 C 
BRANCH   4   5
HETATM    5  O2  UNL     1      25.337   3.025  51.479  1.00  0.00    -0.316 OA
BRANCH   5   6
HETATM    6  C3  UNL     1      25.364   3.753  50.291  1.00  0.00     0.279 C 
HETATM    7  O1  UNL     1      24.155   4.098  50.331  1.00  0.00    -0.261 OA
BRANCH   6   8
HETATM    8  C2  UNL     1      26.698   3.742  49.656  1.00  0.00     0.056 C 
HETATM    9  C1  UNL     1      27.336   4.582  48.834  1.00  0.00     0.037 C 
ENDBRANCH   6   8
ENDBRANCH   5   6
ENDBRANCH   4   5
ENDBRANCH   3   4
BRANCH   3  10
HETATM   10  C14 UNL     1      27.283   0.422  53.098  1.00  0.00    -0.034 A 
HETATM   11  C15 UNL     1      28.471   0.978  53.477  1.00  0.00     0.009 A 
HETATM   12  C16 UNL     1      29.660   0.315  53.668  1.00  0.00     0.001 A 
HETATM   13  C17 UNL     1      29.696  -1.050  53.467  1.00  0.00     0.000 A 
HETATM   14  C18 UNL     1      28.536  -1.683  53.084  1.00  0.00     0.001 A 
HETATM   15  C19 UNL     1      27.384  -0.951  52.912  1.00  0.00     0.009 A 
ENDBRANCH   3  10
ENDBRANCH   1   3
BRANCH   1  16
HETATM   16  C6  UNL     1      23.797  -0.279  53.463  1.00  0.00     0.139 A 
HETATM   17  N2  UNL     1      24.138  -0.896  54.594  1.00  0.00    -0.224 NA
HETATM   18  C7  UNL     1      23.308  -1.425  55.492  1.00  0.00     0.236 A 
HETATM   19  N3  UNL     1      22.003  -1.309  55.202  1.00  0.00    -0.234 NA
HETATM   20  C8  UNL     1      21.630  -0.692  54.068  1.00  0.00     0.114 A 
HETATM   21  S1  UNL     1      20.040  -0.410  53.456  1.00  0.00    -0.072 SA
HETATM   22  C11 UNL     1      22.445  -0.143  53.132  1.00  0.00     0.054 A 
HETATM   23  C9  UNL     1      20.522   0.445  51.948  1.00  0.00     0.022 A 
HETATM   24  C10 UNL     1      21.898   0.455  52.022  1.00  0.00     0.002 A 
HETATM   25  C13 UNL     1      19.979   1.088  50.752  1.00  0.00     0.316 C 
HETATM   26  C12 UNL     1      22.308   1.165  50.785  1.00  0.00     0.310 C 
HETATM   27  N4  UNL     1      21.135   1.632  50.150  1.00  0.00     0.092 N 
HETATM   28  H11 UNL     1      21.138   1.610  49.107  1.00  0.00     0.316 HD
ENDBRANCH   1  16
TORSDOF 7
ENDMDL
MODEL 3
REMARK VINA RESULT:      -8.2      3.341      5.858
REMARK  7 active torsions:
REMARK  status: ('A' for Active; 'I' for Inactive)
REMARK    1  A    between atoms: C2_2  and  C3_3 
REMARK    2  A    between atoms: C3_3  and  O2_5 
REMARK    3  A    between atoms: O2_5  and  C4_6 
REMARK    4  A    between atoms: C4_6  and  C5_7 
REMARK    5  A    between atoms: C5_7  and  N1_8 
REMARK    6  A    between atoms: C5_7  and  C14_21 
REMARK    7  A    between atoms: N1_8  and  C6_9 
ROOT
HETATM    1  N1  UNL     1      25.374   0.138  52.775  1.00  0.00    -0.363 N 
HETATM    2  H7  UNL     1      25.519  -0.509  51.999  1.00  0.00     0.162 HD
ENDROOT
BRANCH   1   3
HETATM    3  C5  UNL     1      26.198   1.345  52.695  1.00  0.00     0.140 C 
BRANCH   3   4
HETATM    4  C4  UNL     1      26.568   1.723  54.124  1.00  0.00     0.209 C 
BRANCH   4   5
HETATM    5  O2  UNL     1      27.679   0.973  54.578  1.00  0.00    -0.316 OA
BRANCH   5   6
HETATM    6  C3  UNL     1      28.936   1.315  54.080  1.00  0.00     0.279 C 
HETATM    7  O1  UNL     1      28.870   2.528  54.406  1.00  0.00    -0.261 OA
BRANCH   6   8
HETATM    8  C2  UNL     1      29.634   0.161  53.477  1.00  0.00     0.056 C 
HETATM    9  C1  UNL     1      29.458  -1.164  53.548  1.00  0.00     0.037 C 
ENDBRANCH   6   8
ENDBRANCH   5   6
ENDBRANCH   4   5
ENDBRANCH   3   4
BRANCH   3  10
HETATM   10  C14 UNL     1      25.330   2.490  52.232  1.00  0.00    -0.034 A 
HETATM   11  C15 UNL     1      24.414   3.147  53.003  1.00  0.00     0.009 A 
HETATM   12  C16 UNL     1      23.618   4.197  52.609  1.00  0.00     0.001 A 
HETATM   13  C17 UNL     1      23.728   4.661  51.315  1.00  0.00     0.000 A 
HETATM   14  C18 UNL     1      24.632   4.049  50.477  1.00  0.00     0.001 A 
HETATM   15  C19 UNL     1      25.394   3.004  50.943  1.00  0.00     0.009 A 
ENDBRANCH   3  10
ENDBRANCH   1   3
BRANCH   1  16
HETATM   16  C6  UNL     1      24.404  -0.407  53.668  1.00  0.00     0.139 A 
HETATM   17  N2  UNL     1      24.929  -0.948  54.767  1.00  0.00    -0.224 NA
HETATM   18  C7  UNL     1      24.260  -1.507  55.775  1.00  0.00     0.236 A 
HETATM   19  N3  UNL     1      22.924  -1.511  55.642  1.00  0.00    -0.234 NA
HETATM   20  C8  UNL     1      22.368  -0.972  54.543  1.00  0.00     0.114 A 
HETATM   21  S1  UNL     1      20.699  -0.846  54.120  1.00  0.00    -0.072 SA
HETATM   22  C11 UNL     1      23.016  -0.395  53.500  1.00  0.00     0.054 A 
HETATM   23  C9  UNL     1      20.923  -0.015  52.541  1.00  0.00     0.022 A 
HETATM   24  C10 UNL     1      22.292   0.111  52.447  1.00  0.00     0.002 A 
HETATM   25  C13 UNL     1      20.188   0.532  51.401  1.00  0.00     0.316 C 
HETATM   26  C12 UNL     1      22.490   0.801  51.149  1.00  0.00     0.310 C 
HETATM   27  N4  UNL     1      21.214   1.145  50.647  1.00  0.00     0.092 N 
HETATM   28  H11 UNL     1      21.095   1.081  49.613  1.00  0.00     0.316 HD
ENDBRANCH   1  16
TORSDOF 7
ENDMDL
MODEL 4
REMARK VINA RESULT:      -8.1      2.655      5.361
REMARK  7 active torsions:
REMARK  status: ('A' for Active; 'I' for Inactive)
REMARK    1  A    between atoms: C2_2  and  C3_3 
REMARK    2  A    between atoms: C3_3  and  O2_5 
REMARK    3  A    between atoms: O2_5  and  C4_6 
REMARK    4  A    between atoms: C4_6  and  C5_7 
REMARK    5  A    between atoms: C5_7  and  N1_8 
REMARK    6  A    between atoms: C5_7  and  C14_21 
REMARK    7  A    between atoms: N1_8  and  C6_9 
ROOT
HETATM    1  N1  UNL     1      25.234   1.693  53.407  1.00  0.00    -0.363 N 
HETATM    2  H7  UNL     1      25.289   1.811  54.420  1.00  0.00     0.162 HD
ENDROOT
BRANCH   1   3
HETATM    3  C5  UNL     1      26.465   2.062  52.706  1.00  0.00     0.140 C 
BRANCH   3   4
HETATM    4  C4  UNL     1      26.181   1.928  51.214  1.00  0.00     0.209 C 
BRANCH   4   5
HETATM    5  O2  UNL     1      26.874   2.916  50.474  1.00  0.00    -0.316 OA
BRANCH   5   6
HETATM    6  C3  UNL     1      26.133   3.698  49.589  1.00  0.00     0.279 C 
HETATM    7  O1  UNL     1      25.103   2.977  49.622  1.00  0.00    -0.261 OA
BRANCH   6   8
HETATM    8  C2  UNL     1      26.889   4.874  49.112  1.00  0.00     0.056 C 
HETATM    9  C1  UNL     1      28.066   5.027  48.494  1.00  0.00     0.037 C 
ENDBRANCH   6   8
ENDBRANCH   5   6
ENDBRANCH   4   5
ENDBRANCH   3   4
BRANCH   3  10
HETATM   10  C14 UNL     1      27.506   1.001  52.971  1.00  0.00    -0.034 A 
HETATM   11  C15 UNL     1      28.759   1.230  53.464  1.00  0.00     0.009 A 
HETATM   12  C16 UNL     1      29.721   0.282  53.723  1.00  0.00     0.001 A 
HETATM   13  C17 UNL     1      29.428  -1.042  53.472  1.00  0.00     0.000 A 
HETATM   14  C18 UNL     1      28.183  -1.353  52.975  1.00  0.00     0.001 A 
HETATM   15  C19 UNL     1      27.272  -0.349  52.742  1.00  0.00     0.009 A 
ENDBRANCH   3  10
ENDBRANCH   1   3
BRANCH   1  16
HETATM   16  C6  UNL     1      23.938   1.212  53.058  1.00  0.00     0.139 A 
HETATM   17  N2  UNL     1      23.781  -0.098  53.248  1.00  0.00    -0.224 NA
HETATM   18  C7  UNL     1      22.674  -0.806  53.028  1.00  0.00     0.236 A 
HETATM   19  N3  UNL     1      21.627  -0.102  52.568  1.00  0.00    -0.234 NA
HETATM   20  C8  UNL     1      21.757   1.221  52.368  1.00  0.00     0.114 A 
HETATM   21  S1  UNL     1      20.588   2.352  51.789  1.00  0.00    -0.072 SA
HETATM   22  C11 UNL     1      22.866   1.973  52.581  1.00  0.00     0.054 A 
HETATM   23  C9  UNL     1      21.633   3.815  51.852  1.00  0.00     0.022 A 
HETATM   24  C10 UNL     1      22.831   3.323  52.323  1.00  0.00     0.002 A 
HETATM   25  C13 UNL     1      21.636   5.253  51.587  1.00  0.00     0.316 C 
HETATM   26  C12 UNL     1      23.700   4.523  52.385  1.00  0.00     0.310 C 
HETATM   27  N4  UNL     1      22.904   5.648  52.073  1.00  0.00     0.092 N 
HETATM   28  H11 UNL     1      23.369   6.401  51.522  1.00  0.00     0.316 HD
ENDBRANCH   1  16
TORSDOF 7
ENDMDL
MODEL 5
REMARK VINA RESULT:      -7.9      0.889      2.892
REMARK  7 active torsions:
REMARK  status: ('A' for Active; 'I' for Inactive)
REMARK    1  A    between atoms: C2_2  and  C3_3 
REMARK    2  A    between atoms: C3_3  and  O2_5 
REMARK    3  A    between atoms: O2_5  and  C4_6 
REMARK    4  A    between atoms: C4_6  and  C5_7 
REMARK    5  A    between atoms: C5_7  and  N1_8 
REMARK    6  A    between atoms: C5_7  and  C14_21 
REMARK    7  A    between atoms: N1_8  and  C6_9 
ROOT
HETATM    1  N1  UNL     1      24.702   3.105  51.170  1.00  0.00    -0.363 N 
HETATM    2  H7  UNL     1      24.599   2.505  50.351  1.00  0.00     0.162 HD
ENDROOT
BRANCH   1   3
HETATM    3  C5  UNL     1      25.329   2.437  52.312  1.00  0.00     0.140 C 
BRANCH   3   4
HETATM    4  C4  UNL     1      26.568   1.724  51.782  1.00  0.00     0.209 C 
BRANCH   4   5
HETATM    5  O2  UNL     1      27.749   2.297  52.310  1.00  0.00    -0.316 OA
BRANCH   5   6
HETATM    6  C3  UNL     1      28.339   1.666  53.404  1.00  0.00     0.279 C 
HETATM    7  O1  UNL     1      28.457   2.709  54.098  1.00  0.00    -0.261 OA
BRANCH   6   8
HETATM    8  C2  UNL     1      28.504   0.214  53.192  1.00  0.00     0.056 C 
HETATM    9  C1  UNL     1      29.378  -0.692  53.646  1.00  0.00     0.037 C 
ENDBRANCH   6   8
ENDBRANCH   5   6
ENDBRANCH   4   5
ENDBRANCH   3   4
BRANCH   3  10
HETATM   10  C14 UNL     1      24.431   1.310  52.763  1.00  0.00    -0.034 A 
HETATM   11  C15 UNL     1      23.127   1.144  52.391  1.00  0.00     0.009 A 
HETATM   12  C16 UNL     1      22.290   0.124  52.780  1.00  0.00     0.001 A 
HETATM   13  C17 UNL     1      22.781  -0.847  53.628  1.00  0.00     0.000 A 
HETATM   14  C18 UNL     1      24.088  -0.748  54.045  1.00  0.00     0.001 A 
HETATM   15  C19 UNL     1      24.865   0.302  53.614  1.00  0.00     0.009 A 
ENDBRANCH   3  10
ENDBRANCH   1   3
BRANCH   1  16
HETATM   16  C6  UNL     1      24.169   4.395  50.879  1.00  0.00     0.139 A 
HETATM   17  N2  UNL     1      22.976   4.621  51.428  1.00  0.00    -0.224 NA
HETATM   18  C7  UNL     1      22.260   5.741  51.340  1.00  0.00     0.236 A 
HETATM   19  N3  UNL     1      22.822   6.723  50.618  1.00  0.00    -0.234 NA
HETATM   20  C8  UNL     1      24.025   6.523  50.053  1.00  0.00     0.114 A 
HETATM   21  S1  UNL     1      24.964   7.601  49.085  1.00  0.00    -0.072 SA
HETATM   22  C11 UNL     1      24.781   5.399  50.122  1.00  0.00     0.054 A 
HETATM   23  C9  UNL     1      26.357   6.500  48.799  1.00  0.00     0.022 A 
HETATM   24  C10 UNL     1      25.997   5.358  49.482  1.00  0.00     0.002 A 
HETATM   25  C13 UNL     1      27.655   6.417  48.130  1.00  0.00     0.316 C 
HETATM   26  C12 UNL     1      27.143   4.443  49.259  1.00  0.00     0.310 C 
HETATM   27  N4  UNL     1      28.145   5.168  48.574  1.00  0.00     0.092 N 
HETATM   28  H11 UNL     1      28.693   4.635  47.865  1.00  0.00     0.316 HD
ENDBRANCH   1  16
TORSDOF 7
ENDMDL
MODEL 6
REMARK VINA RESULT:      -7.9      2.636      5.555
REMARK  7 active torsions:
REMARK  status: ('A' for Active; 'I' for Inactive)
REMARK    1  A    between atoms: C2_2  and  C3_3 
REMARK    2  A    between atoms: C3_3  and  O2_5 
REMARK    3  A    between atoms: O2_5  and  C4_6 
REMARK    4  A    between atoms: C4_6  and  C5_7 
REMARK    5  A    between atoms: C5_7  and  N1_8 
REMARK    6  A    between atoms: C5_7  and  C14_21 
REMARK    7  A    between atoms: N1_8  and  C6_9 
ROOT
HETATM    1  N1  UNL     1      25.385   2.597  52.991  1.00  0.00    -0.363 N 
HETATM    2  H7  UNL     1      25.383   2.237  53.945  1.00  0.00     0.162 HD
ENDROOT
BRANCH   1   3
HETATM    3  C5  UNL     1      26.684   2.485  52.324  1.00  0.00     0.140 C 
BRANCH   3   4
HETATM    4  C4  UNL     1      26.406   2.379  50.829  1.00  0.00     0.209 C 
BRANCH   4   5
HETATM    5  O2  UNL     1      27.084   3.395  50.113  1.00  0.00    -0.316 OA
BRANCH   5   6
HETATM    6  C3  UNL     1      26.330   4.188  49.249  1.00  0.00     0.279 C 
HETATM    7  O1  UNL     1      25.307   3.457  49.273  1.00  0.00    -0.261 OA
BRANCH   6   8
HETATM    8  C2  UNL     1      27.071   5.382  48.794  1.00  0.00     0.056 C 
HETATM    9  C1  UNL     1      28.313   5.579  48.334  1.00  0.00     0.037 C 
ENDBRANCH   6   8
ENDBRANCH   5   6
ENDBRANCH   4   5
ENDBRANCH   3   4
BRANCH   3  10
HETATM   10  C14 UNL     1      27.289   1.147  52.674  1.00  0.00    -0.034 A 
HETATM   11  C15 UNL     1      26.766  -0.068  52.336  1.00  0.00     0.009 A 
HETATM   12  C16 UNL     1      27.301  -1.300  52.634  1.00  0.00     0.001 A 
HETATM   13  C17 UNL     1      28.483  -1.353  53.342  1.00  0.00     0.000 A 
HETATM   14  C18 UNL     1      29.073  -0.168  53.717  1.00  0.00     0.001 A 
HETATM   15  C19 UNL     1      28.478   1.026  53.383  1.00  0.00     0.009 A 
ENDBRANCH   3  10
ENDBRANCH   1   3
BRANCH   1  16
HETATM   16  C6  UNL     1      24.087   3.095  52.671  1.00  0.00     0.139 A 
HETATM   17  N2  UNL     1      24.081   4.371  52.284  1.00  0.00    -0.224 NA
HETATM   18  C7  UNL     1      23.018   5.081  51.908  1.00  0.00     0.236 A 
HETATM   19  N3  UNL     1      21.851   4.420  51.933  1.00  0.00    -0.234 NA
HETATM   20  C8  UNL     1      21.828   3.133  52.319  1.00  0.00     0.114 A 
HETATM   21  S1  UNL     1      20.482   2.059  52.444  1.00  0.00    -0.072 SA
HETATM   22  C11 UNL     1      22.887   2.379  52.707  1.00  0.00     0.054 A 
HETATM   23  C9  UNL     1      21.390   0.616  53.018  1.00  0.00     0.022 A 
HETATM   24  C10 UNL     1      22.690   1.069  53.075  1.00  0.00     0.002 A 
HETATM   25  C13 UNL     1      21.220  -0.780  53.419  1.00  0.00     0.316 C 
HETATM   26  C12 UNL     1      23.451  -0.115  53.541  1.00  0.00     0.310 C 
HETATM   27  N4  UNL     1      22.556  -1.208  53.594  1.00  0.00     0.092 N 
HETATM   28  H11 UNL     1      22.700  -1.883  54.376  1.00  0.00     0.316 HD
ENDBRANCH   1  16
TORSDOF 7
ENDMDL
MODEL 7
REMARK VINA RESULT:      -7.7      2.441      4.414
REMARK  7 active torsions:
REMARK  status: ('A' for Active; 'I' for Inactive)
REMARK    1  A    between atoms: C2_2  and  C3_3 
REMARK    2  A    between atoms: C3_3  and  O2_5 
REMARK    3  A    between atoms: O2_5  and  C4_6 
REMARK    4  A    between atoms: C4_6  and  C5_7 
REMARK    5  A    between atoms: C5_7  and  N1_8 
REMARK    6  A    between atoms: C5_7  and  C14_21 
REMARK    7  A    between atoms: N1_8  and  C6_9 
ROOT
HETATM    1  N1  UNL     1      26.056   1.972  52.313  1.00  0.00    -0.363 N 
HETATM    2  H7  UNL     1      26.407   2.536  53.088  1.00  0.00     0.162 HD
ENDROOT
BRANCH   1   3
HETATM    3  C5  UNL     1      26.001   0.539  52.609  1.00  0.00     0.140 C 
BRANCH   3   4
HETATM    4  C4  UNL     1      25.230   0.385  53.915  1.00  0.00     0.209 C 
BRANCH   4   5
HETATM    5  O2  UNL     1      24.465  -0.806  53.916  1.00  0.00    -0.316 OA
BRANCH   5   6
HETATM    6  C3  UNL     1      23.835  -1.166  55.106  1.00  0.00     0.279 C 
HETATM    7  O1  UNL     1      24.893  -1.443  55.726  1.00  0.00    -0.261 OA
BRANCH   6   8
HETATM    8  C2  UNL     1      22.365  -1.043  55.022  1.00  0.00     0.056 C 
HETATM    9  C1  UNL     1      21.422  -1.688  54.325  1.00  0.00     0.037 C 
ENDBRANCH   6   8
ENDBRANCH   5   6
ENDBRANCH   4   5
ENDBRANCH   3   4
BRANCH   3  10
HETATM   10  C14 UNL     1      27.393   0.066  52.954  1.00  0.00    -0.034 A 
HETATM   11  C15 UNL     1      28.430   0.872  53.327  1.00  0.00     0.009 A 
HETATM   12  C16 UNL     1      29.703   0.467  53.655  1.00  0.00     0.001 A 
HETATM   13  C17 UNL     1      29.999  -0.879  53.615  1.00  0.00     0.000 A 
HETATM   14  C18 UNL     1      29.003  -1.756  53.249  1.00  0.00     0.001 A 
HETATM   15  C19 UNL     1      27.754  -1.275  52.934  1.00  0.00     0.009 A 
ENDBRANCH   3  10
ENDBRANCH   1   3
BRANCH   1  16
HETATM   16  C6  UNL     1      25.756   2.822  51.208  1.00  0.00     0.139 A 
HETATM   17  N2  UNL     1      26.830   3.208  50.520  1.00  0.00    -0.224 NA
HETATM   18  C7  UNL     1      26.843   3.982  49.435  1.00  0.00     0.236 A 
HETATM   19  N3  UNL     1      25.637   4.399  49.017  1.00  0.00    -0.234 NA
HETATM   20  C8  UNL     1      24.537   4.025  49.692  1.00  0.00     0.114 A 
HETATM   21  S1  UNL     1      22.884   4.414  49.379  1.00  0.00    -0.072 SA
HETATM   22  C11 UNL     1      24.486   3.240  50.798  1.00  0.00     0.054 A 
HETATM   23  C9  UNL     1      22.168   3.502  50.754  1.00  0.00     0.022 A 
HETATM   24  C10 UNL     1      23.270   2.951  51.370  1.00  0.00     0.002 A 
HETATM   25  C13 UNL     1      20.894   3.174  51.393  1.00  0.00     0.316 C 
HETATM   26  C12 UNL     1      22.691   2.190  52.504  1.00  0.00     0.310 C 
HETATM   27  N4  UNL     1      21.284   2.246  52.385  1.00  0.00     0.092 N 
HETATM   28  H11 UNL     1      20.750   2.309  53.278  1.00  0.00     0.316 HD
ENDBRANCH   1  16
TORSDOF 7
ENDMDL
MODEL 8
REMARK VINA RESULT:      -7.6      2.564      5.314
REMARK  7 active torsions:
REMARK  status: ('A' for Active; 'I' for Inactive)
REMARK    1  A    between atoms: C2_2  and  C3_3 
REMARK    2  A    between atoms: C3_3  and  O2_5 
REMARK    3  A    between atoms: O2_5  and  C4_6 
REMARK    4  A    between atoms: C4_6  and  C5_7 
REMARK    5  A    between atoms: C5_7  and  N1_8 
REMARK    6  A    between atoms: C5_7  and  C14_21 
REMARK    7  A    between atoms: N1_8  and  C6_9 
ROOT
HETATM    1  N1  UNL     1      24.651   1.497  52.677  1.00  0.00    -0.363 N 
HETATM    2  H7  UNL     1      25.326   2.072  53.183  1.00  0.00     0.162 HD
ENDROOT
BRANCH   1   3
HETATM    3  C5  UNL     1      24.943   0.063  52.733  1.00  0.00     0.140 C 
BRANCH   3   4
HETATM    4  C4  UNL     1      24.278  -0.474  53.995  1.00  0.00     0.209 C 
BRANCH   4   5
HETATM    5  O2  UNL     1      23.093  -1.182  53.683  1.00  0.00    -0.316 OA
BRANCH   5   6
HETATM    6  C3  UNL     1      22.141  -1.324  54.692  1.00  0.00     0.279 C 
HETATM    7  O1  UNL     1      22.970  -1.380  55.636  1.00  0.00    -0.261 OA
BRANCH   6   8
HETATM    8  C2  UNL     1      20.761  -1.332  54.163  1.00  0.00     0.056 C 
HETATM    9  C1  UNL     1      20.038  -0.456  53.456  1.00  0.00     0.037 C 
ENDBRANCH   6   8
ENDBRANCH   5   6
ENDBRANCH   4   5
ENDBRANCH   3   4
BRANCH   3  10
HETATM   10  C14 UNL     1      26.418  -0.118  52.998  1.00  0.00    -0.034 A 
HETATM   11  C15 UNL     1      27.268   0.862  53.427  1.00  0.00     0.009 A 
HETATM   12  C16 UNL     1      28.612   0.722  53.684  1.00  0.00     0.001 A 
HETATM   13  C17 UNL     1      29.195  -0.515  53.502  1.00  0.00     0.000 A 
HETATM   14  C18 UNL     1      28.401  -1.554  53.072  1.00  0.00     0.001 A 
HETATM   15  C19 UNL     1      27.063  -1.337  52.836  1.00  0.00     0.009 A 
ENDBRANCH   3  10
ENDBRANCH   1   3
BRANCH   1  16
HETATM   16  C6  UNL     1      23.665   2.339  52.085  1.00  0.00     0.139 A 
HETATM   17  N2  UNL     1      22.433   2.135  52.552  1.00  0.00    -0.224 NA
HETATM   18  C7  UNL     1      21.329   2.791  52.195  1.00  0.00     0.236 A 
HETATM   19  N3  UNL     1      21.507   3.748  51.269  1.00  0.00    -0.234 NA
HETATM   20  C8  UNL     1      22.738   3.975  50.781  1.00  0.00     0.114 A 
HETATM   21  S1  UNL     1      23.243   5.126  49.598  1.00  0.00    -0.072 SA
HETATM   22  C11 UNL     1      23.882   3.328  51.121  1.00  0.00     0.054 A 
HETATM   23  C9  UNL     1      24.991   4.702  49.595  1.00  0.00     0.022 A 
HETATM   24  C10 UNL     1      25.067   3.686  50.522  1.00  0.00     0.002 A 
HETATM   25  C13 UNL     1      26.271   5.052  48.979  1.00  0.00     0.316 C 
HETATM   26  C12 UNL     1      26.507   3.331  50.533  1.00  0.00     0.310 C 
HETATM   27  N4  UNL     1      27.184   4.259  49.710  1.00  0.00     0.092 N 
HETATM   28  H11 UNL     1      27.981   3.882  49.152  1.00  0.00     0.316 HD
ENDBRANCH   1  16
TORSDOF 7
ENDMDL
MODEL 9
REMARK VINA RESULT:      -7.6      2.472      3.555
REMARK  7 active torsions:
REMARK  status: ('A' for Active; 'I' for Inactive)
REMARK    1  A    between atoms: C2_2  and  C3_3 
REMARK    2  A    between atoms: C3_3  and  O2_5 
REMARK    3  A    between atoms: O2_5  and  C4_6 
REMARK    4  A    between atoms: C4_6  and  C5_7 
REMARK    5  A    between atoms: C5_7  and  N1_8 
REMARK    6  A    between atoms: C5_7  and  C14_21 
REMARK    7  A    between atoms: N1_8  and  C6_9 
ROOT
HETATM    1  N1  UNL     1      23.431   1.633  51.185  1.00  0.00    -0.363 N 
HETATM    2  H7  UNL     1      24.099   0.919  50.894  1.00  0.00     0.162 HD
ENDROOT
BRANCH   1   3
HETATM    3  C5  UNL     1      23.416   1.868  52.630  1.00  0.00     0.140 C 
BRANCH   3   4
HETATM    4  C4  UNL     1      24.838   1.643  53.129  1.00  0.00     0.209 C 
BRANCH   4   5
HETATM    5  O2  UNL     1      25.728   1.426  52.049  1.00  0.00    -0.316 OA
BRANCH   5   6
HETATM    6  C3  UNL     1      27.039   1.064  52.355  1.00  0.00     0.279 C 
HETATM    7  O1  UNL     1      27.555   2.149  51.981  1.00  0.00    -0.261 OA
BRANCH   6   8
HETATM    8  C2  UNL     1      27.128  -0.299  52.916  1.00  0.00     0.056 C 
HETATM    9  C1  UNL     1      26.775  -1.508  52.465  1.00  0.00     0.037 C 
ENDBRANCH   6   8
ENDBRANCH   5   6
ENDBRANCH   4   5
ENDBRANCH   3   4
BRANCH   3  10
HETATM   10  C14 UNL     1      22.624   0.764  53.289  1.00  0.00    -0.034 A 
HETATM   11  C15 UNL     1      21.263   0.731  53.405  1.00  0.00     0.009 A 
HETATM   12  C16 UNL     1      20.518  -0.265  53.991  1.00  0.00     0.001 A 
HETATM   13  C17 UNL     1      21.174  -1.355  54.526  1.00  0.00     0.000 A 
HETATM   14  C18 UNL     1      22.547  -1.393  54.446  1.00  0.00     0.001 A 
HETATM   15  C19 UNL     1      23.224  -0.359  53.844  1.00  0.00     0.009 A 
ENDBRANCH   3  10
ENDBRANCH   1   3
BRANCH   1  16
HETATM   16  C6  UNL     1      22.743   2.130  50.039  1.00  0.00     0.139 A 
HETATM   17  N2  UNL     1      21.726   1.363  49.647  1.00  0.00    -0.224 NA
HETATM   18  C7  UNL     1      20.904   1.596  48.624  1.00  0.00     0.236 A 
HETATM   19  N3  UNL     1      21.148   2.725  47.940  1.00  0.00    -0.234 NA
HETATM   20  C8  UNL     1      22.167   3.518  48.314  1.00  0.00     0.114 A 
HETATM   21  S1  UNL     1      22.698   5.006  47.619  1.00  0.00    -0.072 SA
HETATM   22  C11 UNL     1      23.023   3.312  49.347  1.00  0.00     0.054 A 
HETATM   23  C9  UNL     1      24.066   5.311  48.746  1.00  0.00     0.022 A 
HETATM   24  C10 UNL     1      24.018   4.228  49.595  1.00  0.00     0.002 A 
HETATM   25  C13 UNL     1      25.139   6.260  49.041  1.00  0.00     0.316 C 
HETATM   26  C12 UNL     1      25.139   4.472  50.535  1.00  0.00     0.310 C 
HETATM   27  N4  UNL     1      25.674   5.748  50.245  1.00  0.00     0.092 N 
HETATM   28  H11 UNL     1      26.707   5.846  50.342  1.00  0.00     0.316 HD
ENDBRANCH   1  16
TORSDOF 7
ENDMDL
