MODEL 1
REMARK VINA RESULT:      -7.8      0.000      0.000
REMARK  4 active torsions:
REMARK  status: ('A' for Active; 'I' for Inactive)
REMARK    1  A    between atoms: O1_2  and  C2_3 
REMARK    2  A    between atoms: C5_6  and  C6_7 
REMARK    3  A    between atoms: C7_8  and  C8_9 
REMARK    4  A    between atoms: C8_9  and  N1_10 
ROOT
HETATM    1  C2  UNL     1      24.754   3.943  50.919  1.00  0.00     0.147 C 
HETATM    2  C3  UNL     1      25.789   3.173  50.477  1.00  0.00     0.034 C 
HETATM    3  C4  UNL     1      26.688   3.447  49.324  1.00  0.00     0.070 C 
HETATM    4  C5  UNL     1      26.805   4.851  48.954  1.00  0.00    -0.058 C 
HETATM    5  C14 UNL     1      26.074   5.980  48.854  1.00  0.00    -0.005 C 
HETATM    6  C15 UNL     1      24.689   6.402  48.696  1.00  0.00     0.105 C 
HETATM    7  C16 UNL     1      24.281   7.613  49.520  1.00  0.00     0.046 C 
HETATM    8  C17 UNL     1      23.361   7.218  50.677  1.00  0.00    -0.008 C 
HETATM    9  C18 UNL     1      23.887   6.098  51.213  1.00  0.00     0.098 C 
HETATM   10  N4  UNL     1      24.078   5.031  50.211  1.00  0.00    -0.273 N 
HETATM   11  C19 UNL     1      23.667   5.327  48.844  1.00  0.00     0.237 C 
HETATM   12  O2  UNL     1      22.869   5.048  47.869  1.00  0.00    -0.272 OA
ENDROOT
BRANCH   4  13
HETATM   13  C6  UNL     1      28.202   5.161  48.552  1.00  0.00     0.005 C 
HETATM   14  C7  UNL     1      28.873   6.145  47.976  1.00  0.00    -0.007 C 
BRANCH  14  15
HETATM   15  C8  UNL     1      30.298   6.385  47.600  1.00  0.00     0.144 C 
BRANCH  15  16
HETATM   16  N1  UNL     1      31.197   5.410  48.113  1.00  0.00    -0.403 N 
HETATM   17  C9  UNL     1      31.584   4.360  47.255  1.00  0.00     0.165 C 
HETATM   18  C10 UNL     1      33.013   4.378  46.849  1.00  0.00     0.130 C 
HETATM   19  N2  UNL     1      34.148   4.907  47.241  1.00  0.00    -0.193 NA
HETATM   20  N3  UNL     1      34.271   5.751  48.377  1.00  0.00    -0.309 N 
HETATM   21  C11 UNL     1      35.528   5.736  49.135  1.00  0.00     0.173 C 
HETATM   22  C12 UNL     1      33.210   6.651  48.857  1.00  0.00     0.163 C 
HETATM   23  C13 UNL     1      32.037   5.769  49.179  1.00  0.00     0.139 C 
ENDBRANCH  15  16
ENDBRANCH  14  15
ENDBRANCH   4  13
BRANCH   1  24
HETATM   24  O1  UNL     1      24.127   3.847  52.152  1.00  0.00    -0.341 OA
HETATM   25  C1  UNL     1      24.472   2.876  53.118  1.00  0.00     0.211 C 
ENDBRANCH   1  24
TORSDOF 4
ENDMDL
MODEL 2
REMARK VINA RESULT:      -7.7      3.488      8.087
REMARK  4 active torsions:
REMARK  status: ('A' for Active; 'I' for Inactive)
REMARK    1  A    between atoms: O1_2  and  C2_3 
REMARK    2  A    between atoms: C5_6  and  C6_7 
REMARK    3  A    between atoms: C7_8  and  C8_9 
REMARK    4  A    between atoms: C8_9  and  N1_10 
ROOT
HETATM    1  C2  UNL     1      29.674   8.599  48.815  1.00  0.00     0.147 C 
HETATM    2  C3  UNL     1      28.338   8.358  48.688  1.00  0.00     0.034 C 
HETATM    3  C4  UNL     1      27.689   7.123  48.170  1.00  0.00     0.070 C 
HETATM    4  C5  UNL     1      28.492   5.913  48.279  1.00  0.00    -0.058 C 
HETATM    5  C14 UNL     1      29.764   5.478  48.171  1.00  0.00    -0.005 C 
HETATM    6  C15 UNL     1      31.021   5.851  47.538  1.00  0.00     0.105 C 
HETATM    7  C16 UNL     1      32.266   5.640  48.386  1.00  0.00     0.046 C 
HETATM    8  C17 UNL     1      32.847   6.971  48.865  1.00  0.00    -0.008 C 
HETATM    9  C18 UNL     1      31.800   7.722  49.259  1.00  0.00     0.098 C 
HETATM   10  N4  UNL     1      30.780   7.864  48.200  1.00  0.00    -0.273 N 
HETATM   11  C19 UNL     1      31.056   7.210  46.927  1.00  0.00     0.237 C 
HETATM   12  O2  UNL     1      31.285   7.352  45.664  1.00  0.00    -0.272 OA
ENDROOT
BRANCH   4  13
HETATM   13  C6  UNL     1      27.630   4.755  48.634  1.00  0.00     0.005 C 
HETATM   14  C7  UNL     1      26.667   4.463  49.493  1.00  0.00    -0.007 C 
BRANCH  14  15
HETATM   15  C8  UNL     1      25.838   3.257  49.792  1.00  0.00     0.144 C 
BRANCH  15  16
HETATM   16  N1  UNL     1      25.619   3.043  51.180  1.00  0.00    -0.403 N 
HETATM   17  C9  UNL     1      24.292   3.123  51.654  1.00  0.00     0.165 C 
HETATM   18  C10 UNL     1      23.719   1.837  52.126  1.00  0.00     0.130 C 
HETATM   19  N2  UNL     1      24.129   0.653  52.517  1.00  0.00    -0.193 NA
HETATM   20  N3  UNL     1      25.496   0.277  52.583  1.00  0.00    -0.309 N 
HETATM   21  C11 UNL     1      25.915  -0.691  53.604  1.00  0.00     0.173 C 
HETATM   22  C12 UNL     1      26.541   0.798  51.687  1.00  0.00     0.163 C 
HETATM   23  C13 UNL     1      26.558   2.285  51.897  1.00  0.00     0.139 C 
ENDBRANCH  15  16
ENDBRANCH  14  15
ENDBRANCH   4  13
BRANCH   1  24
HETATM   24  O1  UNL     1      30.259   9.604  49.569  1.00  0.00    -0.341 OA
HETATM   25  C1  UNL     1      30.435  10.921  49.092  1.00  0.00     0.211 C 
ENDBRANCH   1  24
TORSDOF 4
ENDMDL
MODEL 3
REMARK VINA RESULT:      -7.5      4.077      6.429
REMARK  4 active torsions:
REMARK  status: ('A' for Active; 'I' for Inactive)
REMARK    1  A    between atoms: O1_2  and  C2_3 
REMARK    2  A    between atoms: C5_6  and  C6_7 
REMARK    3  A    between atoms: C7_8  and  C8_9 
REMARK    4  A    between atoms: C8_9  and  N1_10 
ROOT
HETATM    1  C2  UNL     1      24.122   0.563  52.721  1.00  0.00     0.147 C 
HETATM    2  C3  UNL     1      23.833   1.802  52.228  1.00  0.00     0.034 C 
HETATM    3  C4  UNL     1      24.796   2.885  51.891  1.00  0.00     0.070 C 
HETATM    4  C5  UNL     1      26.147   2.435  51.584  1.00  0.00    -0.058 C 
HETATM    5  C14 UNL     1      27.066   1.521  51.960  1.00  0.00    -0.005 C 
HETATM    6  C15 UNL     1      27.413   0.695  53.108  1.00  0.00     0.105 C 
HETATM    7  C16 UNL     1      27.865  -0.719  52.779  1.00  0.00     0.046 C 
HETATM    8  C17 UNL     1      26.802  -1.749  53.165  1.00  0.00    -0.008 C 
HETATM    9  C18 UNL     1      25.618  -1.237  52.770  1.00  0.00     0.098 C 
HETATM   10  N4  UNL     1      25.374   0.109  53.327  1.00  0.00    -0.273 N 
HETATM   11  C19 UNL     1      26.402   0.657  54.203  1.00  0.00     0.237 C 
HETATM   12  O2  UNL     1      26.712   1.056  55.391  1.00  0.00    -0.272 OA
ENDROOT
BRANCH   4  13
HETATM   13  C6  UNL     1      26.721   3.248  50.480  1.00  0.00     0.005 C 
HETATM   14  C7  UNL     1      26.393   4.303  49.752  1.00  0.00    -0.007 C 
BRANCH  14  15
HETATM   15  C8  UNL     1      27.034   5.071  48.643  1.00  0.00     0.144 C 
BRANCH  15  16
HETATM   16  N1  UNL     1      26.521   6.388  48.488  1.00  0.00    -0.403 N 
HETATM   17  C9  UNL     1      25.591   6.846  49.445  1.00  0.00     0.165 C 
HETATM   18  C10 UNL     1      26.082   7.943  50.318  1.00  0.00     0.130 C 
HETATM   19  N2  UNL     1      27.030   8.850  50.332  1.00  0.00    -0.193 NA
HETATM   20  N3  UNL     1      27.987   9.003  49.294  1.00  0.00    -0.309 N 
HETATM   21  C11 UNL     1      28.520  10.342  49.015  1.00  0.00     0.173 C 
HETATM   22  C12 UNL     1      28.488   7.897  48.463  1.00  0.00     0.163 C 
HETATM   23  C13 UNL     1      27.284   7.324  47.771  1.00  0.00     0.139 C 
ENDBRANCH  15  16
ENDBRANCH  14  15
ENDBRANCH   4  13
BRANCH   1  24
HETATM   24  O1  UNL     1      23.271  -0.530  52.742  1.00  0.00    -0.341 OA
HETATM   25  C1  UNL     1      22.060  -0.550  53.468  1.00  0.00     0.211 C 
ENDBRANCH   1  24
TORSDOF 4
ENDMDL
MODEL 4
REMARK VINA RESULT:      -7.5      5.179      7.512
REMARK  4 active torsions:
REMARK  status: ('A' for Active; 'I' for Inactive)
REMARK    1  A    between atoms: O1_2  and  C2_3 
REMARK    2  A    between atoms: C5_6  and  C6_7 
REMARK    3  A    between atoms: C7_8  and  C8_9 
REMARK    4  A    between atoms: C8_9  and  N1_10 
ROOT
HETATM    1  C2  UNL     1      23.390   0.148  53.453  1.00  0.00     0.147 C 
HETATM    2  C3  UNL     1      22.581   1.190  53.103  1.00  0.00     0.034 C 
HETATM    3  C4  UNL     1      22.972   2.432  52.384  1.00  0.00     0.070 C 
HETATM    4  C5  UNL     1      24.166   2.317  51.558  1.00  0.00    -0.058 C 
HETATM    5  C14 UNL     1      25.384   1.736  51.539  1.00  0.00    -0.005 C 
HETATM    6  C15 UNL     1      26.375   1.193  52.457  1.00  0.00     0.105 C 
HETATM    7  C16 UNL     1      27.060  -0.083  51.994  1.00  0.00     0.046 C 
HETATM    8  C17 UNL     1      26.584  -1.295  52.797  1.00  0.00    -0.008 C 
HETATM    9  C18 UNL     1      25.247  -1.171  52.914  1.00  0.00     0.098 C 
HETATM   10  N4  UNL     1      24.852   0.125  53.500  1.00  0.00    -0.273 N 
HETATM   11  C19 UNL     1      25.927   1.037  53.870  1.00  0.00     0.237 C 
HETATM   12  O2  UNL     1      26.540   1.660  54.821  1.00  0.00    -0.272 OA
ENDROOT
BRANCH   4  13
HETATM   13  C6  UNL     1      24.000   3.096  50.304  1.00  0.00     0.005 C 
HETATM   14  C7  UNL     1      23.029   3.681  49.621  1.00  0.00    -0.007 C 
BRANCH  14  15
HETATM   15  C8  UNL     1      22.941   4.457  48.348  1.00  0.00     0.144 C 
BRANCH  15  16
HETATM   16  N1  UNL     1      23.058   5.862  48.524  1.00  0.00    -0.403 N 
HETATM   17  C9  UNL     1      22.300   6.459  49.553  1.00  0.00     0.165 C 
HETATM   18  C10 UNL     1      23.096   7.003  50.682  1.00  0.00     0.130 C 
HETATM   19  N2  UNL     1      24.330   7.369  50.940  1.00  0.00    -0.193 NA
HETATM   20  N3  UNL     1      25.382   7.310  49.988  1.00  0.00    -0.309 N 
HETATM   21  C11 UNL     1      26.463   8.300  50.065  1.00  0.00     0.173 C 
HETATM   22  C12 UNL     1      25.466   6.311  48.911  1.00  0.00     0.163 C 
HETATM   23  C13 UNL     1      24.229   6.497  48.079  1.00  0.00     0.139 C 
ENDBRANCH  15  16
ENDBRANCH  14  15
ENDBRANCH   4  13
BRANCH   1  24
HETATM   24  O1  UNL     1      22.977  -1.118  53.838  1.00  0.00    -0.341 OA
HETATM   25  C1  UNL     1      21.826  -1.347  54.623  1.00  0.00     0.211 C 
ENDBRANCH   1  24
TORSDOF 4
ENDMDL
MODEL 5
REMARK VINA RESULT:      -7.3      2.603      3.387
REMARK  4 active torsions:
REMARK  status: ('A' for Active; 'I' for Inactive)
REMARK    1  A    between atoms: O1_2  and  C2_3 
REMARK    2  A    between atoms: C5_6  and  C6_7 
REMARK    3  A    between atoms: C7_8  and  C8_9 
REMARK    4  A    between atoms: C8_9  and  N1_10 
ROOT
HETATM    1  C2  UNL     1      25.218   2.925  51.353  1.00  0.00     0.147 C 
HETATM    2  C3  UNL     1      26.413   2.868  50.698  1.00  0.00     0.034 C 
HETATM    3  C4  UNL     1      26.795   3.591  49.456  1.00  0.00     0.070 C 
HETATM    4  C5  UNL     1      26.047   4.814  49.200  1.00  0.00    -0.058 C 
HETATM    5  C14 UNL     1      24.807   5.335  49.308  1.00  0.00    -0.005 C 
HETATM    6  C15 UNL     1      23.419   4.903  49.392  1.00  0.00     0.105 C 
HETATM    7  C16 UNL     1      22.554   5.680  50.372  1.00  0.00     0.046 C 
HETATM    8  C17 UNL     1      22.223   4.844  51.609  1.00  0.00    -0.008 C 
HETATM    9  C18 UNL     1      23.365   4.220  51.961  1.00  0.00     0.098 C 
HETATM   10  N4  UNL     1      23.943   3.438  50.851  1.00  0.00    -0.273 N 
HETATM   11  C19 UNL     1      23.211   3.440  49.590  1.00  0.00     0.237 C 
HETATM   12  O2  UNL     1      22.550   2.752  48.720  1.00  0.00    -0.272 OA
ENDROOT
BRANCH   4  13
HETATM   13  C6  UNL     1      26.943   5.854  48.628  1.00  0.00     0.005 C 
HETATM   14  C7  UNL     1      28.202   5.973  48.239  1.00  0.00    -0.007 C 
BRANCH  14  15
HETATM   15  C8  UNL     1      29.039   7.069  47.667  1.00  0.00     0.144 C 
BRANCH  15  16
HETATM   16  N1  UNL     1      29.772   7.798  48.642  1.00  0.00    -0.403 N 
HETATM   17  C9  UNL     1      31.177   7.673  48.634  1.00  0.00     0.165 C 
HETATM   18  C10 UNL     1      31.912   8.904  48.246  1.00  0.00     0.130 C 
HETATM   19  N2  UNL     1      31.704  10.197  48.158  1.00  0.00    -0.193 NA
HETATM   20  N3  UNL     1      30.471  10.819  48.488  1.00  0.00    -0.309 N 
HETATM   21  C11 UNL     1      30.489  12.186  49.024  1.00  0.00     0.173 C 
HETATM   22  C12 UNL     1      29.155  10.180  48.331  1.00  0.00     0.163 C 
HETATM   23  C13 UNL     1      29.189   8.951  49.194  1.00  0.00     0.139 C 
ENDBRANCH  15  16
ENDBRANCH  14  15
ENDBRANCH   4  13
BRANCH   1  24
HETATM   24  O1  UNL     1      24.972   2.502  52.650  1.00  0.00    -0.341 OA
HETATM   25  C1  UNL     1      25.995   2.098  53.536  1.00  0.00     0.211 C 
ENDBRANCH   1  24
TORSDOF 4
ENDMDL
MODEL 6
REMARK VINA RESULT:      -7.3      2.226      3.122
REMARK  4 active torsions:
REMARK  status: ('A' for Active; 'I' for Inactive)
REMARK    1  A    between atoms: O1_2  and  C2_3 
REMARK    2  A    between atoms: C5_6  and  C6_7 
REMARK    3  A    between atoms: C7_8  and  C8_9 
REMARK    4  A    between atoms: C8_9  and  N1_10 
ROOT
HETATM    1  C2  UNL     1      24.705   3.856  50.991  1.00  0.00     0.147 C 
HETATM    2  C3  UNL     1      25.754   3.093  50.571  1.00  0.00     0.034 C 
HETATM    3  C4  UNL     1      26.643   3.345  49.405  1.00  0.00     0.070 C 
HETATM    4  C5  UNL     1      26.731   4.738  48.987  1.00  0.00    -0.058 C 
HETATM    5  C14 UNL     1      25.976   5.848  48.851  1.00  0.00    -0.005 C 
HETATM    6  C15 UNL     1      24.582   6.236  48.685  1.00  0.00     0.105 C 
HETATM    7  C16 UNL     1      24.152   7.466  49.469  1.00  0.00     0.046 C 
HETATM    8  C17 UNL     1      23.245   7.091  50.642  1.00  0.00    -0.008 C 
HETATM    9  C18 UNL     1      23.796   6.002  51.215  1.00  0.00     0.098 C 
HETATM   10  N4  UNL     1      24.005   4.905  50.249  1.00  0.00    -0.273 N 
HETATM   11  C19 UNL     1      23.583   5.146  48.875  1.00  0.00     0.237 C 
HETATM   12  O2  UNL     1      22.787   4.817  47.913  1.00  0.00    -0.272 OA
ENDROOT
BRANCH   4  13
HETATM   13  C6  UNL     1      28.119   5.062  48.568  1.00  0.00     0.005 C 
HETATM   14  C7  UNL     1      28.794   6.093  48.088  1.00  0.00    -0.007 C 
BRANCH  14  15
HETATM   15  C8  UNL     1      30.211   6.344  47.686  1.00  0.00     0.144 C 
BRANCH  15  16
HETATM   16  N1  UNL     1      30.427   7.630  47.122  1.00  0.00    -0.403 N 
HETATM   17  C9  UNL     1      29.386   8.192  46.353  1.00  0.00     0.165 C 
HETATM   18  C10 UNL     1      28.739   9.386  46.955  1.00  0.00     0.130 C 
HETATM   19  N2  UNL     1      28.988  10.294  47.870  1.00  0.00    -0.193 NA
HETATM   20  N3  UNL     1      30.183  10.330  48.636  1.00  0.00    -0.309 N 
HETATM   21  C11 UNL     1      30.698  11.630  49.082  1.00  0.00     0.173 C 
HETATM   22  C12 UNL     1      30.955   9.137  49.020  1.00  0.00     0.163 C 
HETATM   23  C13 UNL     1      31.364   8.480  47.732  1.00  0.00     0.139 C 
ENDBRANCH  15  16
ENDBRANCH  14  15
ENDBRANCH   4  13
BRANCH   1  24
HETATM   24  O1  UNL     1      24.085   3.790  52.229  1.00  0.00    -0.341 OA
HETATM   25  C1  UNL     1      24.363   2.780  53.177  1.00  0.00     0.211 C 
ENDBRANCH   1  24
TORSDOF 4
ENDMDL
MODEL 7
REMARK VINA RESULT:      -7.0      1.849      3.635
REMARK  4 active torsions:
REMARK  status: ('A' for Active; 'I' for Inactive)
REMARK    1  A    between atoms: O1_2  and  C2_3 
REMARK    2  A    between atoms: C5_6  and  C6_7 
REMARK    3  A    between atoms: C7_8  and  C8_9 
REMARK    4  A    between atoms: C8_9  and  N1_10 
ROOT
HETATM    1  C2  UNL     1      22.932   4.152  49.205  1.00  0.00     0.147 C 
HETATM    2  C3  UNL     1      23.651   5.116  48.560  1.00  0.00     0.034 C 
HETATM    3  C4  UNL     1      25.054   5.527  48.832  1.00  0.00     0.070 C 
HETATM    4  C5  UNL     1      25.881   4.514  49.474  1.00  0.00    -0.058 C 
HETATM    5  C14 UNL     1      25.822   3.538  50.403  1.00  0.00    -0.005 C 
HETATM    6  C15 UNL     1      25.035   3.150  51.565  1.00  0.00     0.105 C 
HETATM    7  C16 UNL     1      24.746   1.662  51.688  1.00  0.00     0.046 C 
HETATM    8  C17 UNL     1      23.279   1.352  51.387  1.00  0.00    -0.008 C 
HETATM    9  C18 UNL     1      22.951   2.085  50.303  1.00  0.00     0.098 C 
HETATM   10  N4  UNL     1      23.230   3.522  50.492  1.00  0.00    -0.273 N 
HETATM   11  C19 UNL     1      23.780   3.924  51.781  1.00  0.00     0.237 C 
HETATM   12  O2  UNL     1      23.607   4.596  52.870  1.00  0.00    -0.272 OA
ENDROOT
BRANCH   4  13
HETATM   13  C6  UNL     1      27.261   4.554  48.924  1.00  0.00     0.005 C 
HETATM   14  C7  UNL     1      28.149   5.457  48.540  1.00  0.00    -0.007 C 
BRANCH  14  15
HETATM   15  C8  UNL     1      29.537   5.417  47.990  1.00  0.00     0.144 C 
BRANCH  15  16
HETATM   16  N1  UNL     1      30.445   6.278  48.664  1.00  0.00    -0.403 N 
HETATM   17  C9  UNL     1      31.737   5.783  48.939  1.00  0.00     0.165 C 
HETATM   18  C10 UNL     1      32.833   6.445  48.186  1.00  0.00     0.130 C 
HETATM   19  N2  UNL     1      33.049   7.556  47.522  1.00  0.00    -0.193 NA
HETATM   20  N3  UNL     1      32.072   8.572  47.350  1.00  0.00    -0.309 N 
HETATM   21  C11 UNL     1      32.514   9.968  47.245  1.00  0.00     0.173 C 
HETATM   22  C12 UNL     1      30.624   8.320  47.270  1.00  0.00     0.163 C 
HETATM   23  C13 UNL     1      30.248   7.665  48.569  1.00  0.00     0.139 C 
ENDBRANCH  15  16
ENDBRANCH  14  15
ENDBRANCH   4  13
BRANCH   1  24
HETATM   24  O1  UNL     1      21.757   3.568  48.759  1.00  0.00    -0.341 OA
HETATM   25  C1  UNL     1      20.548   4.283  48.613  1.00  0.00     0.211 C 
ENDBRANCH   1  24
TORSDOF 4
ENDMDL
MODEL 8
REMARK VINA RESULT:      -6.3      3.347      4.993
REMARK  4 active torsions:
REMARK  status: ('A' for Active; 'I' for Inactive)
REMARK    1  A    between atoms: O1_2  and  C2_3 
REMARK    2  A    between atoms: C5_6  and  C6_7 
REMARK    3  A    between atoms: C7_8  and  C8_9 
REMARK    4  A    between atoms: C8_9  and  N1_10 
ROOT
HETATM    1  C2  UNL     1      22.438   2.718  49.417  1.00  0.00     0.147 C 
HETATM    2  C3  UNL     1      22.729   3.601  48.418  1.00  0.00     0.034 C 
HETATM    3  C4  UNL     1      23.654   4.764  48.486  1.00  0.00     0.070 C 
HETATM    4  C5  UNL     1      24.693   4.668  49.501  1.00  0.00    -0.058 C 
HETATM    5  C14 UNL     1      24.900   4.232  50.761  1.00  0.00    -0.005 C 
HETATM    6  C15 UNL     1      24.154   3.940  51.977  1.00  0.00     0.105 C 
HETATM    7  C16 UNL     1      24.598   2.696  52.731  1.00  0.00     0.046 C 
HETATM    8  C17 UNL     1      23.578   1.565  52.593  1.00  0.00    -0.008 C 
HETATM    9  C18 UNL     1      23.198   1.553  51.300  1.00  0.00     0.098 C 
HETATM   10  N4  UNL     1      22.696   2.867  50.849  1.00  0.00    -0.273 N 
HETATM   11  C19 UNL     1      22.670   3.938  51.838  1.00  0.00     0.237 C 
HETATM   12  O2  UNL     1      21.948   4.755  52.530  1.00  0.00    -0.272 OA
ENDROOT
BRANCH   4  13
HETATM   13  C6  UNL     1      25.967   5.237  48.988  1.00  0.00     0.005 C 
HETATM   14  C7  UNL     1      26.399   6.355  48.430  1.00  0.00    -0.007 C 
BRANCH  14  15
HETATM   15  C8  UNL     1      27.716   6.858  47.934  1.00  0.00     0.144 C 
BRANCH  15  16
HETATM   16  N1  UNL     1      28.311   7.832  48.780  1.00  0.00    -0.403 N 
HETATM   17  C9  UNL     1      29.711   7.992  48.711  1.00  0.00     0.165 C 
HETATM   18  C10 UNL     1      30.165   9.289  48.147  1.00  0.00     0.130 C 
HETATM   19  N2  UNL     1      29.693  10.494  47.926  1.00  0.00    -0.193 NA
HETATM   20  N3  UNL     1      28.368  10.891  48.250  1.00  0.00    -0.309 N 
HETATM   21  C11 UNL     1      28.121  12.288  48.626  1.00  0.00     0.173 C 
HETATM   22  C12 UNL     1      27.208   9.985  48.236  1.00  0.00     0.163 C 
HETATM   23  C13 UNL     1      27.520   8.902  49.230  1.00  0.00     0.139 C 
ENDBRANCH  15  16
ENDBRANCH  14  15
ENDBRANCH   4  13
BRANCH   1  24
HETATM   24  O1  UNL     1      21.830   1.482  49.267  1.00  0.00    -0.341 OA
HETATM   25  C1  UNL     1      20.449   1.271  49.479  1.00  0.00     0.211 C 
ENDBRANCH   1  24
TORSDOF 4
ENDMDL
MODEL 9
REMARK VINA RESULT:      -6.2      2.488      4.308
REMARK  4 active torsions:
REMARK  status: ('A' for Active; 'I' for Inactive)
REMARK    1  A    between atoms: O1_2  and  C2_3 
REMARK    2  A    between atoms: C5_6  and  C6_7 
REMARK    3  A    between atoms: C7_8  and  C8_9 
REMARK    4  A    between atoms: C8_9  and  N1_10 
ROOT
HETATM    1  C2  UNL     1      21.717   5.456  50.149  1.00  0.00     0.147 C 
HETATM    2  C3  UNL     1      22.782   5.992  50.813  1.00  0.00     0.034 C 
HETATM    3  C4  UNL     1      24.113   5.365  51.034  1.00  0.00     0.070 C 
HETATM    4  C5  UNL     1      24.483   4.345  50.064  1.00  0.00    -0.058 C 
HETATM    5  C14 UNL     1      23.955   3.336  49.340  1.00  0.00    -0.005 C 
HETATM    6  C15 UNL     1      22.815   2.430  49.354  1.00  0.00     0.105 C 
HETATM    7  C16 UNL     1      22.176   2.167  48.000  1.00  0.00     0.046 C 
HETATM    8  C17 UNL     1      20.816   2.856  47.880  1.00  0.00    -0.008 C 
HETATM    9  C18 UNL     1      20.970   4.091  48.401  1.00  0.00     0.098 C 
HETATM   10  N4  UNL     1      21.503   4.057  49.777  1.00  0.00    -0.273 N 
HETATM   11  C19 UNL     1      21.756   2.744  50.356  1.00  0.00     0.237 C 
HETATM   12  O2  UNL     1      21.448   1.885  51.270  1.00  0.00    -0.272 OA
ENDROOT
BRANCH   4  13
HETATM   13  C6  UNL     1      25.933   4.435  49.751  1.00  0.00     0.005 C 
HETATM   14  C7  UNL     1      26.724   5.042  48.880  1.00  0.00    -0.007 C 
BRANCH  14  15
HETATM   15  C8  UNL     1      28.195   5.083  48.627  1.00  0.00     0.144 C 
BRANCH  15  16
HETATM   16  N1  UNL     1      28.639   6.291  48.024  1.00  0.00    -0.403 N 
HETATM   17  C9  UNL     1      27.942   7.476  48.342  1.00  0.00     0.165 C 
HETATM   18  C10 UNL     1      28.717   8.463  49.136  1.00  0.00     0.130 C 
HETATM   19  N2  UNL     1      29.967   8.736  49.432  1.00  0.00    -0.193 NA
HETATM   20  N3  UNL     1      31.071   7.984  48.950  1.00  0.00    -0.309 N 
HETATM   21  C11 UNL     1      32.348   8.670  48.724  1.00  0.00     0.173 C 
HETATM   22  C12 UNL     1      31.023   6.543  48.656  1.00  0.00     0.163 C 
HETATM   23  C13 UNL     1      29.973   6.374  47.594  1.00  0.00     0.139 C 
ENDBRANCH  15  16
ENDBRANCH  14  15
ENDBRANCH   4  13
BRANCH   1  24
HETATM   24  O1  UNL     1      20.608   6.147  49.686  1.00  0.00    -0.341 OA
HETATM   25  C1  UNL     1      20.497   7.553  49.741  1.00  0.00     0.211 C 
ENDBRANCH   1  24
TORSDOF 4
ENDMDL
