MODEL 1
REMARK VINA RESULT:      -8.5      0.000      0.000
REMARK  1 active torsions:
REMARK  status: ('A' for Active; 'I' for Inactive)
REMARK       I    between atoms: N1_8  and  C8_9 
REMARK    1  A    between atoms: C8_9  and  C9_11 
ROOT
HETATM    1  C1  UNL     1      20.836   4.123  51.013  1.00  0.00     0.050 C 
HETATM    2  C2  UNL     1      21.280   2.816  51.606  1.00  0.00    -0.035 A 
HETATM    3  C3  UNL     1      20.629   2.231  52.705  1.00  0.00     0.009 A 
HETATM    4  C4  UNL     1      21.101   1.035  53.197  1.00  0.00     0.009 A 
HETATM    5  C5  UNL     1      22.190   0.415  52.628  1.00  0.00    -0.036 A 
HETATM    6  C6  UNL     1      22.814   0.997  51.553  1.00  0.00     0.039 A 
HETATM    7  C7  UNL     1      22.390   2.181  51.028  1.00  0.00     0.049 A 
HETATM    8  N1  UNL     1      22.963   2.873  49.966  1.00  0.00    -0.274 N 
HETATM    9  C8  UNL     1      21.972   2.835  48.961  1.00  0.00     0.243 C 
HETATM   10  O1  UNL     1      20.967   2.101  49.287  1.00  0.00    -0.271 OA
HETATM   11  C10 UNL     1      24.055   3.587  49.417  1.00  0.00     0.241 C 
HETATM   12  N2  UNL     1      24.673   3.396  50.527  1.00  0.00    -0.148 NA
HETATM   13  N3  UNL     1      25.953   3.860  50.769  1.00  0.00    -0.183 N 
HETATM   14  O2  UNL     1      25.797   2.902  51.742  1.00  0.00    -0.259 OA
HETATM   15  C11 UNL     1      26.827   1.983  51.748  1.00  0.00     0.240 C 
HETATM   16  C12 UNL     1      26.600   0.960  52.836  1.00  0.00    -0.018 C 
HETATM   17  C13 UNL     1      26.842   0.998  54.148  1.00  0.00    -0.013 C 
HETATM   18  C14 UNL     1      26.123  -0.127  54.835  1.00  0.00     0.085 C 
HETATM   19  C15 UNL     1      25.022  -0.430  53.858  1.00  0.00     0.048 C 
HETATM   20  N4  UNL     1      23.794  -0.592  54.109  1.00  0.00    -0.290 NA
HETATM   21  C16 UNL     1      22.810  -0.879  53.094  1.00  0.00     0.187 C 
HETATM   22  C17 UNL     1      26.024  -0.418  52.749  1.00  0.00     0.248 C 
HETATM   23  F1  UNL     1      27.014  -1.339  53.009  1.00  0.00    -0.238 F 
HETATM   24  H10 UNL     1      26.386   4.613  50.191  1.00  0.00     0.218 HD
ENDROOT
BRANCH   9  25
HETATM   25  C9  UNL     1      21.872   3.480  47.600  1.00  0.00     0.218 C 
HETATM   26 CL1  UNL     1      20.249   3.408  46.955  1.00  0.00    -0.121 Cl
ENDBRANCH   9  25
TORSDOF 1
ENDMDL
MODEL 2
REMARK VINA RESULT:      -8.2      2.613      3.764
REMARK  1 active torsions:
REMARK  status: ('A' for Active; 'I' for Inactive)
REMARK       I    between atoms: N1_8  and  C8_9 
REMARK    1  A    between atoms: C8_9  and  C9_11 
ROOT
HETATM    1  C1  UNL     1      24.238   5.614  51.595  1.00  0.00     0.050 C 
HETATM    2  C2  UNL     1      23.211   4.518  51.579  1.00  0.00    -0.035 A 
HETATM    3  C3  UNL     1      21.844   4.767  51.788  1.00  0.00     0.009 A 
HETATM    4  C4  UNL     1      20.966   3.708  51.766  1.00  0.00     0.009 A 
HETATM    5  C5  UNL     1      21.408   2.424  51.542  1.00  0.00    -0.036 A 
HETATM    6  C6  UNL     1      22.746   2.196  51.337  1.00  0.00     0.039 A 
HETATM    7  C7  UNL     1      23.659   3.208  51.351  1.00  0.00     0.049 A 
HETATM    8  N1  UNL     1      25.036   3.089  51.186  1.00  0.00    -0.274 N 
HETATM    9  C8  UNL     1      25.292   3.766  49.974  1.00  0.00     0.243 C 
HETATM   10  O1  UNL     1      24.215   4.140  49.380  1.00  0.00    -0.271 OA
HETATM   11  C10 UNL     1      26.287   2.616  51.647  1.00  0.00     0.241 C 
HETATM   12  N2  UNL     1      25.667   2.103  52.649  1.00  0.00    -0.148 NA
HETATM   13  N3  UNL     1      26.305   1.394  53.650  1.00  0.00    -0.183 N 
HETATM   14  O2  UNL     1      24.995   1.015  53.809  1.00  0.00    -0.259 OA
HETATM   15  C11 UNL     1      24.840  -0.357  53.829  1.00  0.00     0.240 C 
HETATM   16  C12 UNL     1      23.382  -0.710  54.007  1.00  0.00    -0.018 C 
HETATM   17  C13 UNL     1      22.615  -0.771  55.097  1.00  0.00    -0.013 C 
HETATM   18  C14 UNL     1      21.168  -0.830  54.702  1.00  0.00     0.085 C 
HETATM   19  C15 UNL     1      21.198  -0.225  53.327  1.00  0.00     0.048 C 
HETATM   20  N4  UNL     1      20.433   0.667  52.862  1.00  0.00    -0.290 NA
HETATM   21  C16 UNL     1      20.546   1.186  51.521  1.00  0.00     0.187 C 
HETATM   22  C17 UNL     1      22.361  -1.100  52.986  1.00  0.00     0.248 C 
HETATM   23  F1  UNL     1      22.017  -2.420  53.171  1.00  0.00    -0.238 F 
HETATM   24  H10 UNL     1      27.335   1.462  53.805  1.00  0.00     0.218 HD
ENDROOT
BRANCH   9  25
HETATM   25  C9  UNL     1      26.571   4.125  49.255  1.00  0.00     0.218 C 
HETATM   26 CL1  UNL     1      26.589   5.795  48.740  1.00  0.00    -0.121 Cl
ENDBRANCH   9  25
TORSDOF 1
ENDMDL
MODEL 3
REMARK VINA RESULT:      -8.1      3.586      6.539
REMARK  1 active torsions:
REMARK  status: ('A' for Active; 'I' for Inactive)
REMARK       I    between atoms: N1_8  and  C8_9 
REMARK    1  A    between atoms: C8_9  and  C9_11 
ROOT
HETATM    1  C1  UNL     1      25.196   2.528  53.653  1.00  0.00     0.050 C 
HETATM    2  C2  UNL     1      24.301   2.569  52.448  1.00  0.00    -0.035 A 
HETATM    3  C3  UNL     1      24.177   3.715  51.644  1.00  0.00     0.009 A 
HETATM    4  C4  UNL     1      23.330   3.677  50.559  1.00  0.00     0.009 A 
HETATM    5  C5  UNL     1      22.613   2.540  50.260  1.00  0.00    -0.036 A 
HETATM    6  C6  UNL     1      22.746   1.428  51.053  1.00  0.00     0.039 A 
HETATM    7  C7  UNL     1      23.569   1.412  52.139  1.00  0.00     0.049 A 
HETATM    8  N1  UNL     1      23.756   0.357  53.026  1.00  0.00    -0.274 N 
HETATM    9  C8  UNL     1      25.104  -0.016  52.830  1.00  0.00     0.243 C 
HETATM   10  O1  UNL     1      25.655   0.619  51.857  1.00  0.00    -0.271 OA
HETATM   11  C10 UNL     1      23.245  -0.514  54.017  1.00  0.00     0.241 C 
HETATM   12  N2  UNL     1      22.118   0.089  53.894  1.00  0.00    -0.148 NA
HETATM   13  N3  UNL     1      20.995  -0.249  54.629  1.00  0.00    -0.183 N 
HETATM   14  O2  UNL     1      20.462   0.475  53.590  1.00  0.00    -0.259 OA
HETATM   15  C11 UNL     1      19.445  -0.199  52.943  1.00  0.00     0.240 C 
HETATM   16  C12 UNL     1      18.901   0.646  51.816  1.00  0.00    -0.018 C 
HETATM   17  C13 UNL     1      18.020   1.649  51.810  1.00  0.00    -0.013 C 
HETATM   18  C14 UNL     1      18.080   2.377  50.498  1.00  0.00     0.085 C 
HETATM   19  C15 UNL     1      19.462   2.033  50.018  1.00  0.00     0.048 C 
HETATM   20  N4  UNL     1      20.333   2.821  49.551  1.00  0.00    -0.290 NA
HETATM   21  C16 UNL     1      21.639   2.389  49.117  1.00  0.00     0.187 C 
HETATM   22  C17 UNL     1      19.203   0.598  50.352  1.00  0.00     0.248 C 
HETATM   23  F1  UNL     1      18.088   0.159  49.674  1.00  0.00    -0.238 F 
HETATM   24  H10 UNL     1      21.058  -0.813  55.504  1.00  0.00     0.218 HD
ENDROOT
BRANCH   9  25
HETATM   25  C9  UNL     1      26.003  -1.003  53.535  1.00  0.00     0.218 C 
HETATM   26 CL1  UNL     1      26.783  -2.098  52.418  1.00  0.00    -0.121 Cl
ENDBRANCH   9  25
TORSDOF 1
ENDMDL
MODEL 4
REMARK VINA RESULT:      -8.1      2.091      3.931
REMARK  1 active torsions:
REMARK  status: ('A' for Active; 'I' for Inactive)
REMARK       I    between atoms: N1_8  and  C8_9 
REMARK    1  A    between atoms: C8_9  and  C9_11 
ROOT
HETATM    1  C1  UNL     1      20.475   1.987  48.942  1.00  0.00     0.050 C 
HETATM    2  C2  UNL     1      21.851   2.329  49.437  1.00  0.00    -0.035 A 
HETATM    3  C3  UNL     1      22.909   2.630  48.562  1.00  0.00     0.009 A 
HETATM    4  C4  UNL     1      24.145   2.926  49.092  1.00  0.00     0.009 A 
HETATM    5  C5  UNL     1      24.350   2.930  50.453  1.00  0.00    -0.036 A 
HETATM    6  C6  UNL     1      23.307   2.636  51.295  1.00  0.00     0.039 A 
HETATM    7  C7  UNL     1      22.064   2.334  50.824  1.00  0.00     0.049 A 
HETATM    8  N1  UNL     1      20.948   1.992  51.580  1.00  0.00    -0.274 N 
HETATM    9  C8  UNL     1      20.047   3.056  51.358  1.00  0.00     0.243 C 
HETATM   10  O1  UNL     1      20.570   4.009  50.670  1.00  0.00    -0.271 OA
HETATM   11  C10 UNL     1      20.292   1.097  52.459  1.00  0.00     0.241 C 
HETATM   12  N2  UNL     1      21.347   0.365  52.419  1.00  0.00    -0.148 NA
HETATM   13  N3  UNL     1      21.469  -0.824  53.116  1.00  0.00    -0.183 N 
HETATM   14  O2  UNL     1      22.776  -0.518  52.824  1.00  0.00    -0.259 OA
HETATM   15  C11 UNL     1      23.585  -0.532  53.942  1.00  0.00     0.240 C 
HETATM   16  C12 UNL     1      25.005  -0.189  53.557  1.00  0.00    -0.018 C 
HETATM   17  C13 UNL     1      25.984  -0.935  53.039  1.00  0.00    -0.013 C 
HETATM   18  C14 UNL     1      27.081  -0.052  52.521  1.00  0.00     0.085 C 
HETATM   19  C15 UNL     1      26.354   1.242  52.292  1.00  0.00     0.048 C 
HETATM   20  N4  UNL     1      26.403   1.983  51.269  1.00  0.00    -0.290 NA
HETATM   21  C16 UNL     1      25.660   3.212  51.146  1.00  0.00     0.187 C 
HETATM   22  C17 UNL     1      25.733   1.114  53.646  1.00  0.00     0.248 C 
HETATM   23  F1  UNL     1      26.720   1.015  54.601  1.00  0.00    -0.238 F 
HETATM   24  H10 UNL     1      20.638  -1.333  53.488  1.00  0.00     0.218 HD
ENDROOT
BRANCH   9  25
HETATM   25  C9  UNL     1      18.612   3.283  51.768  1.00  0.00     0.218 C 
HETATM   26 CL1  UNL     1      17.759   4.309  50.639  1.00  0.00    -0.121 Cl
ENDBRANCH   9  25
TORSDOF 1
ENDMDL
MODEL 5
REMARK VINA RESULT:      -7.7      2.679      4.646
REMARK  1 active torsions:
REMARK  status: ('A' for Active; 'I' for Inactive)
REMARK       I    between atoms: N1_8  and  C8_9 
REMARK    1  A    between atoms: C8_9  and  C9_11 
ROOT
HETATM    1  C1  UNL     1      24.634   5.025  48.940  1.00  0.00     0.050 C 
HETATM    2  C2  UNL     1      24.863   4.100  50.100  1.00  0.00    -0.035 A 
HETATM    3  C3  UNL     1      25.983   3.255  50.175  1.00  0.00     0.009 A 
HETATM    4  C4  UNL     1      26.119   2.429  51.268  1.00  0.00     0.009 A 
HETATM    5  C5  UNL     1      25.180   2.423  52.274  1.00  0.00    -0.036 A 
HETATM    6  C6  UNL     1      24.092   3.256  52.188  1.00  0.00     0.039 A 
HETATM    7  C7  UNL     1      23.907   4.092  51.128  1.00  0.00     0.049 A 
HETATM    8  N1  UNL     1      22.832   4.951  50.923  1.00  0.00    -0.274 N 
HETATM    9  C8  UNL     1      23.409   6.238  50.987  1.00  0.00     0.243 C 
HETATM   10  O1  UNL     1      24.650   6.207  51.325  1.00  0.00    -0.271 OA
HETATM   11  C10 UNL     1      21.451   5.148  50.687  1.00  0.00     0.241 C 
HETATM   12  N2  UNL     1      21.316   3.871  50.713  1.00  0.00    -0.148 NA
HETATM   13  N3  UNL     1      20.100   3.235  50.537  1.00  0.00    -0.183 N 
HETATM   14  O2  UNL     1      20.865   2.253  51.119  1.00  0.00    -0.259 OA
HETATM   15  C11 UNL     1      20.260   1.699  52.228  1.00  0.00     0.240 C 
HETATM   16  C12 UNL     1      21.146   0.629  52.820  1.00  0.00    -0.018 C 
HETATM   17  C13 UNL     1      21.332  -0.650  52.484  1.00  0.00    -0.013 C 
HETATM   18  C14 UNL     1      22.564  -1.183  53.157  1.00  0.00     0.085 C 
HETATM   19  C15 UNL     1      23.335   0.077  53.430  1.00  0.00     0.048 C 
HETATM   20  N4  UNL     1      24.559   0.295  53.203  1.00  0.00    -0.290 NA
HETATM   21  C16 UNL     1      25.209   1.547  53.502  1.00  0.00     0.187 C 
HETATM   22  C17 UNL     1      22.091   0.701  53.977  1.00  0.00     0.248 C 
HETATM   23  F1  UNL     1      21.602  -0.068  55.009  1.00  0.00    -0.238 F 
HETATM   24  H10 UNL     1      19.282   3.719  50.108  1.00  0.00     0.218 HD
ENDROOT
BRANCH   9  25
HETATM   25  C9  UNL     1      22.853   7.620  50.739  1.00  0.00     0.218 C 
HETATM   26 CL1  UNL     1      23.843   8.538  49.628  1.00  0.00    -0.121 Cl
ENDBRANCH   9  25
TORSDOF 1
ENDMDL
MODEL 6
REMARK VINA RESULT:      -7.6      9.866     12.848
REMARK  1 active torsions:
REMARK  status: ('A' for Active; 'I' for Inactive)
REMARK       I    between atoms: N1_8  and  C8_9 
REMARK    1  A    between atoms: C8_9  and  C9_11 
ROOT
HETATM    1  C1  UNL     1      34.632   5.174  48.715  1.00  0.00     0.050 C 
HETATM    2  C2  UNL     1      34.461   6.540  48.115  1.00  0.00    -0.035 A 
HETATM    3  C3  UNL     1      35.435   7.545  48.248  1.00  0.00     0.009 A 
HETATM    4  C4  UNL     1      35.202   8.775  47.677  1.00  0.00     0.009 A 
HETATM    5  C5  UNL     1      34.039   9.027  46.985  1.00  0.00    -0.036 A 
HETATM    6  C6  UNL     1      33.098   8.036  46.862  1.00  0.00     0.039 A 
HETATM    7  C7  UNL     1      33.276   6.801  47.409  1.00  0.00     0.049 A 
HETATM    8  N1  UNL     1      32.381   5.736  47.373  1.00  0.00    -0.274 N 
HETATM    9  C8  UNL     1      33.045   4.759  46.600  1.00  0.00     0.243 C 
HETATM   10  O1  UNL     1      34.147   5.193  46.098  1.00  0.00    -0.271 OA
HETATM   11  C10 UNL     1      31.134   5.174  47.735  1.00  0.00     0.241 C 
HETATM   12  N2  UNL     1      30.871   6.273  48.345  1.00  0.00    -0.148 NA
HETATM   13  N3  UNL     1      29.686   6.499  49.021  1.00  0.00    -0.183 N 
HETATM   14  O2  UNL     1      30.174   7.771  48.848  1.00  0.00    -0.259 OA
HETATM   15  C11 UNL     1      29.251   8.618  48.268  1.00  0.00     0.240 C 
HETATM   16  C12 UNL     1      29.844   9.997  48.106  1.00  0.00    -0.018 C 
HETATM   17  C13 UNL     1      29.984  11.005  48.970  1.00  0.00    -0.013 C 
HETATM   18  C14 UNL     1      30.941  12.023  48.420  1.00  0.00     0.085 C 
HETATM   19  C15 UNL     1      31.736  11.202  47.444  1.00  0.00     0.048 C 
HETATM   20  N4  UNL     1      32.993  11.166  47.313  1.00  0.00    -0.290 NA
HETATM   21  C16 UNL     1      33.663  10.339  46.340  1.00  0.00     0.187 C 
HETATM   22  C17 UNL     1      30.461  10.639  46.904  1.00  0.00     0.248 C 
HETATM   23  F1  UNL     1      29.648  11.663  46.472  1.00  0.00    -0.238 F 
HETATM   24  H10 UNL     1      29.058   5.717  49.309  1.00  0.00     0.218 HD
ENDROOT
BRANCH   9  25
HETATM   25  C9  UNL     1      32.711   3.327  46.258  1.00  0.00     0.218 C 
HETATM   26 CL1  UNL     1      33.100   2.230  47.562  1.00  0.00    -0.121 Cl
ENDBRANCH   9  25
TORSDOF 1
ENDMDL
MODEL 7
REMARK VINA RESULT:      -7.3      5.042      7.738
REMARK  1 active torsions:
REMARK  status: ('A' for Active; 'I' for Inactive)
REMARK       I    between atoms: N1_8  and  C8_9 
REMARK    1  A    between atoms: C8_9  and  C9_11 
ROOT
HETATM    1  C1  UNL     1      28.246   7.413  47.442  1.00  0.00     0.050 C 
HETATM    2  C2  UNL     1      27.389   6.411  48.161  1.00  0.00    -0.035 A 
HETATM    3  C3  UNL     1      27.866   5.141  48.527  1.00  0.00     0.009 A 
HETATM    4  C4  UNL     1      27.017   4.275  49.178  1.00  0.00     0.009 A 
HETATM    5  C5  UNL     1      25.722   4.637  49.469  1.00  0.00    -0.036 A 
HETATM    6  C6  UNL     1      25.270   5.881  49.107  1.00  0.00     0.039 A 
HETATM    7  C7  UNL     1      26.067   6.777  48.460  1.00  0.00     0.049 A 
HETATM    8  N1  UNL     1      25.707   8.047  48.021  1.00  0.00    -0.274 N 
HETATM    9  C8  UNL     1      26.499   8.915  48.803  1.00  0.00     0.243 C 
HETATM   10  O1  UNL     1      27.166   8.291  49.710  1.00  0.00    -0.271 OA
HETATM   11  C10 UNL     1      24.931   8.875  47.175  1.00  0.00     0.241 C 
HETATM   12  N2  UNL     1      24.402   7.806  46.698  1.00  0.00    -0.148 NA
HETATM   13  N3  UNL     1      23.435   7.818  45.709  1.00  0.00    -0.183 N 
HETATM   14  O2  UNL     1      23.301   6.557  46.238  1.00  0.00    -0.259 OA
HETATM   15  C11 UNL     1      22.000   6.273  46.603  1.00  0.00     0.240 C 
HETATM   16  C12 UNL     1      21.917   4.877  47.175  1.00  0.00    -0.018 C 
HETATM   17  C13 UNL     1      21.841   3.683  46.583  1.00  0.00    -0.013 C 
HETATM   18  C14 UNL     1      22.129   2.598  47.580  1.00  0.00     0.085 C 
HETATM   19  C15 UNL     1      22.922   3.337  48.620  1.00  0.00     0.048 C 
HETATM   20  N4  UNL     1      24.008   2.979  49.159  1.00  0.00    -0.290 NA
HETATM   21  C16 UNL     1      24.695   3.766  50.152  1.00  0.00     0.187 C 
HETATM   22  C17 UNL     1      21.899   4.427  48.602  1.00  0.00     0.248 C 
HETATM   23  F1  UNL     1      20.659   3.904  48.895  1.00  0.00    -0.238 F 
HETATM   24  H10 UNL     1      23.275   8.652  45.104  1.00  0.00     0.218 HD
ENDROOT
BRANCH   9  25
HETATM   25  C9  UNL     1      26.707  10.410  48.778  1.00  0.00     0.218 C 
HETATM   26 CL1  UNL     1      28.383  10.845  49.014  1.00  0.00    -0.121 Cl
ENDBRANCH   9  25
TORSDOF 1
ENDMDL
MODEL 8
REMARK VINA RESULT:      -7.0      6.069      8.844
REMARK  1 active torsions:
REMARK  status: ('A' for Active; 'I' for Inactive)
REMARK       I    between atoms: N1_8  and  C8_9 
REMARK    1  A    between atoms: C8_9  and  C9_11 
ROOT
HETATM    1  C1  UNL     1      29.387   7.144  47.267  1.00  0.00     0.050 C 
HETATM    2  C2  UNL     1      28.194   6.523  47.934  1.00  0.00    -0.035 A 
HETATM    3  C3  UNL     1      28.201   5.198  48.402  1.00  0.00     0.009 A 
HETATM    4  C4  UNL     1      27.064   4.697  48.995  1.00  0.00     0.009 A 
HETATM    5  C5  UNL     1      25.936   5.474  49.133  1.00  0.00    -0.036 A 
HETATM    6  C6  UNL     1      25.945   6.767  48.673  1.00  0.00     0.039 A 
HETATM    7  C7  UNL     1      27.041   7.312  48.076  1.00  0.00     0.049 A 
HETATM    8  N1  UNL     1      27.151   8.594  47.548  1.00  0.00    -0.274 N 
HETATM    9  C8  UNL     1      28.112   9.220  48.372  1.00  0.00     0.243 C 
HETATM   10  O1  UNL     1      28.460   8.486  49.369  1.00  0.00    -0.271 OA
HETATM   11  C10 UNL     1      26.761   9.561  46.591  1.00  0.00     0.241 C 
HETATM   12  N2  UNL     1      25.957   8.684  46.107  1.00  0.00    -0.148 NA
HETATM   13  N3  UNL     1      25.135   8.929  45.022  1.00  0.00    -0.183 N 
HETATM   14  O2  UNL     1      24.554   7.820  45.587  1.00  0.00    -0.259 OA
HETATM   15  C11 UNL     1      23.206   7.991  45.825  1.00  0.00     0.240 C 
HETATM   16  C12 UNL     1      22.626   6.741  46.444  1.00  0.00    -0.018 C 
HETATM   17  C13 UNL     1      22.219   5.593  45.899  1.00  0.00    -0.013 C 
HETATM   18  C14 UNL     1      22.053   4.550  46.965  1.00  0.00     0.085 C 
HETATM   19  C15 UNL     1      22.950   5.073  48.051  1.00  0.00     0.048 C 
HETATM   20  N4  UNL     1      23.811   4.429  48.715  1.00  0.00    -0.290 NA
HETATM   21  C16 UNL     1      24.628   5.028  49.741  1.00  0.00     0.187 C 
HETATM   22  C17 UNL     1      22.341   6.427  47.878  1.00  0.00     0.248 C 
HETATM   23  F1  UNL     1      20.979   6.349  48.061  1.00  0.00    -0.238 F 
HETATM   24  H10 UNL     1      25.306   9.724  44.368  1.00  0.00     0.218 HD
ENDROOT
BRANCH   9  25
HETATM   25  C9  UNL     1      28.794  10.565  48.305  1.00  0.00     0.218 C 
HETATM   26 CL1  UNL     1      30.472  10.476  48.785  1.00  0.00    -0.121 Cl
ENDBRANCH   9  25
TORSDOF 1
ENDMDL
MODEL 9
REMARK VINA RESULT:      -6.9      9.524     12.098
REMARK  1 active torsions:
REMARK  status: ('A' for Active; 'I' for Inactive)
REMARK       I    between atoms: N1_8  and  C8_9 
REMARK    1  A    between atoms: C8_9  and  C9_11 
ROOT
HETATM    1  C1  UNL     1      31.687   7.628  49.379  1.00  0.00     0.050 C 
HETATM    2  C2  UNL     1      32.379   6.589  48.545  1.00  0.00    -0.035 A 
HETATM    3  C3  UNL     1      33.605   6.017  48.925  1.00  0.00     0.009 A 
HETATM    4  C4  UNL     1      34.182   5.075  48.104  1.00  0.00     0.009 A 
HETATM    5  C5  UNL     1      33.575   4.693  46.929  1.00  0.00    -0.036 A 
HETATM    6  C6  UNL     1      32.377   5.259  46.572  1.00  0.00     0.039 A 
HETATM    7  C7  UNL     1      31.763   6.197  47.347  1.00  0.00     0.049 A 
HETATM    8  N1  UNL     1      30.570   6.855  47.069  1.00  0.00    -0.274 N 
HETATM    9  C8  UNL     1      29.692   6.408  48.080  1.00  0.00     0.243 C 
HETATM   10  O1  UNL     1      30.211   5.487  48.813  1.00  0.00    -0.271 OA
HETATM   11  C10 UNL     1      29.823   7.748  46.264  1.00  0.00     0.241 C 
HETATM   12  N2  UNL     1      30.874   7.892  45.538  1.00  0.00    -0.148 NA
HETATM   13  N3  UNL     1      30.917   8.712  44.425  1.00  0.00    -0.183 N 
HETATM   14  O2  UNL     1      32.008   7.899  44.235  1.00  0.00    -0.259 OA
HETATM   15  C11 UNL     1      32.011   7.300  42.992  1.00  0.00     0.240 C 
HETATM   16  C12 UNL     1      33.232   6.422  42.844  1.00  0.00    -0.018 C 
HETATM   17  C13 UNL     1      34.496   6.713  42.528  1.00  0.00    -0.013 C 
HETATM   18  C14 UNL     1      35.386   5.549  42.852  1.00  0.00     0.085 C 
HETATM   19  C15 UNL     1      34.580   4.824  43.892  1.00  0.00     0.048 C 
HETATM   20  N4  UNL     1      34.981   4.378  45.004  1.00  0.00    -0.290 NA
HETATM   21  C16 UNL     1      34.122   3.694  45.939  1.00  0.00     0.187 C 
HETATM   22  C17 UNL     1      33.374   4.943  43.016  1.00  0.00     0.248 C 
HETATM   23  F1  UNL     1      33.631   4.368  41.792  1.00  0.00    -0.238 F 
HETATM   24  H10 UNL     1      30.209   9.461  44.263  1.00  0.00     0.218 HD
ENDROOT
BRANCH   9  25
HETATM   25  C9  UNL     1      28.282   6.798  48.455  1.00  0.00     0.218 C 
HETATM   26 CL1  UNL     1      27.226   5.411  48.580  1.00  0.00    -0.121 Cl
ENDBRANCH   9  25
TORSDOF 1
ENDMDL
