MODEL 1
REMARK VINA RESULT:     -10.3      0.000      0.000
REMARK  1 active torsions:
REMARK  status: ('A' for Active; 'I' for Inactive)
REMARK    1  A    between atoms: C6_7  and  N1_8 
ROOT
HETATM    1  C1  UNL     1      21.876   1.022  50.594  1.00  0.00     0.072 C 
HETATM    2  C2  UNL     1      22.415   2.004  51.596  1.00  0.00     0.146 A 
HETATM    3  O1  UNL     1      21.480   2.670  52.332  1.00  0.00    -0.360 OA
HETATM    4  C3  UNL     1      20.467   3.265  51.642  1.00  0.00     0.171 C 
HETATM    5  C4  UNL     1      20.702   4.630  51.117  1.00  0.00     0.028 C 
HETATM    6  C5  UNL     1      22.050   4.943  50.580  1.00  0.00     0.038 C 
HETATM    7  C6  UNL     1      23.093   4.337  51.447  1.00  0.00     0.230 C 
HETATM    8  C7  UNL     1      23.379   2.947  50.885  1.00  0.00     0.099 A 
HETATM    9  C8  UNL     1      24.699   2.554  51.414  1.00  0.00     0.015 A 
HETATM   10  C9  UNL     1      24.652   1.631  52.356  1.00  0.00     0.046 A 
HETATM   11  C10 UNL     1      25.373   0.848  53.231  1.00  0.00     0.015 A 
HETATM   12  C11 UNL     1      26.701   1.034  53.337  1.00  0.00     0.024 C 
HETATM   13  C12 UNL     1      27.554   2.006  52.643  1.00  0.00     0.065 C 
HETATM   14  C13 UNL     1      28.667   2.357  53.625  1.00  0.00     0.128 C 
HETATM   15  N2  UNL     1      28.578   1.367  54.661  1.00  0.00    -0.357 N 
HETATM   16  C14 UNL     1      27.737   0.343  54.099  1.00  0.00     0.248 C 
HETATM   17  O2  UNL     1      27.832  -0.893  54.207  1.00  0.00    -0.268 OA
HETATM   18  C15 UNL     1      24.446   0.056  53.840  1.00  0.00     0.004 A 
HETATM   19  C16 UNL     1      24.618  -0.892  54.812  1.00  0.00     0.014 A 
HETATM   20  C17 UNL     1      23.567  -1.603  55.343  1.00  0.00     0.001 A 
HETATM   21  C18 UNL     1      22.288  -1.365  54.897  1.00  0.00     0.002 A 
HETATM   22  C19 UNL     1      22.152  -0.407  53.924  1.00  0.00     0.030 A 
HETATM   23  C20 UNL     1      23.159   0.328  53.358  1.00  0.00     0.049 A 
HETATM   24  N3  UNL     1      23.350   1.297  52.457  1.00  0.00    -0.312 N 
HETATM   25  H19 UNL     1      29.025   1.369  55.621  1.00  0.00     0.162 HD
ENDROOT
BRANCH   7  26
HETATM   26  N1  UNL     1      24.301   5.126  51.583  1.00  0.00     0.083 N 
HETATM   27  H11 UNL     1      24.301   5.611  52.511  1.00  0.00     0.313 HD
HETATM   28  H12 UNL     1      25.163   4.551  51.503  1.00  0.00     0.313 HD
ENDBRANCH   7  26
TORSDOF 1
ENDMDL
MODEL 2
REMARK VINA RESULT:     -10.1      1.820      6.244
REMARK  1 active torsions:
REMARK  status: ('A' for Active; 'I' for Inactive)
REMARK    1  A    between atoms: C6_7  and  N1_8 
ROOT
HETATM    1  C1  UNL     1      26.753   1.740  51.181  1.00  0.00     0.072 C 
HETATM    2  C2  UNL     1      26.249   1.613  52.591  1.00  0.00     0.146 A 
HETATM    3  O1  UNL     1      26.820   2.452  53.501  1.00  0.00    -0.360 OA
HETATM    4  C3  UNL     1      28.182   2.491  53.527  1.00  0.00     0.171 C 
HETATM    5  C4  UNL     1      28.882   1.481  54.355  1.00  0.00     0.028 C 
HETATM    6  C5  UNL     1      28.327   0.105  54.383  1.00  0.00     0.038 C 
HETATM    7  C6  UNL     1      26.844   0.159  54.450  1.00  0.00     0.230 C 
HETATM    8  C7  UNL     1      26.338   0.149  53.011  1.00  0.00     0.099 A 
HETATM    9  C8  UNL     1      24.926  -0.277  53.074  1.00  0.00     0.015 A 
HETATM   10  C9  UNL     1      24.057   0.693  52.859  1.00  0.00     0.046 A 
HETATM   11  C10 UNL     1      22.728   1.040  52.767  1.00  0.00     0.015 A 
HETATM   12  C11 UNL     1      21.787   0.124  53.061  1.00  0.00     0.024 C 
HETATM   13  C12 UNL     1      21.960  -1.263  53.507  1.00  0.00     0.065 C 
HETATM   14  C13 UNL     1      20.777  -1.554  54.426  1.00  0.00     0.128 C 
HETATM   15  N2  UNL     1      19.860  -0.472  54.208  1.00  0.00    -0.357 N 
HETATM   16  C14 UNL     1      20.329   0.150  52.998  1.00  0.00     0.248 C 
HETATM   17  O2  UNL     1      19.669   0.628  52.058  1.00  0.00    -0.268 OA
HETATM   18  C15 UNL     1      22.732   2.357  52.415  1.00  0.00     0.004 A 
HETATM   19  C16 UNL     1      21.677   3.205  52.210  1.00  0.00     0.014 A 
HETATM   20  C17 UNL     1      21.848   4.526  51.872  1.00  0.00     0.001 A 
HETATM   21  C18 UNL     1      23.118   5.036  51.732  1.00  0.00     0.002 A 
HETATM   22  C19 UNL     1      24.152   4.159  51.946  1.00  0.00     0.030 A 
HETATM   23  C20 UNL     1      24.041   2.836  52.282  1.00  0.00     0.049 A 
HETATM   24  N3  UNL     1      24.804   1.775  52.566  1.00  0.00    -0.312 N 
HETATM   25  H19 UNL     1      19.022  -0.186  54.789  1.00  0.00     0.162 HD
ENDROOT
BRANCH   7  26
HETATM   26  N1  UNL     1      26.235  -0.889  55.246  1.00  0.00     0.083 N 
HETATM   27  H11 UNL     1      26.540  -1.824  54.888  1.00  0.00     0.313 HD
HETATM   28  H12 UNL     1      26.480  -0.816  56.253  1.00  0.00     0.313 HD
ENDBRANCH   7  26
TORSDOF 1
ENDMDL
MODEL 3
REMARK VINA RESULT:      -9.2      1.840      4.285
REMARK  1 active torsions:
REMARK  status: ('A' for Active; 'I' for Inactive)
REMARK    1  A    between atoms: C6_7  and  N1_8 
ROOT
HETATM    1  C1  UNL     1      21.545   3.477  52.231  1.00  0.00     0.072 C 
HETATM    2  C2  UNL     1      22.124   2.145  51.841  1.00  0.00     0.146 A 
HETATM    3  O1  UNL     1      21.593   1.574  50.723  1.00  0.00    -0.360 OA
HETATM    4  C3  UNL     1      20.234   1.491  50.665  1.00  0.00     0.171 C 
HETATM    5  C4  UNL     1      19.590   0.317  51.300  1.00  0.00     0.028 C 
HETATM    6  C5  UNL     1      20.161  -0.180  52.576  1.00  0.00     0.038 C 
HETATM    7  C6  UNL     1      21.645  -0.143  52.515  1.00  0.00     0.230 C 
HETATM    8  C7  UNL     1      22.074   1.219  53.051  1.00  0.00     0.099 A 
HETATM    9  C8  UNL     1      23.492   1.081  53.438  1.00  0.00     0.015 A 
HETATM   10  C9  UNL     1      24.337   1.679  52.620  1.00  0.00     0.046 A 
HETATM   11  C10 UNL     1      25.656   1.962  52.342  1.00  0.00     0.015 A 
HETATM   12  C11 UNL     1      26.621   1.406  53.097  1.00  0.00     0.024 C 
HETATM   13  C12 UNL     1      26.488   0.478  54.225  1.00  0.00     0.065 C 
HETATM   14  C13 UNL     1      27.721  -0.419  54.173  1.00  0.00     0.128 C 
HETATM   15  N2  UNL     1      28.613   0.225  53.252  1.00  0.00    -0.357 N 
HETATM   16  C14 UNL     1      28.074   1.552  53.108  1.00  0.00     0.248 C 
HETATM   17  O2  UNL     1      28.678   2.635  53.011  1.00  0.00    -0.268 OA
HETATM   18  C15 UNL     1      25.618   2.768  51.243  1.00  0.00     0.004 A 
HETATM   19  C16 UNL     1      26.651   3.323  50.537  1.00  0.00     0.014 A 
HETATM   20  C17 UNL     1      26.449   4.109  49.427  1.00  0.00     0.001 A 
HETATM   21  C18 UNL     1      25.167   4.356  48.992  1.00  0.00     0.002 A 
HETATM   22  C19 UNL     1      24.156   3.783  49.722  1.00  0.00     0.030 A 
HETATM   23  C20 UNL     1      24.298   2.996  50.833  1.00  0.00     0.049 A 
HETATM   24  N3  UNL     1      23.564   2.306  51.712  1.00  0.00    -0.312 N 
HETATM   25  H19 UNL     1      29.478  -0.165  52.782  1.00  0.00     0.162 HD
ENDROOT
BRANCH   7  26
HETATM   26  N1  UNL     1      22.307  -1.232  53.207  1.00  0.00     0.083 N 
HETATM   27  H11 UNL     1      21.608  -1.761  53.779  1.00  0.00     0.313 HD
HETATM   28  H12 UNL     1      22.777  -1.889  52.555  1.00  0.00     0.313 HD
ENDBRANCH   7  26
TORSDOF 1
ENDMDL
MODEL 4
REMARK VINA RESULT:      -9.2      2.262      4.553
REMARK  1 active torsions:
REMARK  status: ('A' for Active; 'I' for Inactive)
REMARK    1  A    between atoms: C6_7  and  N1_8 
ROOT
HETATM    1  C1  UNL     1      24.203   4.568  51.725  1.00  0.00     0.072 C 
HETATM    2  C2  UNL     1      23.425   3.486  51.031  1.00  0.00     0.146 A 
HETATM    3  O1  UNL     1      23.758   3.261  49.728  1.00  0.00    -0.360 OA
HETATM    4  C3  UNL     1      23.810   4.351  48.912  1.00  0.00     0.171 C 
HETATM    5  C4  UNL     1      22.547   4.796  48.279  1.00  0.00     0.028 C 
HETATM    6  C5  UNL     1      21.303   4.716  49.085  1.00  0.00     0.038 C 
HETATM    7  C6  UNL     1      21.287   3.453  49.868  1.00  0.00     0.230 C 
HETATM    8  C7  UNL     1      21.936   3.762  51.214  1.00  0.00     0.099 A 
HETATM    9  C8  UNL     1      21.499   2.696  52.135  1.00  0.00     0.015 A 
HETATM   10  C9  UNL     1      22.438   1.818  52.433  1.00  0.00     0.046 A 
HETATM   11  C10 UNL     1      22.760   0.678  53.135  1.00  0.00     0.015 A 
HETATM   12  C11 UNL     1      21.792   0.020  53.799  1.00  0.00     0.024 C 
HETATM   13  C12 UNL     1      20.361   0.330  53.886  1.00  0.00     0.065 C 
HETATM   14  C13 UNL     1      19.650  -1.015  54.002  1.00  0.00     0.128 C 
HETATM   15  N2  UNL     1      20.690  -1.964  54.288  1.00  0.00    -0.357 N 
HETATM   16  C14 UNL     1      21.813  -1.150  54.673  1.00  0.00     0.248 C 
HETATM   17  O2  UNL     1      22.658  -1.354  55.563  1.00  0.00    -0.268 OA
HETATM   18  C15 UNL     1      24.089   0.486  52.904  1.00  0.00     0.004 A 
HETATM   19  C16 UNL     1      24.912  -0.515  53.347  1.00  0.00     0.014 A 
HETATM   20  C17 UNL     1      26.243  -0.579  53.008  1.00  0.00     0.001 A 
HETATM   21  C18 UNL     1      26.787   0.386  52.193  1.00  0.00     0.002 A 
HETATM   22  C19 UNL     1      25.933   1.373  51.767  1.00  0.00     0.030 A 
HETATM   23  C20 UNL     1      24.604   1.488  52.072  1.00  0.00     0.049 A 
HETATM   24  N3  UNL     1      23.549   2.270  51.819  1.00  0.00    -0.312 N 
HETATM   25  H19 UNL     1      20.655  -3.020  54.240  1.00  0.00     0.162 HD
ENDROOT
BRANCH   7  26
HETATM   26  N1  UNL     1      19.977   2.853  50.023  1.00  0.00     0.083 N 
HETATM   27  H11 UNL     1      19.250   3.604  50.072  1.00  0.00     0.313 HD
HETATM   28  H12 UNL     1      19.742   2.205  49.245  1.00  0.00     0.313 HD
ENDBRANCH   7  26
TORSDOF 1
ENDMDL
MODEL 5
REMARK VINA RESULT:      -8.7      2.943      4.552
REMARK  1 active torsions:
REMARK  status: ('A' for Active; 'I' for Inactive)
REMARK    1  A    between atoms: C6_7  and  N1_8 
ROOT
HETATM    1  C1  UNL     1      21.561   1.119  49.914  1.00  0.00     0.072 C 
HETATM    2  C2  UNL     1      21.782   2.430  50.615  1.00  0.00     0.146 A 
HETATM    3  O1  UNL     1      21.309   2.504  51.892  1.00  0.00    -0.360 OA
HETATM    4  C3  UNL     1      20.018   2.117  52.089  1.00  0.00     0.171 C 
HETATM    5  C4  UNL     1      18.957   3.129  51.876  1.00  0.00     0.028 C 
HETATM    6  C5  UNL     1      19.126   4.081  50.749  1.00  0.00     0.038 C 
HETATM    7  C6  UNL     1      20.542   4.523  50.667  1.00  0.00     0.230 C 
HETATM    8  C7  UNL     1      21.253   3.552  49.729  1.00  0.00     0.099 A 
HETATM    9  C8  UNL     1      22.477   4.240  49.277  1.00  0.00     0.015 A 
HETATM   10  C9  UNL     1      23.590   3.775  49.812  1.00  0.00     0.046 A 
HETATM   11  C10 UNL     1      24.961   3.885  49.882  1.00  0.00     0.015 A 
HETATM   12  C11 UNL     1      25.573   4.894  49.236  1.00  0.00     0.024 C 
HETATM   13  C12 UNL     1      24.979   5.970  48.436  1.00  0.00     0.065 C 
HETATM   14  C13 UNL     1      25.883   7.183  48.634  1.00  0.00     0.128 C 
HETATM   15  N2  UNL     1      27.072   6.666  49.251  1.00  0.00    -0.357 N 
HETATM   16  C14 UNL     1      26.980   5.243  49.057  1.00  0.00     0.248 C 
HETATM   17  O2  UNL     1      27.883   4.430  48.788  1.00  0.00    -0.268 OA
HETATM   18  C15 UNL     1      25.353   2.870  50.704  1.00  0.00     0.004 A 
HETATM   19  C16 UNL     1      26.610   2.534  51.129  1.00  0.00     0.014 A 
HETATM   20  C17 UNL     1      26.844   1.481  51.981  1.00  0.00     0.001 A 
HETATM   21  C18 UNL     1      25.788   0.726  52.438  1.00  0.00     0.002 A 
HETATM   22  C19 UNL     1      24.542   1.092  51.993  1.00  0.00     0.030 A 
HETATM   23  C20 UNL     1      24.251   2.127  51.145  1.00  0.00     0.049 A 
HETATM   24  N3  UNL     1      23.205   2.728  50.567  1.00  0.00    -0.312 N 
HETATM   25  H19 UNL     1      27.851   7.194  49.735  1.00  0.00     0.162 HD
ENDROOT
BRANCH   7  26
HETATM   26  N1  UNL     1      20.724   5.902  50.260  1.00  0.00     0.083 N 
HETATM   27  H11 UNL     1      21.400   6.373  50.907  1.00  0.00     0.313 HD
HETATM   28  H12 UNL     1      21.075   5.986  49.286  1.00  0.00     0.313 HD
ENDBRANCH   7  26
TORSDOF 1
ENDMDL
MODEL 6
REMARK VINA RESULT:      -8.5      2.008      2.747
REMARK  1 active torsions:
REMARK  status: ('A' for Active; 'I' for Inactive)
REMARK    1  A    between atoms: C6_7  and  N1_8 
ROOT
HETATM    1  C1  UNL     1      19.224   0.839  50.406  1.00  0.00     0.072 C 
HETATM    2  C2  UNL     1      19.892   2.006  51.079  1.00  0.00     0.146 A 
HETATM    3  O1  UNL     1      19.146   2.652  52.020  1.00  0.00    -0.360 OA
HETATM    4  C3  UNL     1      17.887   3.023  51.655  1.00  0.00     0.171 C 
HETATM    5  C4  UNL     1      17.728   4.321  50.960  1.00  0.00     0.028 C 
HETATM    6  C5  UNL     1      18.770   4.714  49.979  1.00  0.00     0.038 C 
HETATM    7  C6  UNL     1      20.116   4.359  50.500  1.00  0.00     0.230 C 
HETATM    8  C7  UNL     1      20.422   2.949  50.004  1.00  0.00     0.099 A 
HETATM    9  C8  UNL     1      21.886   2.790  50.098  1.00  0.00     0.015 A 
HETATM   10  C9  UNL     1      22.284   2.005  51.081  1.00  0.00     0.046 A 
HETATM   11  C10 UNL     1      23.357   1.440  51.734  1.00  0.00     0.015 A 
HETATM   12  C11 UNL     1      24.605   1.794  51.374  1.00  0.00     0.024 C 
HETATM   13  C12 UNL     1      25.031   2.755  50.351  1.00  0.00     0.065 C 
HETATM   14  C13 UNL     1      26.329   3.366  50.870  1.00  0.00     0.128 C 
HETATM   15  N2  UNL     1      26.728   2.524  51.963  1.00  0.00    -0.357 N 
HETATM   16  C14 UNL     1      25.923   1.341  51.808  1.00  0.00     0.248 C 
HETATM   17  O2  UNL     1      26.239   0.151  51.990  1.00  0.00    -0.268 OA
HETATM   18  C15 UNL     1      22.806   0.636  52.686  1.00  0.00     0.004 A 
HETATM   19  C16 UNL     1      23.423  -0.144  53.627  1.00  0.00     0.014 A 
HETATM   20  C17 UNL     1      22.719  -0.893  54.540  1.00  0.00     0.001 A 
HETATM   21  C18 UNL     1      21.344  -0.871  54.526  1.00  0.00     0.002 A 
HETATM   22  C19 UNL     1      20.759  -0.078  53.570  1.00  0.00     0.030 A 
HETATM   23  C20 UNL     1      21.407   0.686  52.637  1.00  0.00     0.049 A 
HETATM   24  N3  UNL     1      21.150   1.538  51.639  1.00  0.00    -0.312 N 
HETATM   25  H19 UNL     1      27.450   2.710  52.714  1.00  0.00     0.162 HD
ENDROOT
BRANCH   7  26
HETATM   26  N1  UNL     1      21.166   5.296  50.154  1.00  0.00     0.083 N 
HETATM   27  H11 UNL     1      20.990   5.683  49.198  1.00  0.00     0.313 HD
HETATM   28  H12 UNL     1      21.235   6.082  50.830  1.00  0.00     0.313 HD
ENDBRANCH   7  26
TORSDOF 1
ENDMDL
MODEL 7
REMARK VINA RESULT:      -8.3      2.299      4.819
REMARK  1 active torsions:
REMARK  status: ('A' for Active; 'I' for Inactive)
REMARK    1  A    between atoms: C6_7  and  N1_8 
ROOT
HETATM    1  C1  UNL     1      22.222   6.317  51.387  1.00  0.00     0.072 C 
HETATM    2  C2  UNL     1      22.118   4.939  50.795  1.00  0.00     0.146 A 
HETATM    3  O1  UNL     1      21.518   4.863  49.572  1.00  0.00    -0.360 OA
HETATM    4  C3  UNL     1      20.313   5.485  49.443  1.00  0.00     0.171 C 
HETATM    5  C4  UNL     1      19.103   4.725  49.834  1.00  0.00     0.028 C 
HETATM    6  C5  UNL     1      19.193   3.846  51.027  1.00  0.00     0.038 C 
HETATM    7  C6  UNL     1      20.499   3.138  51.037  1.00  0.00     0.230 C 
HETATM    8  C7  UNL     1      21.470   4.015  51.821  1.00  0.00     0.099 A 
HETATM    9  C8  UNL     1      22.576   3.133  52.237  1.00  0.00     0.015 A 
HETATM   10  C9  UNL     1      23.701   3.324  51.575  1.00  0.00     0.046 A 
HETATM   11  C10 UNL     1      25.012   2.937  51.406  1.00  0.00     0.015 A 
HETATM   12  C11 UNL     1      25.478   1.878  52.094  1.00  0.00     0.024 C 
HETATM   13  C12 UNL     1      24.767   1.006  53.035  1.00  0.00     0.065 C 
HETATM   14  C13 UNL     1      25.398  -0.375  52.880  1.00  0.00     0.128 C 
HETATM   15  N2  UNL     1      26.599  -0.154  52.125  1.00  0.00    -0.357 N 
HETATM   16  C14 UNL     1      26.801   1.269  52.192  1.00  0.00     0.248 C 
HETATM   17  O2  UNL     1      27.865   1.902  52.312  1.00  0.00    -0.268 OA
HETATM   18  C15 UNL     1      25.512   3.787  50.465  1.00  0.00     0.004 A 
HETATM   19  C16 UNL     1      26.763   3.832  49.912  1.00  0.00     0.014 A 
HETATM   20  C17 UNL     1      27.112   4.750  48.949  1.00  0.00     0.001 A 
HETATM   21  C18 UNL     1      26.182   5.663  48.510  1.00  0.00     0.002 A 
HETATM   22  C19 UNL     1      24.937   5.589  49.084  1.00  0.00     0.030 A 
HETATM   23  C20 UNL     1      24.536   4.700  50.045  1.00  0.00     0.049 A 
HETATM   24  N3  UNL     1      23.454   4.367  50.758  1.00  0.00    -0.312 N 
HETATM   25  H19 UNL     1      27.211  -0.863  51.631  1.00  0.00     0.162 HD
ENDROOT
BRANCH   7  26
HETATM   26  N1  UNL     1      20.450   1.785  51.555  1.00  0.00     0.083 N 
HETATM   27  H11 UNL     1      21.423   1.444  51.737  1.00  0.00     0.313 HD
HETATM   28  H12 UNL     1      19.897   1.716  52.432  1.00  0.00     0.313 HD
ENDBRANCH   7  26
TORSDOF 1
ENDMDL
MODEL 8
REMARK VINA RESULT:      -8.3      8.332     11.634
REMARK  1 active torsions:
REMARK  status: ('A' for Active; 'I' for Inactive)
REMARK    1  A    between atoms: C6_7  and  N1_8 
ROOT
HETATM    1  C1  UNL     1      32.852   8.630  46.186  1.00  0.00     0.072 C 
HETATM    2  C2  UNL     1      32.607   7.953  47.506  1.00  0.00     0.146 A 
HETATM    3  O1  UNL     1      33.457   8.298  48.515  1.00  0.00    -0.360 OA
HETATM    4  C3  UNL     1      34.790   8.241  48.238  1.00  0.00     0.171 C 
HETATM    5  C4  UNL     1      35.472   6.938  48.411  1.00  0.00     0.028 C 
HETATM    6  C5  UNL     1      34.732   5.712  48.020  1.00  0.00     0.038 C 
HETATM    7  C6  UNL     1      33.312   5.821  48.444  1.00  0.00     0.230 C 
HETATM    8  C7  UNL     1      32.551   6.447  47.278  1.00  0.00     0.099 A 
HETATM    9  C8  UNL     1      31.129   6.118  47.493  1.00  0.00     0.015 A 
HETATM   10  C9  UNL     1      30.390   7.138  47.887  1.00  0.00     0.046 A 
HETATM   11  C10 UNL     1      29.134   7.571  48.252  1.00  0.00     0.015 A 
HETATM   12  C11 UNL     1      28.138   6.674  48.367  1.00  0.00     0.024 C 
HETATM   13  C12 UNL     1      28.181   5.220  48.174  1.00  0.00     0.065 C 
HETATM   14  C13 UNL     1      27.160   4.641  49.149  1.00  0.00     0.128 C 
HETATM   15  N2  UNL     1      26.391   5.768  49.597  1.00  0.00    -0.357 N 
HETATM   16  C14 UNL     1      26.715   6.811  48.660  1.00  0.00     0.248 C 
HETATM   17  O2  UNL     1      25.970   7.677  48.167  1.00  0.00    -0.268 OA
HETATM   18  C15 UNL     1      29.271   8.911  48.459  1.00  0.00     0.004 A 
HETATM   19  C16 UNL     1      28.335   9.828  48.857  1.00  0.00     0.014 A 
HETATM   20  C17 UNL     1      28.636  11.157  49.041  1.00  0.00     0.001 A 
HETATM   21  C18 UNL     1      29.920  11.601  48.824  1.00  0.00     0.002 A 
HETATM   22  C19 UNL     1      30.832  10.656  48.427  1.00  0.00     0.030 A 
HETATM   23  C20 UNL     1      30.589   9.323  48.228  1.00  0.00     0.049 A 
HETATM   24  N3  UNL     1      31.223   8.197  47.882  1.00  0.00    -0.312 N 
HETATM   25  H19 UNL     1      25.728   5.833  50.420  1.00  0.00     0.162 HD
ENDROOT
BRANCH   7  26
HETATM   26  N1  UNL     1      32.712   4.575  48.877  1.00  0.00     0.083 N 
HETATM   27  H11 UNL     1      31.687   4.716  49.036  1.00  0.00     0.313 HD
HETATM   28  H12 UNL     1      32.845   3.809  48.187  1.00  0.00     0.313 HD
ENDBRANCH   7  26
TORSDOF 1
ENDMDL
MODEL 9
REMARK VINA RESULT:      -8.3      6.291      9.175
REMARK  1 active torsions:
REMARK  status: ('A' for Active; 'I' for Inactive)
REMARK    1  A    between atoms: C6_7  and  N1_8 
ROOT
HETATM    1  C1  UNL     1      28.799   8.139  45.946  1.00  0.00     0.072 C 
HETATM    2  C2  UNL     1      28.947   7.940  47.429  1.00  0.00     0.146 A 
HETATM    3  O1  UNL     1      29.412   9.016  48.126  1.00  0.00    -0.360 OA
HETATM    4  C3  UNL     1      30.544   9.609  47.652  1.00  0.00     0.171 C 
HETATM    5  C4  UNL     1      31.846   9.049  48.083  1.00  0.00     0.028 C 
HETATM    6  C5  UNL     1      31.957   7.574  48.209  1.00  0.00     0.038 C 
HETATM    7  C6  UNL     1      30.720   7.023  48.820  1.00  0.00     0.230 C 
HETATM    8  C7  UNL     1      29.774   6.683  47.672  1.00  0.00     0.099 A 
HETATM    9  C8  UNL     1      28.793   5.726  48.218  1.00  0.00     0.015 A 
HETATM   10  C9  UNL     1      27.591   6.233  48.413  1.00  0.00     0.046 A 
HETATM   11  C10 UNL     1      26.304   5.999  48.845  1.00  0.00     0.015 A 
HETATM   12  C11 UNL     1      26.002   4.808  49.392  1.00  0.00     0.024 C 
HETATM   13  C12 UNL     1      26.878   3.656  49.636  1.00  0.00     0.065 C 
HETATM   14  C13 UNL     1      26.345   2.989  50.900  1.00  0.00     0.128 C 
HETATM   15  N2  UNL     1      25.055   3.579  51.120  1.00  0.00    -0.357 N 
HETATM   16  C14 UNL     1      24.749   4.231  49.873  1.00  0.00     0.248 C 
HETATM   17  O2  UNL     1      23.658   4.314  49.282  1.00  0.00    -0.268 OA
HETATM   18  C15 UNL     1      25.639   7.166  48.617  1.00  0.00     0.004 A 
HETATM   19  C16 UNL     1      24.335   7.489  48.881  1.00  0.00     0.014 A 
HETATM   20  C17 UNL     1      23.811   8.730  48.606  1.00  0.00     0.001 A 
HETATM   21  C18 UNL     1      24.612   9.699  48.048  1.00  0.00     0.002 A 
HETATM   22  C19 UNL     1      25.914   9.343  47.798  1.00  0.00     0.030 A 
HETATM   23  C20 UNL     1      26.487   8.125  48.049  1.00  0.00     0.049 A 
HETATM   24  N3  UNL     1      27.663   7.496  47.950  1.00  0.00    -0.312 N 
HETATM   25  H19 UNL     1      24.450   3.548  51.988  1.00  0.00     0.162 HD
ENDROOT
BRANCH   7  26
HETATM   26  N1  UNL     1      30.932   5.892  49.702  1.00  0.00     0.083 N 
HETATM   27  H11 UNL     1      30.065   5.306  49.735  1.00  0.00     0.313 HD
HETATM   28  H12 UNL     1      31.730   5.299  49.401  1.00  0.00     0.313 HD
ENDBRANCH   7  26
TORSDOF 1
ENDMDL
