MODEL 1
REMARK VINA RESULT:      -7.8      0.000      0.000
REMARK  6 active torsions:
REMARK  status: ('A' for Active; 'I' for Inactive)
REMARK    1  A    between atoms: C2_2  and  N1_3 
REMARK    2  A    between atoms: C2_2  and  N3_11 
REMARK    3  A    between atoms: C3_4  and  C4_5 
REMARK    4  A    between atoms: N3_11  and  C9_12 
REMARK    5  A    between atoms: C13_16  and  N4_17 
REMARK    6  A    between atoms: C16_20  and  N5_21 
ROOT
HETATM    1  C9  UNL     1      24.398   1.611  52.744  1.00  0.00     0.035 A 
HETATM    2  C10 UNL     1      23.610   0.570  53.212  1.00  0.00     0.029 A 
HETATM    3  C11 UNL     1      24.169  -0.506  53.873  1.00  0.00     0.004 A 
HETATM    4  C12 UNL     1      25.529  -0.537  54.065  1.00  0.00     0.029 A 
HETATM    5  C13 UNL     1      26.348   0.477  53.615  1.00  0.00     0.034 A 
HETATM    6  C17 UNL     1      25.768   1.554  52.951  1.00  0.00     0.058 A 
ENDROOT
BRANCH   1   7
HETATM    7  N3  UNL     1      23.950   2.763  52.054  1.00  0.00    -0.342 N 
HETATM    8  H8  UNL     1      23.231   3.424  52.431  1.00  0.00     0.167 HD
BRANCH   7   9
HETATM    9  C2  UNL     1      24.252   3.372  50.791  1.00  0.00     0.118 C 
HETATM   10  C1  UNL     1      23.443   2.993  49.812  1.00  0.00     0.065 C 
BRANCH   9  11
HETATM   11  N1  UNL     1      25.295   4.301  50.511  1.00  0.00    -0.243 NA
HETATM   12  C3  UNL     1      25.640   4.425  49.280  1.00  0.00     0.132 C 
BRANCH  12  13
HETATM   13  C4  UNL     1      26.693   5.346  48.898  1.00  0.00    -0.001 A 
HETATM   14  C5  UNL     1      27.978   4.955  48.528  1.00  0.00     0.016 A 
HETATM   15  C6  UNL     1      28.946   5.894  48.171  1.00  0.00     0.020 A 
HETATM   16  C7  UNL     1      28.663   7.252  48.171  1.00  0.00     0.116 A 
HETATM   17  N2  UNL     1      27.410   7.595  48.535  1.00  0.00    -0.272 NA
HETATM   18  C8  UNL     1      26.471   6.710  48.880  1.00  0.00     0.129 A 
ENDBRANCH  12  13
ENDBRANCH   9  11
ENDBRANCH   7   9
ENDBRANCH   1   7
BRANCH   5  19
HETATM   19  N4  UNL     1      27.769   0.446  53.814  1.00  0.00    -0.341 N 
HETATM   20  C14 UNL     1      28.939  -0.258  54.298  1.00  0.00     0.135 A 
HETATM   21  C15 UNL     1      29.513  -1.389  53.513  1.00  0.00     0.036 C 
HETATM   22  C16 UNL     1      29.031   1.111  53.659  1.00  0.00     0.342 A 
BRANCH  22  23
HETATM   23  N5  UNL     1      29.442   2.166  54.548  1.00  0.00     0.103 N 
HETATM   24  H17 UNL     1      28.976   2.094  55.494  1.00  0.00     0.315 HD
HETATM   25  H18 UNL     1      29.127   3.070  54.085  1.00  0.00     0.315 HD
ENDBRANCH  22  23
ENDBRANCH   5  19
TORSDOF 6
ENDMDL
MODEL 2
REMARK VINA RESULT:      -7.7      2.266      6.809
REMARK  6 active torsions:
REMARK  status: ('A' for Active; 'I' for Inactive)
REMARK    1  A    between atoms: C2_2  and  N1_3 
REMARK    2  A    between atoms: C2_2  and  N3_11 
REMARK    3  A    between atoms: C3_4  and  C4_5 
REMARK    4  A    between atoms: N3_11  and  C9_12 
REMARK    5  A    between atoms: C13_16  and  N4_17 
REMARK    6  A    between atoms: C16_20  and  N5_21 
ROOT
HETATM    1  C9  UNL     1      22.007   1.008  51.921  1.00  0.00     0.035 A 
HETATM    2  C10 UNL     1      21.488   0.529  50.727  1.00  0.00     0.029 A 
HETATM    3  C11 UNL     1      21.672   1.216  49.543  1.00  0.00     0.004 A 
HETATM    4  C12 UNL     1      22.382   2.393  49.558  1.00  0.00     0.029 A 
HETATM    5  C13 UNL     1      22.914   2.903  50.724  1.00  0.00     0.034 A 
HETATM    6  C17 UNL     1      22.719   2.198  51.908  1.00  0.00     0.058 A 
ENDROOT
BRANCH   1   7
HETATM    7  N3  UNL     1      21.888   0.403  53.195  1.00  0.00    -0.342 N 
HETATM    8  H8  UNL     1      21.149   0.655  53.892  1.00  0.00     0.167 HD
BRANCH   7   9
HETATM    9  C2  UNL     1      22.606  -0.616  53.906  1.00  0.00     0.118 C 
HETATM   10  C1  UNL     1      21.867  -1.673  54.210  1.00  0.00     0.065 C 
BRANCH   9  11
HETATM   11  N1  UNL     1      23.976  -0.589  54.295  1.00  0.00    -0.243 NA
HETATM   12  C3  UNL     1      24.838  -0.446  53.355  1.00  0.00     0.132 C 
BRANCH  12  13
HETATM   13  C4  UNL     1      26.257  -0.408  53.654  1.00  0.00    -0.001 A 
HETATM   14  C5  UNL     1      27.227  -1.107  52.937  1.00  0.00     0.016 A 
HETATM   15  C6  UNL     1      28.576  -1.027  53.277  1.00  0.00     0.020 A 
HETATM   16  C7  UNL     1      29.004  -0.249  54.343  1.00  0.00     0.116 A 
HETATM   17  N2  UNL     1      28.039   0.414  55.016  1.00  0.00    -0.272 NA
HETATM   18  C8  UNL     1      26.742   0.349  54.703  1.00  0.00     0.129 A 
ENDBRANCH  12  13
ENDBRANCH   9  11
ENDBRANCH   7   9
ENDBRANCH   1   7
BRANCH   5  19
HETATM   19  N4  UNL     1      23.655   4.132  50.742  1.00  0.00    -0.341 N 
HETATM   20  C14 UNL     1      24.854   4.864  50.388  1.00  0.00     0.135 A 
HETATM   21  C15 UNL     1      25.067   5.322  48.985  1.00  0.00     0.036 C 
HETATM   22  C16 UNL     1      23.707   5.512  51.133  1.00  0.00     0.342 A 
BRANCH  22  23
HETATM   23  N5  UNL     1      24.010   5.902  52.486  1.00  0.00     0.103 N 
HETATM   24  H17 UNL     1      23.995   6.951  52.610  1.00  0.00     0.315 HD
HETATM   25  H18 UNL     1      24.999   5.555  52.669  1.00  0.00     0.315 HD
ENDBRANCH  22  23
ENDBRANCH   5  19
TORSDOF 6
ENDMDL
MODEL 3
REMARK VINA RESULT:      -7.7      2.088      6.040
REMARK  6 active torsions:
REMARK  status: ('A' for Active; 'I' for Inactive)
REMARK    1  A    between atoms: C2_2  and  N1_3 
REMARK    2  A    between atoms: C2_2  and  N3_11 
REMARK    3  A    between atoms: C3_4  and  C4_5 
REMARK    4  A    between atoms: N3_11  and  C9_12 
REMARK    5  A    between atoms: C13_16  and  N4_17 
REMARK    6  A    between atoms: C16_20  and  N5_21 
ROOT
HETATM    1  C9  UNL     1      23.439   2.647  50.073  1.00  0.00     0.035 A 
HETATM    2  C10 UNL     1      22.670   2.380  48.950  1.00  0.00     0.029 A 
HETATM    3  C11 UNL     1      21.668   1.430  48.982  1.00  0.00     0.004 A 
HETATM    4  C12 UNL     1      21.437   0.743  50.149  1.00  0.00     0.029 A 
HETATM    5  C13 UNL     1      22.178   0.979  51.288  1.00  0.00     0.034 A 
HETATM    6  C17 UNL     1      23.184   1.939  51.239  1.00  0.00     0.058 A 
ENDROOT
BRANCH   1   7
HETATM    7  N3  UNL     1      24.490   3.589  50.170  1.00  0.00    -0.342 N 
HETATM    8  H8  UNL     1      24.344   4.604  50.383  1.00  0.00     0.167 HD
BRANCH   7   9
HETATM    9  C2  UNL     1      25.918   3.536  50.038  1.00  0.00     0.118 C 
HETATM   10  C1  UNL     1      26.399   4.370  49.128  1.00  0.00     0.065 C 
BRANCH   9  11
HETATM   11  N1  UNL     1      26.818   2.703  50.764  1.00  0.00    -0.243 NA
HETATM   12  C3  UNL     1      26.517   2.461  51.988  1.00  0.00     0.132 C 
BRANCH  12  13
HETATM   13  C4  UNL     1      27.374   1.625  52.807  1.00  0.00    -0.001 A 
HETATM   14  C5  UNL     1      27.353   0.231  52.791  1.00  0.00     0.016 A 
HETATM   15  C6  UNL     1      28.204  -0.515  53.605  1.00  0.00     0.020 A 
HETATM   16  C7  UNL     1      29.104   0.103  54.461  1.00  0.00     0.116 A 
HETATM   17  N2  UNL     1      29.097   1.453  54.452  1.00  0.00    -0.272 NA
HETATM   18  C8  UNL     1      28.289   2.183  53.678  1.00  0.00     0.129 A 
ENDBRANCH  12  13
ENDBRANCH   9  11
ENDBRANCH   7   9
ENDBRANCH   1   7
BRANCH   5  19
HETATM   19  N4  UNL     1      21.939   0.261  52.507  1.00  0.00    -0.341 N 
HETATM   20  C14 UNL     1      22.268  -0.847  53.381  1.00  0.00     0.135 A 
HETATM   21  C15 UNL     1      23.499  -0.800  54.220  1.00  0.00     0.036 C 
HETATM   22  C16 UNL     1      21.188   0.156  53.726  1.00  0.00     0.342 A 
BRANCH  22  23
HETATM   23  N5  UNL     1      19.851  -0.379  53.745  1.00  0.00     0.103 N 
HETATM   24  H17 UNL     1      19.119   0.382  53.775  1.00  0.00     0.315 HD
HETATM   25  H18 UNL     1      19.783  -0.947  54.642  1.00  0.00     0.315 HD
ENDBRANCH  22  23
ENDBRANCH   5  19
TORSDOF 6
ENDMDL
MODEL 4
REMARK VINA RESULT:      -7.5      3.739      7.857
REMARK  6 active torsions:
REMARK  status: ('A' for Active; 'I' for Inactive)
REMARK    1  A    between atoms: C2_2  and  N1_3 
REMARK    2  A    between atoms: C2_2  and  N3_11 
REMARK    3  A    between atoms: C3_4  and  C4_5 
REMARK    4  A    between atoms: N3_11  and  C9_12 
REMARK    5  A    between atoms: C13_16  and  N4_17 
REMARK    6  A    between atoms: C16_20  and  N5_21 
ROOT
HETATM    1  C9  UNL     1      22.490   0.280  52.813  1.00  0.00     0.035 A 
HETATM    2  C10 UNL     1      22.759  -0.446  53.964  1.00  0.00     0.029 A 
HETATM    3  C11 UNL     1      21.760  -1.142  54.618  1.00  0.00     0.004 A 
HETATM    4  C12 UNL     1      20.483  -1.107  54.113  1.00  0.00     0.029 A 
HETATM    5  C13 UNL     1      20.174  -0.398  52.971  1.00  0.00     0.034 A 
HETATM    6  C17 UNL     1      21.192   0.297  52.324  1.00  0.00     0.058 A 
ENDROOT
BRANCH   1   7
HETATM    7  N3  UNL     1      23.419   1.031  52.054  1.00  0.00    -0.342 N 
HETATM    8  H8  UNL     1      23.317   1.219  51.030  1.00  0.00     0.167 HD
BRANCH   7   9
HETATM    9  C2  UNL     1      24.649   1.711  52.340  1.00  0.00     0.118 C 
HETATM   10  C1  UNL     1      24.588   3.021  52.153  1.00  0.00     0.065 C 
BRANCH   9  11
HETATM   11  N1  UNL     1      25.871   1.129  52.786  1.00  0.00    -0.243 NA
HETATM   12  C3  UNL     1      26.116  -0.067  52.389  1.00  0.00     0.132 C 
BRANCH  12  13
HETATM   13  C4  UNL     1      27.335  -0.743  52.792  1.00  0.00    -0.001 A 
HETATM   14  C5  UNL     1      28.475  -0.090  53.256  1.00  0.00     0.016 A 
HETATM   15  C6  UNL     1      29.616  -0.800  53.627  1.00  0.00     0.020 A 
HETATM   16  C7  UNL     1      29.657  -2.185  53.548  1.00  0.00     0.116 A 
HETATM   17  N2  UNL     1      28.537  -2.785  53.094  1.00  0.00    -0.272 NA
HETATM   18  C8  UNL     1      27.435  -2.120  52.734  1.00  0.00     0.129 A 
ENDBRANCH  12  13
ENDBRANCH   9  11
ENDBRANCH   7   9
ENDBRANCH   1   7
BRANCH   5  19
HETATM   19  N4  UNL     1      18.840  -0.360  52.442  1.00  0.00    -0.341 N 
HETATM   20  C14 UNL     1      17.819   0.350  51.698  1.00  0.00     0.135 A 
HETATM   21  C15 UNL     1      17.889   0.422  50.211  1.00  0.00     0.036 C 
HETATM   22  C16 UNL     1      17.577  -1.023  52.287  1.00  0.00     0.342 A 
BRANCH  22  23
HETATM   23  N5  UNL     1      16.608  -1.061  53.353  1.00  0.00     0.103 N 
HETATM   24  H17 UNL     1      16.768  -1.875  54.007  1.00  0.00     0.315 HD
HETATM   25  H18 UNL     1      15.666  -1.190  52.877  1.00  0.00     0.315 HD
ENDBRANCH  22  23
ENDBRANCH   5  19
TORSDOF 6
ENDMDL
MODEL 5
REMARK VINA RESULT:      -7.4      1.856      6.497
REMARK  6 active torsions:
REMARK  status: ('A' for Active; 'I' for Inactive)
REMARK    1  A    between atoms: C2_2  and  N1_3 
REMARK    2  A    between atoms: C2_2  and  N3_11 
REMARK    3  A    between atoms: C3_4  and  C4_5 
REMARK    4  A    between atoms: N3_11  and  C9_12 
REMARK    5  A    between atoms: C13_16  and  N4_17 
REMARK    6  A    between atoms: C16_20  and  N5_21 
ROOT
HETATM    1  C9  UNL     1      22.574   1.921  50.837  1.00  0.00     0.035 A 
HETATM    2  C10 UNL     1      22.158   1.563  49.563  1.00  0.00     0.029 A 
HETATM    3  C11 UNL     1      22.452   2.354  48.469  1.00  0.00     0.004 A 
HETATM    4  C12 UNL     1      23.166   3.512  48.655  1.00  0.00     0.029 A 
HETATM    5  C13 UNL     1      23.598   3.904  49.906  1.00  0.00     0.034 A 
HETATM    6  C17 UNL     1      23.294   3.096  50.997  1.00  0.00     0.058 A 
ENDROOT
BRANCH   1   7
HETATM    7  N3  UNL     1      22.338   1.203  52.033  1.00  0.00    -0.342 N 
HETATM    8  H8  UNL     1      21.460   1.284  52.597  1.00  0.00     0.167 HD
BRANCH   7   9
HETATM    9  C2  UNL     1      23.079   0.249  52.807  1.00  0.00     0.118 C 
HETATM   10  C1  UNL     1      22.315  -0.615  53.460  1.00  0.00     0.065 C 
BRANCH   9  11
HETATM   11  N1  UNL     1      24.495   0.155  52.930  1.00  0.00    -0.243 NA
HETATM   12  C3  UNL     1      25.080   1.097  53.575  1.00  0.00     0.132 C 
BRANCH  12  13
HETATM   13  C4  UNL     1      26.520   1.088  53.751  1.00  0.00    -0.001 A 
HETATM   14  C5  UNL     1      27.191   0.277  54.665  1.00  0.00     0.016 A 
HETATM   15  C6  UNL     1      28.580   0.317  54.785  1.00  0.00     0.020 A 
HETATM   16  C7  UNL     1      29.345   1.166  53.998  1.00  0.00     0.116 A 
HETATM   17  N2  UNL     1      28.663   1.937  53.125  1.00  0.00    -0.272 NA
HETATM   18  C8  UNL     1      27.333   1.911  52.997  1.00  0.00     0.129 A 
ENDBRANCH  12  13
ENDBRANCH   9  11
ENDBRANCH   7   9
ENDBRANCH   1   7
BRANCH   5  19
HETATM   19  N4  UNL     1      24.344   5.114  50.103  1.00  0.00    -0.341 N 
HETATM   20  C14 UNL     1      25.594   5.836  49.976  1.00  0.00     0.135 A 
HETATM   21  C15 UNL     1      26.027   6.360  48.649  1.00  0.00     0.036 C 
HETATM   22  C16 UNL     1      24.355   6.470  50.570  1.00  0.00     0.342 A 
BRANCH  22  23
HETATM   23  N5  UNL     1      24.450   6.785  51.972  1.00  0.00     0.103 N 
HETATM   24  H17 UNL     1      24.070   7.746  52.191  1.00  0.00     0.315 HD
HETATM   25  H18 UNL     1      25.490   6.774  52.198  1.00  0.00     0.315 HD
ENDBRANCH  22  23
ENDBRANCH   5  19
TORSDOF 6
ENDMDL
MODEL 6
REMARK VINA RESULT:      -7.1      3.642      6.402
REMARK  6 active torsions:
REMARK  status: ('A' for Active; 'I' for Inactive)
REMARK    1  A    between atoms: C2_2  and  N1_3 
REMARK    2  A    between atoms: C2_2  and  N3_11 
REMARK    3  A    between atoms: C3_4  and  C4_5 
REMARK    4  A    between atoms: N3_11  and  C9_12 
REMARK    5  A    between atoms: C13_16  and  N4_17 
REMARK    6  A    between atoms: C16_20  and  N5_21 
ROOT
HETATM    1  C9  UNL     1      24.372   0.420  52.766  1.00  0.00     0.035 A 
HETATM    2  C10 UNL     1      24.196   1.474  51.882  1.00  0.00     0.029 A 
HETATM    3  C11 UNL     1      25.254   2.285  51.519  1.00  0.00     0.004 A 
HETATM    4  C12 UNL     1      26.497   2.036  52.049  1.00  0.00     0.029 A 
HETATM    5  C13 UNL     1      26.715   0.998  52.931  1.00  0.00     0.034 A 
HETATM    6  C17 UNL     1      25.638   0.191  53.286  1.00  0.00     0.058 A 
ENDROOT
BRANCH   1   7
HETATM    7  N3  UNL     1      23.376  -0.478  53.216  1.00  0.00    -0.342 N 
HETATM    8  H8  UNL     1      23.496  -1.518  53.238  1.00  0.00     0.167 HD
BRANCH   7   9
HETATM    9  C2  UNL     1      22.043  -0.342  53.729  1.00  0.00     0.118 C 
HETATM   10  C1  UNL     1      21.894  -0.820  54.956  1.00  0.00     0.065 C 
BRANCH   9  11
HETATM   11  N1  UNL     1      20.920   0.233  53.066  1.00  0.00    -0.243 NA
HETATM   12  C3  UNL     1      20.818   0.006  51.807  1.00  0.00     0.132 C 
BRANCH  12  13
HETATM   13  C4  UNL     1      19.710   0.551  51.046  1.00  0.00    -0.001 A 
HETATM   14  C5  UNL     1      18.383   0.155  51.204  1.00  0.00     0.016 A 
HETATM   15  C6  UNL     1      17.362   0.719  50.440  1.00  0.00     0.020 A 
HETATM   16  C7  UNL     1      17.631   1.696  49.493  1.00  0.00     0.116 A 
HETATM   17  N2  UNL     1      18.926   2.056  49.365  1.00  0.00    -0.272 NA
HETATM   18  C8  UNL     1      19.916   1.526  50.089  1.00  0.00     0.129 A 
ENDBRANCH  12  13
ENDBRANCH   9  11
ENDBRANCH   7   9
ENDBRANCH   1   7
BRANCH   5  19
HETATM   19  N4  UNL     1      28.012   0.737  53.486  1.00  0.00    -0.341 N 
HETATM   20  C14 UNL     1      28.894  -0.149  54.218  1.00  0.00     0.135 A 
HETATM   21  C15 UNL     1      29.474  -1.350  53.552  1.00  0.00     0.036 C 
HETATM   22  C16 UNL     1      29.357   1.193  53.693  1.00  0.00     0.342 A 
BRANCH  22  23
HETATM   23  N5  UNL     1      29.678   2.161  54.710  1.00  0.00     0.103 N 
HETATM   24  H17 UNL     1      29.138   1.994  55.603  1.00  0.00     0.315 HD
HETATM   25  H18 UNL     1      29.385   3.103  54.311  1.00  0.00     0.315 HD
ENDBRANCH  22  23
ENDBRANCH   5  19
TORSDOF 6
ENDMDL
MODEL 7
REMARK VINA RESULT:      -7.1      2.058      2.783
REMARK  6 active torsions:
REMARK  status: ('A' for Active; 'I' for Inactive)
REMARK    1  A    between atoms: C2_2  and  N1_3 
REMARK    2  A    between atoms: C2_2  and  N3_11 
REMARK    3  A    between atoms: C3_4  and  C4_5 
REMARK    4  A    between atoms: N3_11  and  C9_12 
REMARK    5  A    between atoms: C13_16  and  N4_17 
REMARK    6  A    between atoms: C16_20  and  N5_21 
ROOT
HETATM    1  C9  UNL     1      22.189   1.703  51.872  1.00  0.00     0.035 A 
HETATM    2  C10 UNL     1      21.055   0.916  52.007  1.00  0.00     0.029 A 
HETATM    3  C11 UNL     1      21.091  -0.273  52.708  1.00  0.00     0.004 A 
HETATM    4  C12 UNL     1      22.275  -0.676  53.277  1.00  0.00     0.029 A 
HETATM    5  C13 UNL     1      23.425   0.077  53.166  1.00  0.00     0.034 A 
HETATM    6  C17 UNL     1      23.371   1.272  52.456  1.00  0.00     0.058 A 
ENDROOT
BRANCH   1   7
HETATM    7  N3  UNL     1      22.284   2.935  51.182  1.00  0.00    -0.342 N 
HETATM    8  H8  UNL     1      21.618   3.234  50.432  1.00  0.00     0.167 HD
BRANCH   7   9
HETATM    9  C2  UNL     1      23.172   4.060  51.230  1.00  0.00     0.118 C 
HETATM   10  C1  UNL     1      22.696   5.084  51.924  1.00  0.00     0.065 C 
BRANCH   9  11
HETATM   11  N1  UNL     1      24.458   4.168  50.627  1.00  0.00    -0.243 NA
HETATM   12  C3  UNL     1      24.733   5.283  50.054  1.00  0.00     0.132 C 
BRANCH  12  13
HETATM   13  C4  UNL     1      26.018   5.486  49.412  1.00  0.00    -0.001 A 
HETATM   14  C5  UNL     1      26.481   6.720  48.960  1.00  0.00     0.016 A 
HETATM   15  C6  UNL     1      27.728   6.847  48.349  1.00  0.00     0.020 A 
HETATM   16  C7  UNL     1      28.555   5.747  48.170  1.00  0.00     0.116 A 
HETATM   17  N2  UNL     1      28.076   4.568  48.619  1.00  0.00    -0.272 NA
HETATM   18  C8  UNL     1      26.884   4.429  49.206  1.00  0.00     0.129 A 
ENDBRANCH  12  13
ENDBRANCH   9  11
ENDBRANCH   7   9
ENDBRANCH   1   7
BRANCH   5  19
HETATM   19  N4  UNL     1      24.663  -0.343  53.759  1.00  0.00    -0.341 N 
HETATM   20  C14 UNL     1      25.940  -1.013  53.622  1.00  0.00     0.135 A 
HETATM   21  C15 UNL     1      27.069  -0.341  52.916  1.00  0.00     0.036 C 
HETATM   22  C16 UNL     1      25.499  -0.382  54.925  1.00  0.00     0.342 A 
BRANCH  22  23
HETATM   23  N5  UNL     1      25.257  -1.314  55.996  1.00  0.00     0.103 N 
HETATM   24  H17 UNL     1      24.239  -1.586  56.064  1.00  0.00     0.315 HD
HETATM   25  H18 UNL     1      25.530  -0.802  56.887  1.00  0.00     0.315 HD
ENDBRANCH  22  23
ENDBRANCH   5  19
TORSDOF 6
ENDMDL
MODEL 8
REMARK VINA RESULT:      -7.1      2.556      8.020
REMARK  6 active torsions:
REMARK  status: ('A' for Active; 'I' for Inactive)
REMARK    1  A    between atoms: C2_2  and  N1_3 
REMARK    2  A    between atoms: C2_2  and  N3_11 
REMARK    3  A    between atoms: C3_4  and  C4_5 
REMARK    4  A    between atoms: N3_11  and  C9_12 
REMARK    5  A    between atoms: C13_16  and  N4_17 
REMARK    6  A    between atoms: C16_20  and  N5_21 
ROOT
HETATM    1  C9  UNL     1      26.209   2.986  50.957  1.00  0.00     0.035 A 
HETATM    2  C10 UNL     1      26.753   3.563  49.819  1.00  0.00     0.029 A 
HETATM    3  C11 UNL     1      26.037   4.477  49.071  1.00  0.00     0.004 A 
HETATM    4  C12 UNL     1      24.765   4.812  49.468  1.00  0.00     0.029 A 
HETATM    5  C13 UNL     1      24.188   4.261  50.593  1.00  0.00     0.034 A 
HETATM    6  C17 UNL     1      24.923   3.342  51.335  1.00  0.00     0.058 A 
ENDROOT
BRANCH   1   7
HETATM    7  N3  UNL     1      26.835   2.041  51.805  1.00  0.00    -0.342 N 
HETATM    8  H8  UNL     1      27.777   2.183  52.239  1.00  0.00     0.167 HD
BRANCH   7   9
HETATM    9  C2  UNL     1      26.487   0.746  52.314  1.00  0.00     0.118 C 
HETATM   10  C1  UNL     1      27.532   0.031  52.706  1.00  0.00     0.065 C 
BRANCH   9  11
HETATM   11  N1  UNL     1      25.181   0.189  52.429  1.00  0.00    -0.243 NA
HETATM   12  C3  UNL     1      24.641   0.224  53.593  1.00  0.00     0.132 C 
BRANCH  12  13
HETATM   13  C4  UNL     1      23.313  -0.319  53.807  1.00  0.00    -0.001 A 
HETATM   14  C5  UNL     1      22.210  -0.028  53.006  1.00  0.00     0.016 A 
HETATM   15  C6  UNL     1      20.959  -0.585  53.267  1.00  0.00     0.020 A 
HETATM   16  C7  UNL     1      20.766  -1.450  54.335  1.00  0.00     0.116 A 
HETATM   17  N2  UNL     1      21.854  -1.709  55.090  1.00  0.00    -0.272 NA
HETATM   18  C8  UNL     1      23.061  -1.185  54.854  1.00  0.00     0.129 A 
ENDBRANCH  12  13
ENDBRANCH   9  11
ENDBRANCH   7   9
ENDBRANCH   1   7
BRANCH   5  19
HETATM   19  N4  UNL     1      22.859   4.610  51.008  1.00  0.00    -0.341 N 
HETATM   20  C14 UNL     1      21.434   4.356  50.951  1.00  0.00     0.135 A 
HETATM   21  C15 UNL     1      20.845   3.211  51.705  1.00  0.00     0.036 C 
HETATM   22  C16 UNL     1      22.018   5.474  51.787  1.00  0.00     0.342 A 
BRANCH  22  23
HETATM   23  N5  UNL     1      21.680   6.801  51.341  1.00  0.00     0.103 N 
HETATM   24  H17 UNL     1      20.699   7.076  51.621  1.00  0.00     0.315 HD
HETATM   25  H18 UNL     1      21.730   6.767  50.279  1.00  0.00     0.315 HD
ENDBRANCH  22  23
ENDBRANCH   5  19
TORSDOF 6
ENDMDL
MODEL 9
REMARK VINA RESULT:      -7.0      2.048      4.005
REMARK  6 active torsions:
REMARK  status: ('A' for Active; 'I' for Inactive)
REMARK    1  A    between atoms: C2_2  and  N1_3 
REMARK    2  A    between atoms: C2_2  and  N3_11 
REMARK    3  A    between atoms: C3_4  and  C4_5 
REMARK    4  A    between atoms: N3_11  and  C9_12 
REMARK    5  A    between atoms: C13_16  and  N4_17 
REMARK    6  A    between atoms: C16_20  and  N5_21 
ROOT
HETATM    1  C9  UNL     1      26.017   1.774  51.921  1.00  0.00     0.035 A 
HETATM    2  C10 UNL     1      27.019   0.835  52.119  1.00  0.00     0.029 A 
HETATM    3  C11 UNL     1      26.746  -0.388  52.699  1.00  0.00     0.004 A 
HETATM    4  C12 UNL     1      25.458  -0.671  53.084  1.00  0.00     0.029 A 
HETATM    5  C13 UNL     1      24.433   0.234  52.906  1.00  0.00     0.034 A 
HETATM    6  C17 UNL     1      24.725   1.462  52.320  1.00  0.00     0.058 A 
ENDROOT
BRANCH   1   7
HETATM    7  N3  UNL     1      26.165   3.057  51.342  1.00  0.00    -0.342 N 
HETATM    8  H8  UNL     1      26.315   3.932  51.897  1.00  0.00     0.167 HD
BRANCH   7   9
HETATM    9  C2  UNL     1      26.169   3.572  50.003  1.00  0.00     0.118 C 
HETATM   10  C1  UNL     1      25.002   3.457  49.386  1.00  0.00     0.065 C 
BRANCH   9  11
HETATM   11  N1  UNL     1      27.265   4.167  49.314  1.00  0.00    -0.243 NA
HETATM   12  C3  UNL     1      27.104   5.376  48.915  1.00  0.00     0.132 C 
BRANCH  12  13
HETATM   13  C4  UNL     1      28.164   6.066  48.203  1.00  0.00    -0.001 A 
HETATM   14  C5  UNL     1      29.491   5.641  48.174  1.00  0.00     0.016 A 
HETATM   15  C6  UNL     1      30.463   6.351  47.469  1.00  0.00     0.020 A 
HETATM   16  C7  UNL     1      30.143   7.507  46.772  1.00  0.00     0.116 A 
HETATM   17  N2  UNL     1      28.850   7.889  46.822  1.00  0.00    -0.272 NA
HETATM   18  C8  UNL     1      27.906   7.221  47.492  1.00  0.00     0.129 A 
ENDBRANCH  12  13
ENDBRANCH   9  11
ENDBRANCH   7   9
ENDBRANCH   1   7
BRANCH   5  19
HETATM   19  N4  UNL     1      23.087  -0.059  53.309  1.00  0.00    -0.341 N 
HETATM   20  C14 UNL     1      21.773   0.418  53.689  1.00  0.00     0.135 A 
HETATM   21  C15 UNL     1      20.833   0.934  52.653  1.00  0.00     0.036 C 
HETATM   22  C16 UNL     1      22.103  -1.057  53.615  1.00  0.00     0.342 A 
BRANCH  22  23
HETATM   23  N5  UNL     1      22.091  -1.743  54.881  1.00  0.00     0.103 N 
HETATM   24  H17 UNL     1      22.636  -1.222  55.620  1.00  0.00     0.315 HD
HETATM   25  H18 UNL     1      22.569  -2.677  54.705  1.00  0.00     0.315 HD
ENDBRANCH  22  23
ENDBRANCH   5  19
TORSDOF 6
ENDMDL
