MODEL 1
REMARK VINA RESULT:      -8.0      0.000      0.000
REMARK  5 active torsions:
REMARK  status: ('A' for Active; 'I' for Inactive)
REMARK    1  A    between atoms: C5_5  and  C6_6 
REMARK    2  A    between atoms: C7_8  and  N1_9 
REMARK    3  A    between atoms: C11_14  and  C12_15 
REMARK    4  A    between atoms: C12_15  and  C13_16 
REMARK    5  A    between atoms: C16_21  and  O3_22 
ROOT
HETATM    1  C1  UNL     1      24.047  -1.186  55.110  1.00  0.00     0.043 C 
HETATM    2  C2  UNL     1      23.559  -0.832  53.734  1.00  0.00     0.220 C 
HETATM    3  C3  UNL     1      22.853   0.510  53.732  1.00  0.00     0.063 C 
HETATM    4  C4  UNL     1      22.402   0.699  52.334  1.00  0.00    -0.013 C 
HETATM    5  C5  UNL     1      23.004   1.516  51.495  1.00  0.00    -0.007 C 
HETATM    6  C7  UNL     1      24.129   2.427  51.377  1.00  0.00     0.200 C 
HETATM    7  C16 UNL     1      24.922   2.272  52.657  1.00  0.00     0.079 C 
HETATM    8  C17 UNL     1      25.589   1.260  53.239  1.00  0.00     0.012 C 
HETATM    9  C18 UNL     1      26.209   1.710  54.547  1.00  0.00     0.308 C 
HETATM   10  N4  UNL     1      27.342   0.872  54.814  1.00  0.00     0.087 N 
HETATM   11  C19 UNL     1      27.853   0.359  53.538  1.00  0.00     0.272 C 
HETATM   12  C20 UNL     1      26.929  -0.753  53.093  1.00  0.00     0.070 C 
HETATM   13  C21 UNL     1      25.641  -0.071  52.652  1.00  0.00     0.255 C 
HETATM   14  N5  UNL     1      24.519  -0.910  52.685  1.00  0.00     0.096 N 
HETATM   15  H23 UNL     1      27.001   0.094  55.434  1.00  0.00     0.316 HD
HETATM   16  H29 UNL     1      24.839  -1.906  52.625  1.00  0.00     0.317 HD
ENDROOT
BRANCH   6  17
HETATM   17  N1  UNL     1      23.840   3.800  51.123  1.00  0.00    -0.268 N 
HETATM   18  C8  UNL     1      22.584   4.284  51.607  1.00  0.00     0.227 A 
HETATM   19  N2  UNL     1      22.137   5.463  51.428  1.00  0.00    -0.253 NA
HETATM   20  C9  UNL     1      22.874   6.428  50.709  1.00  0.00     0.145 A 
HETATM   21  C10 UNL     1      24.063   6.095  50.211  1.00  0.00     0.051 A 
HETATM   22  C11 UNL     1      25.030   6.880  49.434  1.00  0.00     0.046 C 
HETATM   23  N3  UNL     1      24.571   4.752  50.416  1.00  0.00    -0.290 N 
HETATM   24  C14 UNL     1      25.797   5.778  48.697  1.00  0.00     0.033 C 
HETATM   25  C15 UNL     1      25.859   4.659  49.768  1.00  0.00     0.150 C 
BRANCH  22  26
HETATM   26  C12 UNL     1      26.025   7.655  50.226  1.00  0.00     0.080 C 
BRANCH  26  27
HETATM   27  C13 UNL     1      25.924   9.104  49.950  1.00  0.00     0.231 C 
HETATM   28  O2  UNL     1      26.723   9.969  50.266  1.00  0.00    -0.307 OA
ENDBRANCH  26  27
ENDBRANCH  22  26
ENDBRANCH   6  17
BRANCH   5  29
HETATM   29  C6  UNL     1      22.377   1.547  50.156  1.00  0.00     0.387 C 
HETATM   30  O1  UNL     1      21.899   1.354  49.014  1.00  0.00    -0.405 OA
ENDBRANCH   5  29
BRANCH   7  31
HETATM   31  O3  UNL     1      24.899   3.526  53.321  1.00  0.00    -0.362 OA
HETATM   32  H20 UNL     1      24.426   3.607  54.187  1.00  0.00     0.217 HD
ENDBRANCH   7  31
TORSDOF 5
ENDMDL
MODEL 2
REMARK VINA RESULT:      -7.2      2.726      6.935
REMARK  5 active torsions:
REMARK  status: ('A' for Active; 'I' for Inactive)
REMARK    1  A    between atoms: C5_5  and  C6_6 
REMARK    2  A    between atoms: C7_8  and  N1_9 
REMARK    3  A    between atoms: C11_14  and  C12_15 
REMARK    4  A    between atoms: C12_15  and  C13_16 
REMARK    5  A    between atoms: C16_21  and  O3_22 
ROOT
HETATM    1  C1  UNL     1      17.954   3.042  50.586  1.00  0.00     0.043 C 
HETATM    2  C2  UNL     1      19.060   3.764  51.299  1.00  0.00     0.220 C 
HETATM    3  C3  UNL     1      20.038   2.788  51.924  1.00  0.00     0.063 C 
HETATM    4  C4  UNL     1      21.034   3.638  52.613  1.00  0.00    -0.013 C 
HETATM    5  C5  UNL     1      22.243   3.852  52.134  1.00  0.00    -0.007 C 
HETATM    6  C7  UNL     1      23.106   3.556  51.005  1.00  0.00     0.200 C 
HETATM    7  C16 UNL     1      22.237   2.831  49.999  1.00  0.00     0.079 C 
HETATM    8  C17 UNL     1      21.142   3.155  49.289  1.00  0.00     0.012 C 
HETATM    9  C18 UNL     1      20.706   1.994  48.418  1.00  0.00     0.308 C 
HETATM   10  N4  UNL     1      19.982   2.525  47.300  1.00  0.00     0.087 N 
HETATM   11  C19 UNL     1      20.437   3.899  47.058  1.00  0.00     0.272 C 
HETATM   12  C20 UNL     1      19.792   4.781  48.105  1.00  0.00     0.070 C 
HETATM   13  C21 UNL     1      20.496   4.453  49.415  1.00  0.00     0.255 C 
HETATM   14  N5  UNL     1      19.741   4.768  50.554  1.00  0.00     0.096 N 
HETATM   15  H23 UNL     1      18.963   2.496  47.561  1.00  0.00     0.316 HD
HETATM   16  H29 UNL     1      19.038   5.504  50.302  1.00  0.00     0.317 HD
ENDROOT
BRANCH   6  17
HETATM   17  N1  UNL     1      24.300   2.821  51.264  1.00  0.00    -0.268 N 
HETATM   18  C8  UNL     1      25.448   3.181  50.491  1.00  0.00     0.227 A 
HETATM   19  N2  UNL     1      26.581   2.602  50.549  1.00  0.00    -0.253 NA
HETATM   20  C9  UNL     1      26.806   1.513  51.419  1.00  0.00     0.145 A 
HETATM   21  C10 UNL     1      25.811   1.088  52.194  1.00  0.00     0.051 A 
HETATM   22  C11 UNL     1      25.760  -0.004  53.175  1.00  0.00     0.046 C 
HETATM   23  N3  UNL     1      24.521   1.749  52.126  1.00  0.00    -0.290 N 
HETATM   24  C14 UNL     1      24.261  -0.323  53.200  1.00  0.00     0.033 C 
HETATM   25  C15 UNL     1      23.631   1.086  53.051  1.00  0.00     0.150 C 
BRANCH  22  26
HETATM   26  C12 UNL     1      26.157   0.352  54.565  1.00  0.00     0.080 C 
BRANCH  26  27
HETATM   27  C13 UNL     1      27.593   0.089  54.799  1.00  0.00     0.231 C 
HETATM   28  O2  UNL     1      28.293  -0.732  54.229  1.00  0.00    -0.307 OA
ENDBRANCH  26  27
ENDBRANCH  22  26
ENDBRANCH   6  17
BRANCH   5  29
HETATM   29  C6  UNL     1      23.068   4.728  52.993  1.00  0.00     0.387 C 
HETATM   30  O1  UNL     1      23.935   5.327  53.672  1.00  0.00    -0.405 OA
ENDBRANCH   5  29
BRANCH   7  31
HETATM   31  O3  UNL     1      22.778   1.530  49.835  1.00  0.00    -0.362 OA
HETATM   32  H20 UNL     1      22.175   0.781  49.597  1.00  0.00     0.217 HD
ENDBRANCH   7  31
TORSDOF 5
ENDMDL
MODEL 3
REMARK VINA RESULT:      -7.0      2.482      5.033
REMARK  5 active torsions:
REMARK  status: ('A' for Active; 'I' for Inactive)
REMARK    1  A    between atoms: C5_5  and  C6_6 
REMARK    2  A    between atoms: C7_8  and  N1_9 
REMARK    3  A    between atoms: C11_14  and  C12_15 
REMARK    4  A    between atoms: C12_15  and  C13_16 
REMARK    5  A    between atoms: C16_21  and  O3_22 
ROOT
HETATM    1  C1  UNL     1      19.447   0.237  51.212  1.00  0.00     0.043 C 
HETATM    2  C2  UNL     1      20.604   0.777  52.002  1.00  0.00     0.220 C 
HETATM    3  C3  UNL     1      21.896   0.684  51.213  1.00  0.00     0.063 C 
HETATM    4  C4  UNL     1      22.936   1.211  52.125  1.00  0.00    -0.013 C 
HETATM    5  C5  UNL     1      23.461   2.411  51.990  1.00  0.00    -0.007 C 
HETATM    6  C7  UNL     1      23.390   3.620  51.188  1.00  0.00     0.200 C 
HETATM    7  C16 UNL     1      22.211   3.429  50.258  1.00  0.00     0.079 C 
HETATM    8  C17 UNL     1      20.887   3.266  50.430  1.00  0.00     0.012 C 
HETATM    9  C18 UNL     1      20.187   3.125  49.093  1.00  0.00     0.308 C 
HETATM   10  N4  UNL     1      18.827   3.549  49.257  1.00  0.00     0.087 N 
HETATM   11  C19 UNL     1      18.766   4.500  50.373  1.00  0.00     0.272 C 
HETATM   12  C20 UNL     1      18.843   3.701  51.655  1.00  0.00     0.070 C 
HETATM   13  C21 UNL     1      20.281   3.210  51.752  1.00  0.00     0.255 C 
HETATM   14  N5  UNL     1      20.436   2.075  52.561  1.00  0.00     0.096 N 
HETATM   15  H23 UNL     1      18.264   2.684  49.457  1.00  0.00     0.316 HD
HETATM   16  H29 UNL     1      19.632   2.026  53.233  1.00  0.00     0.317 HD
ENDROOT
BRANCH   6  17
HETATM   17  N1  UNL     1      24.556   3.995  50.458  1.00  0.00    -0.268 N 
HETATM   18  C8  UNL     1      25.434   2.933  50.076  1.00  0.00     0.227 A 
HETATM   19  N2  UNL     1      26.543   3.085  49.468  1.00  0.00    -0.253 NA
HETATM   20  C9  UNL     1      27.014   4.365  49.105  1.00  0.00     0.145 A 
HETATM   21  C10 UNL     1      26.279   5.433  49.405  1.00  0.00     0.051 A 
HETATM   22  C11 UNL     1      26.518   6.861  49.155  1.00  0.00     0.046 C 
HETATM   23  N3  UNL     1      25.017   5.259  50.097  1.00  0.00    -0.290 N 
HETATM   24  C14 UNL     1      25.669   7.509  50.254  1.00  0.00     0.033 C 
HETATM   25  C15 UNL     1      24.439   6.567  50.307  1.00  0.00     0.150 C 
BRANCH  22  26
HETATM   26  C12 UNL     1      26.026   7.384  47.852  1.00  0.00     0.080 C 
BRANCH  26  27
HETATM   27  C13 UNL     1      26.446   8.785  47.639  1.00  0.00     0.231 C 
HETATM   28  O2  UNL     1      27.563   9.250  47.801  1.00  0.00    -0.307 OA
ENDBRANCH  26  27
ENDBRANCH  22  26
ENDBRANCH   6  17
BRANCH   5  29
HETATM   29  C6  UNL     1      24.485   2.721  53.011  1.00  0.00     0.387 C 
HETATM   30  O1  UNL     1      25.426   2.773  53.838  1.00  0.00    -0.405 OA
ENDBRANCH   5  29
BRANCH   7  31
HETATM   31  O3  UNL     1      22.715   3.437  48.932  1.00  0.00    -0.362 OA
HETATM   32  H20 UNL     1      22.137   3.758  48.195  1.00  0.00     0.217 HD
ENDBRANCH   7  31
TORSDOF 5
ENDMDL
MODEL 4
REMARK VINA RESULT:      -6.9      2.748      7.373
REMARK  5 active torsions:
REMARK  status: ('A' for Active; 'I' for Inactive)
REMARK    1  A    between atoms: C5_5  and  C6_6 
REMARK    2  A    between atoms: C7_8  and  N1_9 
REMARK    3  A    between atoms: C11_14  and  C12_15 
REMARK    4  A    between atoms: C12_15  and  C13_16 
REMARK    5  A    between atoms: C16_21  and  O3_22 
ROOT
HETATM    1  C1  UNL     1      23.699   7.435  47.884  1.00  0.00     0.043 C 
HETATM    2  C2  UNL     1      23.274   6.012  47.663  1.00  0.00     0.220 C 
HETATM    3  C3  UNL     1      23.804   5.105  48.756  1.00  0.00     0.063 C 
HETATM    4  C4  UNL     1      23.341   3.749  48.383  1.00  0.00    -0.013 C 
HETATM    5  C5  UNL     1      22.337   3.148  48.987  1.00  0.00    -0.007 C 
HETATM    6  C7  UNL     1      21.332   3.333  50.019  1.00  0.00     0.200 C 
HETATM    7  C16 UNL     1      21.448   4.778  50.455  1.00  0.00     0.079 C 
HETATM    8  C17 UNL     1      21.281   5.965  49.846  1.00  0.00     0.012 C 
HETATM    9  C18 UNL     1      21.537   7.103  50.815  1.00  0.00     0.308 C 
HETATM   10  N4  UNL     1      20.802   8.248  50.359  1.00  0.00     0.087 N 
HETATM   11  C19 UNL     1      19.654   7.783  49.574  1.00  0.00     0.272 C 
HETATM   12  C20 UNL     1      20.171   7.369  48.213  1.00  0.00     0.070 C 
HETATM   13  C21 UNL     1      20.933   6.069  48.437  1.00  0.00     0.255 C 
HETATM   14  N5  UNL     1      21.884   5.795  47.445  1.00  0.00     0.096 N 
HETATM   15  H23 UNL     1      21.465   8.816  49.773  1.00  0.00     0.316 HD
HETATM   16  H29 UNL     1      21.618   6.310  46.570  1.00  0.00     0.317 HD
ENDROOT
BRANCH   6  17
HETATM   17  N1  UNL     1      21.376   2.459  51.145  1.00  0.00    -0.268 N 
HETATM   18  C8  UNL     1      20.114   2.047  51.678  1.00  0.00     0.227 A 
HETATM   19  N2  UNL     1      19.960   1.314  52.708  1.00  0.00    -0.253 NA
HETATM   20  C9  UNL     1      21.067   0.827  53.437  1.00  0.00     0.145 A 
HETATM   21  C10 UNL     1      22.296   1.141  53.033  1.00  0.00     0.051 A 
HETATM   22  C11 UNL     1      23.608   0.783  53.589  1.00  0.00     0.046 C 
HETATM   23  N3  UNL     1      22.469   1.976  51.860  1.00  0.00    -0.290 N 
HETATM   24  C14 UNL     1      24.483   1.927  53.067  1.00  0.00     0.033 C 
HETATM   25  C15 UNL     1      23.887   2.169  51.656  1.00  0.00     0.150 C 
BRANCH  22  26
HETATM   26  C12 UNL     1      24.200  -0.488  53.089  1.00  0.00     0.080 C 
BRANCH  26  27
HETATM   27  C13 UNL     1      25.549  -0.713  53.652  1.00  0.00     0.231 C 
HETATM   28  O2  UNL     1      25.833  -0.905  54.822  1.00  0.00    -0.307 OA
ENDBRANCH  26  27
ENDBRANCH  22  26
ENDBRANCH   6  17
BRANCH   5  29
HETATM   29  C6  UNL     1      22.055   1.798  48.452  1.00  0.00     0.387 C 
HETATM   30  O1  UNL     1      21.706   0.622  48.195  1.00  0.00    -0.405 OA
ENDBRANCH   5  29
BRANCH   7  31
HETATM   31  O3  UNL     1      21.821   4.776  51.824  1.00  0.00    -0.362 OA
HETATM   32  H20 UNL     1      21.384   4.140  52.445  1.00  0.00     0.217 HD
ENDBRANCH   7  31
TORSDOF 5
ENDMDL
MODEL 5
REMARK VINA RESULT:      -6.8      4.030      9.110
REMARK  5 active torsions:
REMARK  status: ('A' for Active; 'I' for Inactive)
REMARK    1  A    between atoms: C5_5  and  C6_6 
REMARK    2  A    between atoms: C7_8  and  N1_9 
REMARK    3  A    between atoms: C11_14  and  C12_15 
REMARK    4  A    between atoms: C12_15  and  C13_16 
REMARK    5  A    between atoms: C16_21  and  O3_22 
ROOT
HETATM    1  C1  UNL     1      31.023   9.617  45.933  1.00  0.00     0.043 C 
HETATM    2  C2  UNL     1      29.554   9.422  45.687  1.00  0.00     0.220 C 
HETATM    3  C3  UNL     1      29.056   8.145  46.336  1.00  0.00     0.063 C 
HETATM    4  C4  UNL     1      27.621   8.073  45.978  1.00  0.00    -0.013 C 
HETATM    5  C5  UNL     1      26.658   8.355  46.831  1.00  0.00    -0.007 C 
HETATM    6  C7  UNL     1      26.414   8.806  48.190  1.00  0.00     0.200 C 
HETATM    7  C16 UNL     1      27.771   9.167  48.755  1.00  0.00     0.079 C 
HETATM    8  C17 UNL     1      28.713  10.076  48.445  1.00  0.00     0.012 C 
HETATM    9  C18 UNL     1      29.892   9.969  49.393  1.00  0.00     0.308 C 
HETATM   10  N4  UNL     1      30.542  11.247  49.438  1.00  0.00     0.087 N 
HETATM   11  C19 UNL     1      29.558  12.284  49.108  1.00  0.00     0.272 C 
HETATM   12  C20 UNL     1      29.355  12.257  47.609  1.00  0.00     0.070 C 
HETATM   13  C21 UNL     1      28.568  10.986  47.319  1.00  0.00     0.255 C 
HETATM   14  N5  UNL     1      28.710  10.523  46.004  1.00  0.00     0.096 N 
HETATM   15  H23 UNL     1      31.319  11.214  48.731  1.00  0.00     0.316 HD
HETATM   16  H29 UNL     1      28.995  11.325  45.391  1.00  0.00     0.317 HD
ENDROOT
BRANCH   6  17
HETATM   17  N1  UNL     1      25.722   7.917  49.064  1.00  0.00    -0.268 N 
HETATM   18  C8  UNL     1      24.792   8.515  49.970  1.00  0.00     0.227 A 
HETATM   19  N2  UNL     1      24.125   7.886  50.854  1.00  0.00    -0.253 NA
HETATM   20  C9  UNL     1      24.254   6.490  51.018  1.00  0.00     0.145 A 
HETATM   21  C10 UNL     1      25.090   5.821  50.227  1.00  0.00     0.051 A 
HETATM   22  C11 UNL     1      25.421   4.391  50.175  1.00  0.00     0.046 C 
HETATM   23  N3  UNL     1      25.849   6.539  49.221  1.00  0.00    -0.290 N 
HETATM   24  C14 UNL     1      26.815   4.423  49.540  1.00  0.00     0.033 C 
HETATM   25  C15 UNL     1      26.677   5.583  48.521  1.00  0.00     0.150 C 
BRANCH  22  26
HETATM   26  C12 UNL     1      24.557   3.555  49.298  1.00  0.00     0.080 C 
BRANCH  26  27
HETATM   27  C13 UNL     1      23.491   2.884  50.072  1.00  0.00     0.231 C 
HETATM   28  O2  UNL     1      23.385   2.834  51.286  1.00  0.00    -0.307 OA
ENDBRANCH  26  27
ENDBRANCH  22  26
ENDBRANCH   6  17
BRANCH   5  29
HETATM   29  C6  UNL     1      25.304   8.209  46.255  1.00  0.00     0.387 C 
HETATM   30  O1  UNL     1      24.177   7.867  45.825  1.00  0.00    -0.405 OA
ENDBRANCH   5  29
BRANCH   7  31
HETATM   31  O3  UNL     1      28.016   8.299  49.850  1.00  0.00    -0.362 OA
HETATM   32  H20 UNL     1      28.640   7.538  49.736  1.00  0.00     0.217 HD
ENDBRANCH   7  31
TORSDOF 5
ENDMDL
MODEL 6
REMARK VINA RESULT:      -6.8      3.908      7.159
REMARK  5 active torsions:
REMARK  status: ('A' for Active; 'I' for Inactive)
REMARK    1  A    between atoms: C5_5  and  C6_6 
REMARK    2  A    between atoms: C7_8  and  N1_9 
REMARK    3  A    between atoms: C11_14  and  C12_15 
REMARK    4  A    between atoms: C12_15  and  C13_16 
REMARK    5  A    between atoms: C16_21  and  O3_22 
ROOT
HETATM    1  C1  UNL     1      21.135   7.167  50.045  1.00  0.00     0.043 C 
HETATM    2  C2  UNL     1      22.049   7.378  48.872  1.00  0.00     0.220 C 
HETATM    3  C3  UNL     1      23.093   8.435  49.175  1.00  0.00     0.063 C 
HETATM    4  C4  UNL     1      23.882   8.556  47.928  1.00  0.00    -0.013 C 
HETATM    5  C5  UNL     1      25.087   8.041  47.794  1.00  0.00    -0.007 C 
HETATM    6  C7  UNL     1      26.091   7.256  48.490  1.00  0.00     0.200 C 
HETATM    7  C16 UNL     1      25.440   6.801  49.779  1.00  0.00     0.079 C 
HETATM    8  C17 UNL     1      24.384   6.026  50.082  1.00  0.00     0.012 C 
HETATM    9  C18 UNL     1      24.211   5.922  51.584  1.00  0.00     0.308 C 
HETATM   10  N4  UNL     1      23.529   4.692  51.868  1.00  0.00     0.087 N 
HETATM   11  C19 UNL     1      23.800   3.746  50.781  1.00  0.00     0.272 C 
HETATM   12  C20 UNL     1      22.934   4.144  49.606  1.00  0.00     0.070 C 
HETATM   13  C21 UNL     1      23.546   5.426  49.054  1.00  0.00     0.255 C 
HETATM   14  N5  UNL     1      22.646   6.209  48.319  1.00  0.00     0.096 N 
HETATM   15  H23 UNL     1      22.505   4.924  51.932  1.00  0.00     0.316 HD
HETATM   16  H29 UNL     1      21.871   5.596  47.969  1.00  0.00     0.317 HD
ENDROOT
BRANCH   6  17
HETATM   17  N1  UNL     1      27.349   7.876  48.749  1.00  0.00    -0.268 N 
HETATM   18  C8  UNL     1      27.304   9.201  49.287  1.00  0.00     0.227 A 
HETATM   19  N2  UNL     1      28.322   9.925  49.532  1.00  0.00    -0.253 NA
HETATM   20  C9  UNL     1      29.632   9.462  49.282  1.00  0.00     0.145 A 
HETATM   21  C10 UNL     1      29.801   8.240  48.784  1.00  0.00     0.051 A 
HETATM   22  C11 UNL     1      31.026   7.510  48.429  1.00  0.00     0.046 C 
HETATM   23  N3  UNL     1      28.641   7.415  48.506  1.00  0.00    -0.290 N 
HETATM   24  C14 UNL     1      30.500   6.515  47.390  1.00  0.00     0.033 C 
HETATM   25  C15 UNL     1      29.105   6.158  47.965  1.00  0.00     0.150 C 
BRANCH  22  26
HETATM   26  C12 UNL     1      31.649   6.716  49.524  1.00  0.00     0.080 C 
BRANCH  26  27
HETATM   27  C13 UNL     1      32.658   5.772  48.998  1.00  0.00     0.231 C 
HETATM   28  O2  UNL     1      33.869   5.922  48.986  1.00  0.00    -0.307 OA
ENDBRANCH  26  27
ENDBRANCH  22  26
ENDBRANCH   6  17
BRANCH   5  29
HETATM   29  C6  UNL     1      25.687   8.291  46.466  1.00  0.00     0.387 C 
HETATM   30  O1  UNL     1      26.385   8.547  45.456  1.00  0.00    -0.405 OA
ENDBRANCH   5  29
BRANCH   7  31
HETATM   31  O3  UNL     1      26.179   7.371  50.848  1.00  0.00    -0.362 OA
HETATM   32  H20 UNL     1      27.096   7.047  51.031  1.00  0.00     0.217 HD
ENDBRANCH   7  31
TORSDOF 5
ENDMDL
MODEL 7
REMARK VINA RESULT:      -6.7      1.752      2.339
REMARK  5 active torsions:
REMARK  status: ('A' for Active; 'I' for Inactive)
REMARK    1  A    between atoms: C5_5  and  C6_6 
REMARK    2  A    between atoms: C7_8  and  N1_9 
REMARK    3  A    between atoms: C11_14  and  C12_15 
REMARK    4  A    between atoms: C12_15  and  C13_16 
REMARK    5  A    between atoms: C16_21  and  O3_22 
ROOT
HETATM    1  C1  UNL     1      22.496   0.539  53.706  1.00  0.00     0.043 C 
HETATM    2  C2  UNL     1      22.220   1.004  52.306  1.00  0.00     0.220 C 
HETATM    3  C3  UNL     1      21.616   2.395  52.300  1.00  0.00     0.063 C 
HETATM    4  C4  UNL     1      21.368   2.695  50.871  1.00  0.00    -0.013 C 
HETATM    5  C5  UNL     1      22.132   3.508  50.170  1.00  0.00    -0.007 C 
HETATM    6  C7  UNL     1      23.323   4.334  50.257  1.00  0.00     0.200 C 
HETATM    7  C16 UNL     1      23.927   4.048  51.615  1.00  0.00     0.079 C 
HETATM    8  C17 UNL     1      24.439   2.956  52.211  1.00  0.00     0.012 C 
HETATM    9  C18 UNL     1      24.910   3.284  53.614  1.00  0.00     0.308 C 
HETATM   10  N4  UNL     1      25.936   2.347  53.968  1.00  0.00     0.087 N 
HETATM   11  C19 UNL     1      26.575   1.867  52.738  1.00  0.00     0.272 C 
HETATM   12  C20 UNL     1      25.643   0.856  52.107  1.00  0.00     0.070 C 
HETATM   13  C21 UNL     1      24.475   1.660  51.550  1.00  0.00     0.255 C 
HETATM   14  N5  UNL     1      23.302   0.910  51.385  1.00  0.00     0.096 N 
HETATM   15  H23 UNL     1      25.463   1.565  54.488  1.00  0.00     0.316 HD
HETATM   16  H29 UNL     1      23.557  -0.103  51.302  1.00  0.00     0.317 HD
ENDROOT
BRANCH   6  17
HETATM   17  N1  UNL     1      23.167   5.737  50.057  1.00  0.00    -0.268 N 
HETATM   18  C8  UNL     1      21.951   6.315  50.541  1.00  0.00     0.227 A 
HETATM   19  N2  UNL     1      21.618   7.537  50.405  1.00  0.00    -0.253 NA
HETATM   20  C9  UNL     1      22.456   8.458  49.741  1.00  0.00     0.145 A 
HETATM   21  C10 UNL     1      23.619   8.037  49.249  1.00  0.00     0.051 A 
HETATM   22  C11 UNL     1      24.670   8.761  48.522  1.00  0.00     0.046 C 
HETATM   23  N3  UNL     1      23.997   6.646  49.404  1.00  0.00    -0.290 N 
HETATM   24  C14 UNL     1      25.347   7.624  47.751  1.00  0.00     0.033 C 
HETATM   25  C15 UNL     1      25.284   6.461  48.774  1.00  0.00     0.150 C 
BRANCH  22  26
HETATM   26  C12 UNL     1      25.715   9.407  49.363  1.00  0.00     0.080 C 
BRANCH  26  27
HETATM   27  C13 UNL     1      26.356  10.536  48.656  1.00  0.00     0.231 C 
HETATM   28  O2  UNL     1      27.237  11.264  49.081  1.00  0.00    -0.307 OA
ENDBRANCH  26  27
ENDBRANCH  22  26
ENDBRANCH   6  17
BRANCH   5  29
HETATM   29  C6  UNL     1      21.692   3.662  48.767  1.00  0.00     0.387 C 
HETATM   30  O1  UNL     1      21.325   3.566  47.572  1.00  0.00    -0.405 OA
ENDBRANCH   5  29
BRANCH   7  31
HETATM   31  O3  UNL     1      23.904   5.261  52.350  1.00  0.00    -0.362 OA
HETATM   32  H20 UNL     1      23.109   5.848  52.291  1.00  0.00     0.217 HD
ENDBRANCH   7  31
TORSDOF 5
ENDMDL
MODEL 8
REMARK VINA RESULT:      -6.6      9.157     12.263
REMARK  5 active torsions:
REMARK  status: ('A' for Active; 'I' for Inactive)
REMARK    1  A    between atoms: C5_5  and  C6_6 
REMARK    2  A    between atoms: C7_8  and  N1_9 
REMARK    3  A    between atoms: C11_14  and  C12_15 
REMARK    4  A    between atoms: C12_15  and  C13_16 
REMARK    5  A    between atoms: C16_21  and  O3_22 
ROOT
HETATM    1  C1  UNL     1      28.984  10.815  48.941  1.00  0.00     0.043 C 
HETATM    2  C2  UNL     1      30.416  10.372  49.020  1.00  0.00     0.220 C 
HETATM    3  C3  UNL     1      30.538   8.874  48.817  1.00  0.00     0.063 C 
HETATM    4  C4  UNL     1      31.983   8.588  48.960  1.00  0.00    -0.013 C 
HETATM    5  C5  UNL     1      32.767   8.342  47.930  1.00  0.00    -0.007 C 
HETATM    6  C7  UNL     1      32.774   8.253  46.480  1.00  0.00     0.200 C 
HETATM    7  C16 UNL     1      31.405   8.717  46.030  1.00  0.00     0.079 C 
HETATM    8  C17 UNL     1      30.722   9.872  46.122  1.00  0.00     0.012 C 
HETATM    9  C18 UNL     1      29.362   9.742  45.465  1.00  0.00     0.308 C 
HETATM   10  N4  UNL     1      28.941  11.049  45.053  1.00  0.00     0.087 N 
HETATM   11  C19 UNL     1      30.133  11.875  44.831  1.00  0.00     0.272 C 
HETATM   12  C20 UNL     1      30.655  12.293  46.188  1.00  0.00     0.070 C 
HETATM   13  C21 UNL     1      31.264  11.039  46.802  1.00  0.00     0.255 C 
HETATM   14  N5  UNL     1      31.341  11.078  48.201  1.00  0.00     0.096 N 
HETATM   15  H23 UNL     1      28.345  11.432  45.830  1.00  0.00     0.316 HD
HETATM   16  H29 UNL     1      31.337  12.079  48.513  1.00  0.00     0.317 HD
ENDROOT
BRANCH   6  17
HETATM   17  N1  UNL     1      33.097   6.991  45.900  1.00  0.00    -0.268 N 
HETATM   18  C8  UNL     1      33.847   7.026  44.683  1.00  0.00     0.227 A 
HETATM   19  N2  UNL     1      34.179   6.004  43.999  1.00  0.00    -0.253 NA
HETATM   20  C9  UNL     1      33.819   4.700  44.403  1.00  0.00     0.145 A 
HETATM   21  C10 UNL     1      33.121   4.541  45.525  1.00  0.00     0.051 A 
HETATM   22  C11 UNL     1      32.616   3.323  46.174  1.00  0.00     0.046 C 
HETATM   23  N3  UNL     1      32.744   5.705  46.302  1.00  0.00    -0.290 N 
HETATM   24  C14 UNL     1      31.442   3.876  46.989  1.00  0.00     0.033 C 
HETATM   25  C15 UNL     1      31.989   5.251  47.448  1.00  0.00     0.150 C 
BRANCH  22  26
HETATM   26  C12 UNL     1      33.546   2.665  47.132  1.00  0.00     0.080 C 
BRANCH  26  27
HETATM   27  C13 UNL     1      32.914   1.495  47.780  1.00  0.00     0.231 C 
HETATM   28  O2  UNL     1      33.174   1.035  48.879  1.00  0.00    -0.307 OA
ENDBRANCH  26  27
ENDBRANCH  22  26
ENDBRANCH   6  17
BRANCH   5  29
HETATM   29  C6  UNL     1      34.171   8.078  48.311  1.00  0.00     0.387 C 
HETATM   30  O1  UNL     1      35.396   7.831  48.411  1.00  0.00    -0.405 OA
ENDBRANCH   5  29
BRANCH   7  31
HETATM   31  O3  UNL     1      30.782   7.623  45.378  1.00  0.00    -0.362 OA
HETATM   32  H20 UNL     1      31.113   6.705  45.547  1.00  0.00     0.217 HD
ENDBRANCH   7  31
TORSDOF 5
ENDMDL
MODEL 9
REMARK VINA RESULT:      -6.6      8.162     11.499
REMARK  5 active torsions:
REMARK  status: ('A' for Active; 'I' for Inactive)
REMARK    1  A    between atoms: C5_5  and  C6_6 
REMARK    2  A    between atoms: C7_8  and  N1_9 
REMARK    3  A    between atoms: C11_14  and  C12_15 
REMARK    4  A    between atoms: C12_15  and  C13_16 
REMARK    5  A    between atoms: C16_21  and  O3_22 
ROOT
HETATM    1  C1  UNL     1      27.304  11.140  45.631  1.00  0.00     0.043 C 
HETATM    2  C2  UNL     1      27.539   9.855  46.373  1.00  0.00     0.220 C 
HETATM    3  C3  UNL     1      28.654   9.050  45.734  1.00  0.00     0.063 C 
HETATM    4  C4  UNL     1      28.739   7.812  46.542  1.00  0.00    -0.013 C 
HETATM    5  C5  UNL     1      29.695   7.601  47.424  1.00  0.00    -0.007 C 
HETATM    6  C7  UNL     1      30.867   8.213  48.026  1.00  0.00     0.200 C 
HETATM    7  C16 UNL     1      30.904   9.634  47.506  1.00  0.00     0.079 C 
HETATM    8  C17 UNL     1      30.090  10.699  47.608  1.00  0.00     0.012 C 
HETATM    9  C18 UNL     1      30.667  11.887  46.862  1.00  0.00     0.308 C 
HETATM   10  N4  UNL     1      30.145  13.082  47.458  1.00  0.00     0.087 N 
HETATM   11  C19 UNL     1      29.798  12.794  48.854  1.00  0.00     0.272 C 
HETATM   12  C20 UNL     1      28.492  12.031  48.850  1.00  0.00     0.070 C 
HETATM   13  C21 UNL     1      28.826  10.640  48.326  1.00  0.00     0.255 C 
HETATM   14  N5  UNL     1      27.726   9.964  47.780  1.00  0.00     0.096 N 
HETATM   15  H23 UNL     1      29.297  13.352  46.898  1.00  0.00     0.316 HD
HETATM   16  H29 UNL     1      26.846  10.368  48.184  1.00  0.00     0.317 HD
ENDROOT
BRANCH   6  17
HETATM   17  N1  UNL     1      32.123   7.567  47.826  1.00  0.00    -0.268 N 
HETATM   18  C8  UNL     1      33.062   7.662  48.899  1.00  0.00     0.227 A 
HETATM   19  N2  UNL     1      34.247   7.193  48.878  1.00  0.00    -0.253 NA
HETATM   20  C9  UNL     1      34.749   6.515  47.747  1.00  0.00     0.145 A 
HETATM   21  C10 UNL     1      33.963   6.361  46.684  1.00  0.00     0.051 A 
HETATM   22  C11 UNL     1      34.217   5.711  45.391  1.00  0.00     0.046 C 
HETATM   23  N3  UNL     1      32.615   6.895  46.710  1.00  0.00    -0.290 N 
HETATM   24  C14 UNL     1      33.206   6.424  44.487  1.00  0.00     0.033 C 
HETATM   25  C15 UNL     1      31.994   6.602  45.438  1.00  0.00     0.150 C 
BRANCH  22  26
HETATM   26  C12 UNL     1      33.915   4.254  45.326  1.00  0.00     0.080 C 
BRANCH  26  27
HETATM   27  C13 UNL     1      35.074   3.444  45.757  1.00  0.00     0.231 C 
HETATM   28  O2  UNL     1      35.360   3.119  46.897  1.00  0.00    -0.307 OA
ENDBRANCH  26  27
ENDBRANCH  22  26
ENDBRANCH   6  17
BRANCH   5  29
HETATM   29  C6  UNL     1      29.583   6.295  48.108  1.00  0.00     0.387 C 
HETATM   30  O1  UNL     1      29.266   5.206  48.642  1.00  0.00    -0.405 OA
ENDBRANCH   5  29
BRANCH   7  31
HETATM   31  O3  UNL     1      32.100   9.777  46.756  1.00  0.00    -0.362 OA
HETATM   32  H20 UNL     1      32.165  10.497  46.079  1.00  0.00     0.217 HD
ENDBRANCH   7  31
TORSDOF 5
ENDMDL
