MODEL 1
REMARK VINA RESULT:      -8.3      0.000      0.000
REMARK  4 active torsions:
REMARK  status: ('A' for Active; 'I' for Inactive)
REMARK    1  A    between atoms: C1_2  and  C2_3 
REMARK    2  A    between atoms: C1_2  and  C9_12 
REMARK    3  A    between atoms: C3_4  and  C4_5 
REMARK    4  A    between atoms: C4_5  and  N1_6 
ROOT
HETATM    1  C9  UNL     1      23.718  -0.323  53.540  1.00  0.00     0.023 C 
HETATM    2  C10 UNL     1      24.684  -0.840  54.239  1.00  0.00     0.017 C 
HETATM    3  C11 UNL     1      26.102  -1.040  54.288  1.00  0.00     0.013 C 
HETATM    4  C12 UNL     1      26.543  -0.594  53.073  1.00  0.00     0.001 C 
HETATM    5  C13 UNL     1      26.506  -0.063  51.739  1.00  0.00     0.181 C 
HETATM    6  N2  UNL     1      26.703   1.186  51.295  1.00  0.00    -0.329 N 
HETATM    7  N3  UNL     1      26.680   2.276  52.124  1.00  0.00    -0.292 N 
HETATM    8  C14 UNL     1      25.453   2.720  51.608  1.00  0.00     0.176 C 
HETATM    9  C15 UNL     1      24.344   1.779  52.021  1.00  0.00    -0.004 C 
HETATM   10  C16 UNL     1      23.529   0.806  52.552  1.00  0.00     0.014 C 
HETATM   11  C17 UNL     1      27.802   2.371  52.954  1.00  0.00     0.065 A 
HETATM   12  C18 UNL     1      28.845   2.663  53.660  1.00  0.00     0.049 A 
HETATM   13  C19 UNL     1      28.378   1.243  53.763  1.00  0.00     0.034 A 
HETATM   14  C20 UNL     1      27.835  -0.079  53.780  1.00  0.00     0.137 C 
HETATM   15  F1  UNL     1      28.683  -0.736  54.635  1.00  0.00    -0.204 F 
HETATM   16  H15 UNL     1      27.290   1.269  50.465  1.00  0.00     0.180 HD
ENDROOT
BRANCH   1  17
HETATM   17  C1  UNL     1      22.355  -0.528  54.102  1.00  0.00     0.235 C 
HETATM   18  O1  UNL     1      21.932  -0.890  55.217  1.00  0.00    -0.278 OA
BRANCH  17  19
HETATM   19  C2  UNL     1      21.170  -0.294  53.286  1.00  0.00    -0.022 C 
HETATM   20  C3  UNL     1      20.182  -0.098  52.581  1.00  0.00    -0.068 C 
BRANCH  20  21
HETATM   21  C4  UNL     1      19.001   0.113  51.745  1.00  0.00     0.366 C 
BRANCH  21  22
HETATM   22  N1  UNL     1      18.625   1.516  51.821  1.00  0.00     0.103 N 
HETATM   23  C5  UNL     1      19.701   2.373  51.411  1.00  0.00     0.299 C 
HETATM   24  C6  UNL     1      19.211   3.789  51.299  1.00  0.00     0.198 C 
HETATM   25  O2  UNL     1      18.032   3.892  52.048  1.00  0.00    -0.388 OA
HETATM   26  C7  UNL     1      17.037   3.219  51.331  1.00  0.00     0.198 C 
HETATM   27  C8  UNL     1      17.415   1.771  51.068  1.00  0.00     0.299 C 
ENDBRANCH  21  22
ENDBRANCH  20  21
ENDBRANCH  17  19
ENDBRANCH   1  17
TORSDOF 4
ENDMDL
MODEL 2
REMARK VINA RESULT:      -8.3      1.587      1.965
REMARK  4 active torsions:
REMARK  status: ('A' for Active; 'I' for Inactive)
REMARK    1  A    between atoms: C1_2  and  C2_3 
REMARK    2  A    between atoms: C1_2  and  C9_12 
REMARK    3  A    between atoms: C3_4  and  C4_5 
REMARK    4  A    between atoms: C4_5  and  N1_6 
ROOT
HETATM    1  C9  UNL     1      23.439   0.075  53.395  1.00  0.00     0.023 C 
HETATM    2  C10 UNL     1      24.243  -0.360  54.319  1.00  0.00     0.017 C 
HETATM    3  C11 UNL     1      25.612  -0.661  54.617  1.00  0.00     0.013 C 
HETATM    4  C12 UNL     1      26.253  -0.521  53.417  1.00  0.00     0.001 C 
HETATM    5  C13 UNL     1      26.447  -0.283  52.014  1.00  0.00     0.181 C 
HETATM    6  N2  UNL     1      26.837   0.824  51.366  1.00  0.00    -0.329 N 
HETATM    7  N3  UNL     1      26.830   2.062  51.950  1.00  0.00    -0.292 N 
HETATM    8  C14 UNL     1      25.736   2.487  51.180  1.00  0.00     0.176 C 
HETATM    9  C15 UNL     1      24.485   1.749  51.601  1.00  0.00    -0.004 C 
HETATM   10  C16 UNL     1      23.505   0.981  52.186  1.00  0.00     0.014 C 
HETATM   11  C17 UNL     1      27.839   2.238  52.902  1.00  0.00     0.065 A 
HETATM   12  C18 UNL     1      28.808   2.586  53.684  1.00  0.00     0.049 A 
HETATM   13  C19 UNL     1      28.176   1.264  53.995  1.00  0.00     0.034 A 
HETATM   14  C20 UNL     1      27.492   0.025  54.192  1.00  0.00     0.137 C 
HETATM   15  F1  UNL     1      28.144  -0.504  55.277  1.00  0.00    -0.204 F 
HETATM   16  H15 UNL     1      27.532   0.681  50.632  1.00  0.00     0.180 HD
ENDROOT
BRANCH   1  17
HETATM   17  C1  UNL     1      22.001   0.107  53.778  1.00  0.00     0.235 C 
HETATM   18  O1  UNL     1      21.311  -0.553  54.579  1.00  0.00    -0.278 OA
BRANCH  17  19
HETATM   19  C2  UNL     1      21.088   1.063  53.163  1.00  0.00    -0.022 C 
HETATM   20  C3  UNL     1      20.334   1.879  52.636  1.00  0.00    -0.068 C 
BRANCH  20  21
HETATM   21  C4  UNL     1      19.434   2.834  51.992  1.00  0.00     0.366 C 
BRANCH  21  22
HETATM   22  N1  UNL     1      20.209   3.659  51.079  1.00  0.00     0.103 N 
HETATM   23  C5  UNL     1      21.278   4.335  51.758  1.00  0.00     0.299 C 
HETATM   24  C6  UNL     1      22.178   5.002  50.755  1.00  0.00     0.198 C 
HETATM   25  O2  UNL     1      21.459   5.138  49.562  1.00  0.00    -0.388 OA
HETATM   26  C7  UNL     1      21.354   3.861  49.003  1.00  0.00     0.198 C 
HETATM   27  C8  UNL     1      20.689   2.882  49.956  1.00  0.00     0.299 C 
ENDBRANCH  21  22
ENDBRANCH  20  21
ENDBRANCH  17  19
ENDBRANCH   1  17
TORSDOF 4
ENDMDL
MODEL 3
REMARK VINA RESULT:      -8.2      3.255      7.543
REMARK  4 active torsions:
REMARK  status: ('A' for Active; 'I' for Inactive)
REMARK    1  A    between atoms: C1_2  and  C2_3 
REMARK    2  A    between atoms: C1_2  and  C9_12 
REMARK    3  A    between atoms: C3_4  and  C4_5 
REMARK    4  A    between atoms: C4_5  and  N1_6 
ROOT
HETATM    1  C9  UNL     1      22.161   0.746  51.689  1.00  0.00     0.023 C 
HETATM    2  C10 UNL     1      23.031   1.628  51.295  1.00  0.00     0.017 C 
HETATM    3  C11 UNL     1      23.396   2.496  50.215  1.00  0.00     0.013 C 
HETATM    4  C12 UNL     1      22.538   2.152  49.208  1.00  0.00     0.001 C 
HETATM    5  C13 UNL     1      21.497   1.455  48.504  1.00  0.00     0.181 C 
HETATM    6  N2  UNL     1      20.209   1.775  48.319  1.00  0.00    -0.329 N 
HETATM    7  N3  UNL     1      19.571   2.731  49.064  1.00  0.00    -0.292 N 
HETATM    8  C14 UNL     1      18.813   1.773  49.755  1.00  0.00     0.176 C 
HETATM    9  C15 UNL     1      19.704   0.966  50.671  1.00  0.00    -0.004 C 
HETATM   10  C16 UNL     1      20.708   0.412  51.432  1.00  0.00     0.014 C 
HETATM   11  C17 UNL     1      19.962   4.037  48.752  1.00  0.00     0.065 A 
HETATM   12  C18 UNL     1      20.116   5.288  48.461  1.00  0.00     0.049 A 
HETATM   13  C19 UNL     1      21.383   4.503  48.606  1.00  0.00     0.034 A 
HETATM   14  C20 UNL     1      22.519   3.650  48.772  1.00  0.00     0.137 C 
HETATM   15  F1  UNL     1      23.567   4.504  48.539  1.00  0.00    -0.204 F 
HETATM   16  H15 UNL     1      19.854   1.638  47.372  1.00  0.00     0.180 HD
ENDROOT
BRANCH   1  17
HETATM   17  C1  UNL     1      22.423   0.160  53.031  1.00  0.00     0.235 C 
HETATM   18  O1  UNL     1      21.690  -0.148  53.991  1.00  0.00    -0.278 OA
BRANCH  17  19
HETATM   19  C2  UNL     1      23.780  -0.172  53.447  1.00  0.00    -0.022 C 
HETATM   20  C3  UNL     1      24.931  -0.454  53.777  1.00  0.00    -0.068 C 
BRANCH  20  21
HETATM   21  C4  UNL     1      26.302  -0.768  54.173  1.00  0.00     0.366 C 
BRANCH  21  22
HETATM   22  N1  UNL     1      27.085   0.458  54.141  1.00  0.00     0.103 N 
HETATM   23  C5  UNL     1      28.379   0.272  54.735  1.00  0.00     0.299 C 
HETATM   24  C6  UNL     1      29.230   1.488  54.493  1.00  0.00     0.198 C 
HETATM   25  O2  UNL     1      28.375   2.552  54.185  1.00  0.00    -0.388 OA
HETATM   26  C7  UNL     1      27.887   2.319  52.895  1.00  0.00     0.198 C 
HETATM   27  C8  UNL     1      27.181   0.979  52.793  1.00  0.00     0.299 C 
ENDBRANCH  21  22
ENDBRANCH  20  21
ENDBRANCH  17  19
ENDBRANCH   1  17
TORSDOF 4
ENDMDL
MODEL 4
REMARK VINA RESULT:      -8.2      5.401      8.373
REMARK  4 active torsions:
REMARK  status: ('A' for Active; 'I' for Inactive)
REMARK    1  A    between atoms: C1_2  and  C2_3 
REMARK    2  A    between atoms: C1_2  and  C9_12 
REMARK    3  A    between atoms: C3_4  and  C4_5 
REMARK    4  A    between atoms: C4_5  and  N1_6 
ROOT
HETATM    1  C9  UNL     1      26.162   5.427  49.555  1.00  0.00     0.023 C 
HETATM    2  C10 UNL     1      27.251   4.928  49.051  1.00  0.00     0.017 C 
HETATM    3  C11 UNL     1      28.405   5.227  48.256  1.00  0.00     0.013 C 
HETATM    4  C12 UNL     1      28.171   6.492  47.794  1.00  0.00     0.001 C 
HETATM    5  C13 UNL     1      27.495   7.739  47.564  1.00  0.00     0.181 C 
HETATM    6  N2  UNL     1      27.619   8.922  48.181  1.00  0.00    -0.329 N 
HETATM    7  N3  UNL     1      28.239   9.060  49.395  1.00  0.00    -0.292 N 
HETATM    8  C14 UNL     1      27.025   9.301  50.056  1.00  0.00     0.176 C 
HETATM    9  C15 UNL     1      26.188   8.042  50.084  1.00  0.00    -0.004 C 
HETATM   10  C16 UNL     1      25.651   6.778  50.005  1.00  0.00     0.014 C 
HETATM   11  C17 UNL     1      29.629   8.921  49.332  1.00  0.00     0.065 A 
HETATM   12  C18 UNL     1      30.920   8.970  49.393  1.00  0.00     0.049 A 
HETATM   13  C19 UNL     1      30.358   7.820  48.615  1.00  0.00     0.034 A 
HETATM   14  C20 UNL     1      29.703   6.768  47.902  1.00  0.00     0.137 C 
HETATM   15  F1  UNL     1      30.757   6.032  47.426  1.00  0.00    -0.204 F 
HETATM   16  H15 UNL     1      27.656   9.736  47.567  1.00  0.00     0.180 HD
ENDROOT
BRANCH   1  17
HETATM   17  C1  UNL     1      25.323   4.463  50.319  1.00  0.00     0.235 C 
HETATM   18  O1  UNL     1      24.155   4.497  50.751  1.00  0.00    -0.278 OA
BRANCH  17  19
HETATM   19  C2  UNL     1      25.854   3.164  50.714  1.00  0.00    -0.022 C 
HETATM   20  C3  UNL     1      26.285   2.066  51.059  1.00  0.00    -0.068 C 
BRANCH  20  21
HETATM   21  C4  UNL     1      26.791   0.751  51.449  1.00  0.00     0.366 C 
BRANCH  21  22
HETATM   22  N1  UNL     1      26.901   0.708  52.899  1.00  0.00     0.103 N 
HETATM   23  C5  UNL     1      25.753   0.084  53.496  1.00  0.00     0.299 C 
HETATM   24  C6  UNL     1      25.996  -0.132  54.963  1.00  0.00     0.198 C 
HETATM   25  O2  UNL     1      27.029   0.728  55.355  1.00  0.00    -0.388 OA
HETATM   26  C7  UNL     1      28.213   0.211  54.820  1.00  0.00     0.198 C 
HETATM   27  C8  UNL     1      28.135   0.072  53.310  1.00  0.00     0.299 C 
ENDBRANCH  21  22
ENDBRANCH  20  21
ENDBRANCH  17  19
ENDBRANCH   1  17
TORSDOF 4
ENDMDL
MODEL 5
REMARK VINA RESULT:      -8.2      3.858      7.141
REMARK  4 active torsions:
REMARK  status: ('A' for Active; 'I' for Inactive)
REMARK    1  A    between atoms: C1_2  and  C2_3 
REMARK    2  A    between atoms: C1_2  and  C9_12 
REMARK    3  A    between atoms: C3_4  and  C4_5 
REMARK    4  A    between atoms: C4_5  and  N1_6 
ROOT
HETATM    1  C9  UNL     1      23.268   2.830  51.263  1.00  0.00     0.023 C 
HETATM    2  C10 UNL     1      24.458   2.735  50.750  1.00  0.00     0.017 C 
HETATM    3  C11 UNL     1      25.367   3.321  49.809  1.00  0.00     0.013 C 
HETATM    4  C12 UNL     1      24.614   4.262  49.164  1.00  0.00     0.001 C 
HETATM    5  C13 UNL     1      23.473   5.051  48.791  1.00  0.00     0.181 C 
HETATM    6  N2  UNL     1      23.097   6.276  49.184  1.00  0.00    -0.329 N 
HETATM    7  N3  UNL     1      23.619   6.889  50.292  1.00  0.00    -0.292 N 
HETATM    8  C14 UNL     1      22.427   6.734  51.015  1.00  0.00     0.176 C 
HETATM    9  C15 UNL     1      22.198   5.274  51.336  1.00  0.00    -0.004 C 
HETATM   10  C16 UNL     1      22.243   3.911  51.524  1.00  0.00     0.014 C 
HETATM   11  C17 UNL     1      24.938   7.324  50.121  1.00  0.00     0.065 A 
HETATM   12  C18 UNL     1      26.089   7.909  50.050  1.00  0.00     0.049 A 
HETATM   13  C19 UNL     1      26.051   6.502  49.535  1.00  0.00     0.034 A 
HETATM   14  C20 UNL     1      25.889   5.158  49.077  1.00  0.00     0.137 C 
HETATM   15  F1  UNL     1      27.148   4.842  48.634  1.00  0.00    -0.204 F 
HETATM   16  H15 UNL     1      22.779   6.897  48.439  1.00  0.00     0.180 HD
ENDROOT
BRANCH   1  17
HETATM   17  C1  UNL     1      22.924   1.776  52.255  1.00  0.00     0.235 C 
HETATM   18  O1  UNL     1      21.847   1.308  52.673  1.00  0.00    -0.278 OA
BRANCH  17  19
HETATM   19  C2  UNL     1      23.972   1.055  52.969  1.00  0.00    -0.022 C 
HETATM   20  C3  UNL     1      24.856   0.432  53.555  1.00  0.00    -0.068 C 
BRANCH  20  21
HETATM   21  C4  UNL     1      25.922  -0.292  54.244  1.00  0.00     0.366 C 
BRANCH  21  22
HETATM   22  N1  UNL     1      27.092   0.568  54.322  1.00  0.00     0.103 N 
HETATM   23  C5  UNL     1      28.299  -0.196  54.459  1.00  0.00     0.299 C 
HETATM   24  C6  UNL     1      29.493   0.708  54.323  1.00  0.00     0.198 C 
HETATM   25  O2  UNL     1      29.063   2.019  54.562  1.00  0.00    -0.388 OA
HETATM   26  C7  UNL     1      28.316   2.410  53.447  1.00  0.00     0.198 C 
HETATM   27  C8  UNL     1      27.150   1.471  53.192  1.00  0.00     0.299 C 
ENDBRANCH  21  22
ENDBRANCH  20  21
ENDBRANCH  17  19
ENDBRANCH   1  17
TORSDOF 4
ENDMDL
MODEL 6
REMARK VINA RESULT:      -8.2      3.657      5.311
REMARK  4 active torsions:
REMARK  status: ('A' for Active; 'I' for Inactive)
REMARK    1  A    between atoms: C1_2  and  C2_3 
REMARK    2  A    between atoms: C1_2  and  C9_12 
REMARK    3  A    between atoms: C3_4  and  C4_5 
REMARK    4  A    between atoms: C4_5  and  N1_6 
ROOT
HETATM    1  C9  UNL     1      25.463   2.407  51.491  1.00  0.00     0.023 C 
HETATM    2  C10 UNL     1      26.431   2.701  50.674  1.00  0.00     0.017 C 
HETATM    3  C11 UNL     1      26.812   3.550  49.584  1.00  0.00     0.013 C 
HETATM    4  C12 UNL     1      25.657   4.202  49.251  1.00  0.00     0.001 C 
HETATM    5  C13 UNL     1      24.272   4.583  49.270  1.00  0.00     0.181 C 
HETATM    6  N2  UNL     1      23.664   5.621  49.860  1.00  0.00    -0.329 N 
HETATM    7  N3  UNL     1      24.262   6.366  50.841  1.00  0.00    -0.292 N 
HETATM    8  C14 UNL     1      23.429   5.835  51.837  1.00  0.00     0.176 C 
HETATM    9  C15 UNL     1      23.760   4.378  52.071  1.00  0.00    -0.004 C 
HETATM   10  C16 UNL     1      24.273   3.102  52.114  1.00  0.00     0.014 C 
HETATM   11  C17 UNL     1      25.279   7.202  50.368  1.00  0.00     0.065 A 
HETATM   12  C18 UNL     1      26.125   8.126  50.048  1.00  0.00     0.049 A 
HETATM   13  C19 UNL     1      26.379   6.783  49.434  1.00  0.00     0.034 A 
HETATM   14  C20 UNL     1      26.516   5.459  48.913  1.00  0.00     0.137 C 
HETATM   15  F1  UNL     1      27.633   5.566  48.124  1.00  0.00    -0.204 F 
HETATM   16  H15 UNL     1      22.974   6.109  49.288  1.00  0.00     0.180 HD
ENDROOT
BRANCH   1  17
HETATM   17  C1  UNL     1      25.754   1.296  52.437  1.00  0.00     0.235 C 
HETATM   18  O1  UNL     1      26.807   0.810  52.893  1.00  0.00    -0.278 OA
BRANCH  17  19
HETATM   19  C2  UNL     1      24.671   0.522  53.031  1.00  0.00    -0.022 C 
HETATM   20  C3  UNL     1      23.769  -0.134  53.550  1.00  0.00    -0.068 C 
BRANCH  20  21
HETATM   21  C4  UNL     1      22.686  -0.895  54.171  1.00  0.00     0.366 C 
BRANCH  21  22
HETATM   22  N1  UNL     1      21.451  -0.609  53.459  1.00  0.00     0.103 N 
HETATM   23  C5  UNL     1      20.356  -1.382  53.972  1.00  0.00     0.299 C 
HETATM   24  C6  UNL     1      19.067  -0.908  53.360  1.00  0.00     0.198 C 
HETATM   25  O2  UNL     1      19.383  -0.209  52.189  1.00  0.00    -0.388 OA
HETATM   26  C7  UNL     1      19.943   1.010  52.583  1.00  0.00     0.198 C 
HETATM   27  C8  UNL     1      21.161   0.810  53.468  1.00  0.00     0.299 C 
ENDBRANCH  21  22
ENDBRANCH  20  21
ENDBRANCH  17  19
ENDBRANCH   1  17
TORSDOF 4
ENDMDL
MODEL 7
REMARK VINA RESULT:      -8.1      2.261      3.340
REMARK  4 active torsions:
REMARK  status: ('A' for Active; 'I' for Inactive)
REMARK    1  A    between atoms: C1_2  and  C2_3 
REMARK    2  A    between atoms: C1_2  and  C9_12 
REMARK    3  A    between atoms: C3_4  and  C4_5 
REMARK    4  A    between atoms: C4_5  and  N1_6 
ROOT
HETATM    1  C9  UNL     1      22.534   0.669  53.118  1.00  0.00     0.023 C 
HETATM    2  C10 UNL     1      22.162   1.780  52.557  1.00  0.00     0.017 C 
HETATM    3  C11 UNL     1      22.603   3.086  52.163  1.00  0.00     0.013 C 
HETATM    4  C12 UNL     1      23.860   3.185  52.690  1.00  0.00     0.001 C 
HETATM    5  C13 UNL     1      25.047   2.832  53.419  1.00  0.00     0.181 C 
HETATM    6  N2  UNL     1      26.208   2.315  52.991  1.00  0.00    -0.329 N 
HETATM    7  N3  UNL     1      26.348   1.736  51.759  1.00  0.00    -0.292 N 
HETATM    8  C14 UNL     1      26.445   0.448  52.307  1.00  0.00     0.176 C 
HETATM    9  C15 UNL     1      25.114   0.028  52.888  1.00  0.00    -0.004 C 
HETATM   10  C16 UNL     1      23.809  -0.124  53.299  1.00  0.00     0.014 C 
HETATM   11  C17 UNL     1      26.343   2.654  50.704  1.00  0.00     0.065 A 
HETATM   12  C18 UNL     1      26.510   3.398  49.659  1.00  0.00     0.049 A 
HETATM   13  C19 UNL     1      25.348   3.767  50.530  1.00  0.00     0.034 A 
HETATM   14  C20 UNL     1      24.273   4.018  51.438  1.00  0.00     0.137 C 
HETATM   15  F1  UNL     1      23.660   5.110  50.876  1.00  0.00    -0.204 F 
HETATM   16  H15 UNL     1      27.048   2.743  53.381  1.00  0.00     0.180 HD
ENDROOT
BRANCH   1  17
HETATM   17  C1  UNL     1      21.463  -0.356  53.256  1.00  0.00     0.235 C 
HETATM   18  O1  UNL     1      21.404  -1.466  53.819  1.00  0.00    -0.278 OA
BRANCH  17  19
HETATM   19  C2  UNL     1      20.153  -0.149  52.650  1.00  0.00    -0.022 C 
HETATM   20  C3  UNL     1      19.043   0.040  52.154  1.00  0.00    -0.068 C 
BRANCH  20  21
HETATM   21  C4  UNL     1      17.735   0.278  51.548  1.00  0.00     0.366 C 
BRANCH  21  22
HETATM   22  N1  UNL     1      17.362   1.665  51.778  1.00  0.00     0.103 N 
HETATM   23  C5  UNL     1      18.198   2.565  51.034  1.00  0.00     0.299 C 
HETATM   24  C6  UNL     1      17.652   3.962  51.129  1.00  0.00     0.198 C 
HETATM   25  O2  UNL     1      16.808   4.015  52.245  1.00  0.00    -0.388 OA
HETATM   26  C7  UNL     1      15.648   3.310  51.909  1.00  0.00     0.198 C 
HETATM   27  C8  UNL     1      15.957   1.879  51.502  1.00  0.00     0.299 C 
ENDBRANCH  21  22
ENDBRANCH  20  21
ENDBRANCH  17  19
ENDBRANCH   1  17
TORSDOF 4
ENDMDL
MODEL 8
REMARK VINA RESULT:      -8.0      3.564      7.308
REMARK  4 active torsions:
REMARK  status: ('A' for Active; 'I' for Inactive)
REMARK    1  A    between atoms: C1_2  and  C2_3 
REMARK    2  A    between atoms: C1_2  and  C9_12 
REMARK    3  A    between atoms: C3_4  and  C4_5 
REMARK    4  A    between atoms: C4_5  and  N1_6 
ROOT
HETATM    1  C9  UNL     1      22.161   0.767  52.329  1.00  0.00     0.023 C 
HETATM    2  C10 UNL     1      21.490   0.524  51.243  1.00  0.00     0.017 C 
HETATM    3  C11 UNL     1      20.753   1.131  50.173  1.00  0.00     0.013 C 
HETATM    4  C12 UNL     1      20.667   2.447  50.535  1.00  0.00     0.001 C 
HETATM    5  C13 UNL     1      20.819   3.642  51.318  1.00  0.00     0.181 C 
HETATM    6  N2  UNL     1      21.731   4.622  51.240  1.00  0.00    -0.329 N 
HETATM    7  N3  UNL     1      22.905   4.485  50.549  1.00  0.00    -0.292 N 
HETATM    8  C14 UNL     1      23.663   4.426  51.728  1.00  0.00     0.176 C 
HETATM    9  C15 UNL     1      23.384   3.135  52.464  1.00  0.00    -0.004 C 
HETATM   10  C16 UNL     1      22.987   1.894  52.907  1.00  0.00     0.014 C 
HETATM   11  C17 UNL     1      22.742   4.497  49.160  1.00  0.00     0.065 A 
HETATM   12  C18 UNL     1      22.753   4.646  47.876  1.00  0.00     0.049 A 
HETATM   13  C19 UNL     1      21.717   3.701  48.402  1.00  0.00     0.034 A 
HETATM   14  C20 UNL     1      20.775   2.824  49.024  1.00  0.00     0.137 C 
HETATM   15  F1  UNL     1      20.066   2.343  47.953  1.00  0.00    -0.204 F 
HETATM   16  H15 UNL     1      21.362   5.571  51.308  1.00  0.00     0.180 HD
ENDROOT
BRANCH   1  17
HETATM   17  C1  UNL     1      22.670  -0.439  53.037  1.00  0.00     0.235 C 
HETATM   18  O1  UNL     1      22.117  -1.437  53.538  1.00  0.00    -0.278 OA
BRANCH  17  19
HETATM   19  C2  UNL     1      24.099  -0.622  53.263  1.00  0.00    -0.022 C 
HETATM   20  C3  UNL     1      25.300  -0.774  53.475  1.00  0.00    -0.068 C 
BRANCH  20  21
HETATM   21  C4  UNL     1      26.726  -0.978  53.723  1.00  0.00     0.366 C 
BRANCH  21  22
HETATM   22  N1  UNL     1      27.355   0.320  53.909  1.00  0.00     0.103 N 
HETATM   23  C5  UNL     1      28.649   0.197  54.519  1.00  0.00     0.299 C 
HETATM   24  C6  UNL     1      29.350   1.526  54.499  1.00  0.00     0.198 C 
HETATM   25  O2  UNL     1      28.378   2.518  54.323  1.00  0.00    -0.388 OA
HETATM   26  C7  UNL     1      27.949   2.434  52.994  1.00  0.00     0.198 C 
HETATM   27  C8  UNL     1      27.414   1.053  52.661  1.00  0.00     0.299 C 
ENDBRANCH  21  22
ENDBRANCH  20  21
ENDBRANCH  17  19
ENDBRANCH   1  17
TORSDOF 4
ENDMDL
MODEL 9
REMARK VINA RESULT:      -7.9      4.487      6.666
REMARK  4 active torsions:
REMARK  status: ('A' for Active; 'I' for Inactive)
REMARK    1  A    between atoms: C1_2  and  C2_3 
REMARK    2  A    between atoms: C1_2  and  C9_12 
REMARK    3  A    between atoms: C3_4  and  C4_5 
REMARK    4  A    between atoms: C4_5  and  N1_6 
ROOT
HETATM    1  C9  UNL     1      25.866   2.188  51.886  1.00  0.00     0.023 C 
HETATM    2  C10 UNL     1      26.951   2.746  52.333  1.00  0.00     0.017 C 
HETATM    3  C11 UNL     1      27.998   2.634  53.306  1.00  0.00     0.013 C 
HETATM    4  C12 UNL     1      27.603   1.594  54.101  1.00  0.00     0.001 C 
HETATM    5  C13 UNL     1      26.791   0.528  54.621  1.00  0.00     0.181 C 
HETATM    6  N2  UNL     1      26.853  -0.793  54.409  1.00  0.00    -0.329 N 
HETATM    7  N3  UNL     1      27.559  -1.343  53.372  1.00  0.00    -0.292 N 
HETATM    8  C14 UNL     1      26.390  -1.698  52.683  1.00  0.00     0.176 C 
HETATM    9  C15 UNL     1      25.684  -0.458  52.181  1.00  0.00    -0.004 C 
HETATM   10  C16 UNL     1      25.268   0.801  51.812  1.00  0.00     0.014 C 
HETATM   11  C17 UNL     1      28.946  -1.283  53.545  1.00  0.00     0.065 A 
HETATM   12  C18 UNL     1      30.226  -1.433  53.647  1.00  0.00     0.049 A 
HETATM   13  C19 UNL     1      29.713  -0.064  53.972  1.00  0.00     0.034 A 
HETATM   14  C20 UNL     1      29.104   1.198  54.253  1.00  0.00     0.137 C 
HETATM   15  F1  UNL     1      30.180   1.975  54.600  1.00  0.00    -0.204 F 
HETATM   16  H15 UNL     1      26.758  -1.376  55.241  1.00  0.00     0.180 HD
ENDROOT
BRANCH   1  17
HETATM   17  C1  UNL     1      25.194   2.918  50.777  1.00  0.00     0.235 C 
HETATM   18  O1  UNL     1      24.035   2.906  50.319  1.00  0.00    -0.278 OA
BRANCH  17  19
HETATM   19  C2  UNL     1      25.929   3.884  49.968  1.00  0.00    -0.022 C 
HETATM   20  C3  UNL     1      26.534   4.698  49.273  1.00  0.00    -0.068 C 
BRANCH  20  21
HETATM   21  C4  UNL     1      27.246   5.682  48.460  1.00  0.00     0.366 C 
BRANCH  21  22
HETATM   22  N1  UNL     1      27.198   6.967  49.141  1.00  0.00     0.103 N 
HETATM   23  C5  UNL     1      28.204   7.863  48.645  1.00  0.00     0.299 C 
HETATM   24  C6  UNL     1      27.988   9.237  49.216  1.00  0.00     0.198 C 
HETATM   25  O2  UNL     1      27.193   9.102  50.361  1.00  0.00    -0.388 OA
HETATM   26  C7  UNL     1      25.900   8.801  49.923  1.00  0.00     0.198 C 
HETATM   27  C8  UNL     1      25.874   7.547  49.066  1.00  0.00     0.299 C 
ENDBRANCH  21  22
ENDBRANCH  20  21
ENDBRANCH  17  19
ENDBRANCH   1  17
TORSDOF 4
ENDMDL
