MODEL 1
REMARK VINA RESULT:      -8.3      0.000      0.000
REMARK  2 active torsions:
REMARK  status: ('A' for Active; 'I' for Inactive)
REMARK    1  A    between atoms: N1_1  and  S1_2 
REMARK    2  A    between atoms: S1_2  and  C1_4 
ROOT
HETATM    1  C1  UNL     1      26.800   0.735  53.089  1.00  0.00     0.151 C 
HETATM    2  C2  UNL     1      26.330  -0.087  53.995  1.00  0.00     0.048 C 
HETATM    3  C3  UNL     1      24.988  -0.548  54.193  1.00  0.00     0.003 C 
HETATM    4  C4  UNL     1      23.738  -0.530  53.792  1.00  0.00    -0.000 C 
HETATM    5  C5  UNL     1      22.334  -0.848  53.790  1.00  0.00    -0.004 C 
HETATM    6  C6  UNL     1      21.350  -0.497  53.001  1.00  0.00    -0.021 C 
HETATM    7  C7  UNL     1      21.729   0.406  51.870  1.00  0.00     0.053 C 
HETATM    8  C8  UNL     1      20.776   0.830  50.994  1.00  0.00     0.011 C 
HETATM    9  C9  UNL     1      21.165   1.721  49.876  1.00  0.00    -0.054 C 
HETATM   10  C10 UNL     1      21.438   3.004  49.818  1.00  0.00     0.037 C 
HETATM   11  C11 UNL     1      21.832   4.022  48.814  1.00  0.00     0.059 C 
HETATM   12  C12 UNL     1      22.362   3.336  47.579  1.00  0.00     0.006 C 
HETATM   13  C13 UNL     1      22.644   1.891  47.942  1.00  0.00     0.005 C 
HETATM   14  C14 UNL     1      21.346   1.307  48.437  1.00  0.00     0.036 C 
HETATM   15  N2  UNL     1      21.302   3.537  51.152  1.00  0.00    -0.244 N 
HETATM   16  O2  UNL     1      21.771   3.677  52.419  1.00  0.00    -0.133 OA
HETATM   17  N3  UNL     1      23.067   3.301  52.691  1.00  0.00    -0.114 NA
HETATM   18  P1  UNL     1      24.142   3.173  51.478  1.00  0.00     0.121 P 
HETATM   19  C15 UNL     1      25.859   2.664  51.928  1.00  0.00     0.243 C 
HETATM   20  O3  UNL     1      25.876   1.259  52.181  1.00  0.00    -0.334 OA
HETATM   21  H18 UNL     1      20.395   4.088  51.131  1.00  0.00     0.196 HD
ENDROOT
BRANCH   1  22
HETATM   22  S1  UNL     1      28.539   1.045  53.184  1.00  0.00     0.146 S 
HETATM   23  O1  UNL     1      29.303  -0.158  53.660  1.00  0.00    -0.234 OA
BRANCH  22  24
HETATM   24  N1  UNL     1      28.803   2.465  54.165  1.00  0.00    -0.246 NA
HETATM   25  H1  UNL     1      28.502   3.325  53.683  1.00  0.00     0.134 HD
HETATM   26  H2  UNL     1      29.759   2.495  54.562  1.00  0.00     0.134 HD
ENDBRANCH  22  24
ENDBRANCH   1  22
TORSDOF 2
ENDMDL
MODEL 2
REMARK VINA RESULT:      -7.8      2.145      2.615
REMARK  2 active torsions:
REMARK  status: ('A' for Active; 'I' for Inactive)
REMARK    1  A    between atoms: N1_1  and  S1_2 
REMARK    2  A    between atoms: S1_2  and  C1_4 
ROOT
HETATM    1  C1  UNL     1      23.842  -0.264  53.782  1.00  0.00     0.151 C 
HETATM    2  C2  UNL     1      22.893  -0.970  54.347  1.00  0.00     0.048 C 
HETATM    3  C3  UNL     1      21.496  -1.028  54.032  1.00  0.00     0.003 C 
HETATM    4  C4  UNL     1      20.514  -0.616  53.265  1.00  0.00    -0.000 C 
HETATM    5  C5  UNL     1      19.168  -0.507  52.766  1.00  0.00    -0.004 C 
HETATM    6  C6  UNL     1      18.645   0.170  51.775  1.00  0.00    -0.021 C 
HETATM    7  C7  UNL     1      19.611   0.994  50.984  1.00  0.00     0.053 C 
HETATM    8  C8  UNL     1      19.165   1.736  49.933  1.00  0.00     0.011 C 
HETATM    9  C9  UNL     1      20.134   2.545  49.156  1.00  0.00    -0.054 C 
HETATM   10  C10 UNL     1      20.725   3.691  49.396  1.00  0.00     0.037 C 
HETATM   11  C11 UNL     1      21.690   4.613  48.747  1.00  0.00     0.059 C 
HETATM   12  C12 UNL     1      22.426   3.884  47.650  1.00  0.00     0.006 C 
HETATM   13  C13 UNL     1      22.187   2.399  47.844  1.00  0.00     0.005 C 
HETATM   14  C14 UNL     1      20.695   2.192  47.801  1.00  0.00     0.036 C 
HETATM   15  N2  UNL     1      20.272   4.152  50.686  1.00  0.00    -0.244 N 
HETATM   16  O2  UNL     1      20.288   4.064  52.041  1.00  0.00    -0.133 OA
HETATM   17  N3  UNL     1      21.266   3.306  52.646  1.00  0.00    -0.114 NA
HETATM   18  P1  UNL     1      22.627   2.949  51.831  1.00  0.00     0.121 P 
HETATM   19  C15 UNL     1      23.888   1.928  52.712  1.00  0.00     0.243 C 
HETATM   20  O3  UNL     1      23.459   0.567  52.726  1.00  0.00    -0.334 OA
HETATM   21  H18 UNL     1      19.601   4.945  50.469  1.00  0.00     0.196 HD
ENDROOT
BRANCH   1  22
HETATM   22  S1  UNL     1      25.456  -0.486  54.472  1.00  0.00     0.146 S 
HETATM   23  O1  UNL     1      26.381  -1.201  53.527  1.00  0.00    -0.234 OA
BRANCH  22  24
HETATM   24  N1  UNL     1      25.300  -1.280  56.019  1.00  0.00    -0.246 NA
HETATM   25  H1  UNL     1      24.323  -1.540  56.219  1.00  0.00     0.134 HD
HETATM   26  H2  UNL     1      25.781  -0.762  56.775  1.00  0.00     0.134 HD
ENDBRANCH  22  24
ENDBRANCH   1  22
TORSDOF 2
ENDMDL
MODEL 3
REMARK VINA RESULT:      -7.7      3.451      4.965
REMARK  2 active torsions:
REMARK  status: ('A' for Active; 'I' for Inactive)
REMARK    1  A    between atoms: N1_1  and  S1_2 
REMARK    2  A    between atoms: S1_2  and  C1_4 
ROOT
HETATM    1  C1  UNL     1      22.653   0.262  53.669  1.00  0.00     0.151 C 
HETATM    2  C2  UNL     1      23.871  -0.219  53.627  1.00  0.00     0.048 C 
HETATM    3  C3  UNL     1      25.005   0.245  52.883  1.00  0.00     0.003 C 
HETATM    4  C4  UNL     1      25.496   1.130  52.047  1.00  0.00    -0.000 C 
HETATM    5  C5  UNL     1      26.477   1.777  51.216  1.00  0.00    -0.004 C 
HETATM    6  C6  UNL     1      26.427   2.843  50.457  1.00  0.00    -0.021 C 
HETATM    7  C7  UNL     1      25.110   3.550  50.435  1.00  0.00     0.053 C 
HETATM    8  C8  UNL     1      24.955   4.670  49.674  1.00  0.00     0.011 C 
HETATM    9  C9  UNL     1      23.646   5.364  49.665  1.00  0.00    -0.054 C 
HETATM   10  C10 UNL     1      22.507   5.100  49.068  1.00  0.00     0.037 C 
HETATM   11  C11 UNL     1      21.142   5.670  48.954  1.00  0.00     0.059 C 
HETATM   12  C12 UNL     1      20.910   6.654  50.074  1.00  0.00     0.006 C 
HETATM   13  C13 UNL     1      21.997   6.436  51.110  1.00  0.00     0.005 C 
HETATM   14  C14 UNL     1      23.313   6.635  50.405  1.00  0.00     0.036 C 
HETATM   15  N2  UNL     1      22.686   3.885  48.311  1.00  0.00    -0.244 N 
HETATM   16  O2  UNL     1      22.817   2.534  48.265  1.00  0.00    -0.133 OA
HETATM   17  N3  UNL     1      22.523   1.799  49.392  1.00  0.00    -0.114 NA
HETATM   18  P1  UNL     1      21.588   2.446  50.554  1.00  0.00     0.121 P 
HETATM   19  C15 UNL     1      21.242   1.396  52.033  1.00  0.00     0.243 C 
HETATM   20  O3  UNL     1      22.395   1.382  52.874  1.00  0.00    -0.334 OA
HETATM   21  H18 UNL     1      22.738   4.202  47.300  1.00  0.00     0.196 HD
ENDROOT
BRANCH   1  22
HETATM   22  S1  UNL     1      21.537  -0.608  54.731  1.00  0.00     0.146 S 
HETATM   23  O1  UNL     1      22.181  -1.805  55.370  1.00  0.00    -0.234 OA
BRANCH  22  24
HETATM   24  N1  UNL     1      20.095  -0.999  53.828  1.00  0.00    -0.246 NA
HETATM   25  H1  UNL     1      19.976  -0.383  53.010  1.00  0.00     0.134 HD
HETATM   26  H2  UNL     1      19.262  -1.086  54.438  1.00  0.00     0.134 HD
ENDBRANCH  22  24
ENDBRANCH   1  22
TORSDOF 2
ENDMDL
MODEL 4
REMARK VINA RESULT:      -7.1      9.324     12.295
REMARK  2 active torsions:
REMARK  status: ('A' for Active; 'I' for Inactive)
REMARK    1  A    between atoms: N1_1  and  S1_2 
REMARK    2  A    between atoms: S1_2  and  C1_4 
ROOT
HETATM    1  C1  UNL     1      28.208   7.131  47.539  1.00  0.00     0.151 C 
HETATM    2  C2  UNL     1      28.040   8.024  46.594  1.00  0.00     0.048 C 
HETATM    3  C3  UNL     1      28.948   8.441  45.567  1.00  0.00     0.003 C 
HETATM    4  C4  UNL     1      30.128   8.305  45.007  1.00  0.00    -0.000 C 
HETATM    5  C5  UNL     1      31.199   8.554  44.079  1.00  0.00    -0.004 C 
HETATM    6  C6  UNL     1      32.387   8.022  43.937  1.00  0.00    -0.021 C 
HETATM    7  C7  UNL     1      32.721   6.937  44.910  1.00  0.00     0.053 C 
HETATM    8  C8  UNL     1      33.934   6.320  44.847  1.00  0.00     0.011 C 
HETATM    9  C9  UNL     1      34.251   5.244  45.815  1.00  0.00    -0.054 C 
HETATM   10  C10 UNL     1      34.604   5.264  47.079  1.00  0.00     0.037 C 
HETATM   11  C11 UNL     1      34.948   4.311  48.162  1.00  0.00     0.059 C 
HETATM   12  C12 UNL     1      34.462   2.931  47.795  1.00  0.00     0.006 C 
HETATM   13  C13 UNL     1      33.488   3.078  46.642  1.00  0.00     0.005 C 
HETATM   14  C14 UNL     1      34.236   3.763  45.528  1.00  0.00     0.036 C 
HETATM   15  N2  UNL     1      34.658   6.646  47.492  1.00  0.00    -0.244 N 
HETATM   16  O2  UNL     1      34.027   7.799  47.835  1.00  0.00    -0.133 OA
HETATM   17  N3  UNL     1      32.676   7.764  48.098  1.00  0.00    -0.114 NA
HETATM   18  P1  UNL     1      31.966   6.351  48.477  1.00  0.00     0.121 P 
HETATM   19  C15 UNL     1      30.151   6.390  48.815  1.00  0.00     0.243 C 
HETATM   20  O3  UNL     1      29.448   6.488  47.577  1.00  0.00    -0.334 OA
HETATM   21  H18 UNL     1      35.693   6.866  47.564  1.00  0.00     0.196 HD
ENDROOT
BRANCH   1  22
HETATM   22  S1  UNL     1      26.822   6.903  48.614  1.00  0.00     0.146 S 
HETATM   23  O1  UNL     1      25.515   7.118  47.906  1.00  0.00    -0.234 OA
BRANCH  22  24
HETATM   24  N1  UNL     1      27.026   7.926  50.015  1.00  0.00    -0.246 NA
HETATM   25  H1  UNL     1      26.914   7.399  50.893  1.00  0.00     0.134 HD
HETATM   26  H2  UNL     1      26.468   8.796  49.949  1.00  0.00     0.134 HD
ENDBRANCH  22  24
ENDBRANCH   1  22
TORSDOF 2
ENDMDL
MODEL 5
REMARK VINA RESULT:      -7.0      3.044      4.882
REMARK  2 active torsions:
REMARK  status: ('A' for Active; 'I' for Inactive)
REMARK    1  A    between atoms: N1_1  and  S1_2 
REMARK    2  A    between atoms: S1_2  and  C1_4 
ROOT
HETATM    1  C1  UNL     1      24.611   0.817  52.354  1.00  0.00     0.151 C 
HETATM    2  C2  UNL     1      25.882   0.972  52.077  1.00  0.00     0.048 C 
HETATM    3  C3  UNL     1      26.515   1.945  51.237  1.00  0.00     0.003 C 
HETATM    4  C4  UNL     1      26.380   2.986  50.448  1.00  0.00    -0.000 C 
HETATM    5  C5  UNL     1      26.780   4.050  49.565  1.00  0.00    -0.004 C 
HETATM    6  C6  UNL     1      26.106   4.992  48.954  1.00  0.00    -0.021 C 
HETATM    7  C7  UNL     1      24.632   4.991  49.210  1.00  0.00     0.053 C 
HETATM    8  C8  UNL     1      23.842   5.929  48.618  1.00  0.00     0.011 C 
HETATM    9  C9  UNL     1      22.384   5.919  48.883  1.00  0.00    -0.054 C 
HETATM   10  C10 UNL     1      21.406   5.169  48.432  1.00  0.00     0.037 C 
HETATM   11  C11 UNL     1      19.937   5.028  48.588  1.00  0.00     0.059 C 
HETATM   12  C12 UNL     1      19.491   5.743  49.839  1.00  0.00     0.006 C 
HETATM   13  C13 UNL     1      20.725   6.029  50.671  1.00  0.00     0.005 C 
HETATM   14  C14 UNL     1      21.646   6.854  49.809  1.00  0.00     0.036 C 
HETATM   15  N2  UNL     1      21.980   4.211  47.518  1.00  0.00    -0.244 N 
HETATM   16  O2  UNL     1      22.708   3.087  47.293  1.00  0.00    -0.133 OA
HETATM   17  N3  UNL     1      22.999   2.261  48.355  1.00  0.00    -0.114 NA
HETATM   18  P1  UNL     1      22.105   2.345  49.710  1.00  0.00     0.121 P 
HETATM   19  C15 UNL     1      22.561   1.205  51.089  1.00  0.00     0.243 C 
HETATM   20  O3  UNL     1      23.724   1.708  51.745  1.00  0.00    -0.334 OA
HETATM   21  H18 UNL     1      21.693   4.551  46.555  1.00  0.00     0.196 HD
ENDROOT
BRANCH   1  22
HETATM   22  S1  UNL     1      24.239  -0.516  53.457  1.00  0.00     0.146 S 
HETATM   23  O1  UNL     1      22.987  -0.263  54.247  1.00  0.00    -0.234 OA
BRANCH  22  24
HETATM   24  N1  UNL     1      25.637  -0.822  54.456  1.00  0.00    -0.246 NA
HETATM   25  H1  UNL     1      26.414  -0.183  54.234  1.00  0.00     0.134 HD
HETATM   26  H2  UNL     1      25.888  -1.827  54.482  1.00  0.00     0.134 HD
ENDBRANCH  22  24
ENDBRANCH   1  22
TORSDOF 2
ENDMDL
MODEL 6
REMARK VINA RESULT:      -6.9      4.073      6.041
REMARK  2 active torsions:
REMARK  status: ('A' for Active; 'I' for Inactive)
REMARK    1  A    between atoms: N1_1  and  S1_2 
REMARK    2  A    between atoms: S1_2  and  C1_4 
ROOT
HETATM    1  C1  UNL     1      19.373   0.174  52.328  1.00  0.00     0.151 C 
HETATM    2  C2  UNL     1      20.245  -0.537  53.002  1.00  0.00     0.048 C 
HETATM    3  C3  UNL     1      21.640  -0.291  53.220  1.00  0.00     0.003 C 
HETATM    4  C4  UNL     1      22.673   0.493  53.020  1.00  0.00    -0.000 C 
HETATM    5  C5  UNL     1      24.037   0.949  53.101  1.00  0.00    -0.004 C 
HETATM    6  C6  UNL     1      24.640   2.017  52.641  1.00  0.00    -0.021 C 
HETATM    7  C7  UNL     1      23.767   2.969  51.888  1.00  0.00     0.053 C 
HETATM    8  C8  UNL     1      24.300   4.110  51.369  1.00  0.00     0.011 C 
HETATM    9  C9  UNL     1      23.424   5.047  50.628  1.00  0.00    -0.054 C 
HETATM   10  C10 UNL     1      22.923   5.023  49.415  1.00  0.00     0.037 C 
HETATM   11  C11 UNL     1      22.056   5.852  48.543  1.00  0.00     0.059 C 
HETATM   12  C12 UNL     1      21.291   6.843  49.385  1.00  0.00     0.006 C 
HETATM   13  C13 UNL     1      21.401   6.399  50.831  1.00  0.00     0.005 C 
HETATM   14  C14 UNL     1      22.871   6.347  51.158  1.00  0.00     0.036 C 
HETATM   15  N2  UNL     1      23.380   3.809  48.782  1.00  0.00    -0.244 N 
HETATM   16  O2  UNL     1      23.320   2.459  48.641  1.00  0.00    -0.133 OA
HETATM   17  N3  UNL     1      22.267   1.778  49.209  1.00  0.00    -0.114 NA
HETATM   18  P1  UNL     1      20.903   2.576  49.591  1.00  0.00     0.121 P 
HETATM   19  C15 UNL     1      19.538   1.591  50.349  1.00  0.00     0.243 C 
HETATM   20  O3  UNL     1      19.852   1.336  51.718  1.00  0.00    -0.334 OA
HETATM   21  H18 UNL     1      24.119   4.126  48.091  1.00  0.00     0.196 HD
ENDROOT
BRANCH   1  22
HETATM   22  S1  UNL     1      17.729  -0.478  52.306  1.00  0.00     0.146 S 
HETATM   23  O1  UNL     1      16.710   0.571  51.961  1.00  0.00    -0.234 OA
BRANCH  22  24
HETATM   24  N1  UNL     1      17.419  -1.267  53.833  1.00  0.00    -0.246 NA
HETATM   25  H1  UNL     1      18.268  -1.707  54.216  1.00  0.00     0.134 HD
HETATM   26  H2  UNL     1      16.585  -1.880  53.794  1.00  0.00     0.134 HD
ENDBRANCH  22  24
ENDBRANCH   1  22
TORSDOF 2
ENDMDL
MODEL 7
REMARK VINA RESULT:      -6.9      3.224      5.333
REMARK  2 active torsions:
REMARK  status: ('A' for Active; 'I' for Inactive)
REMARK    1  A    between atoms: N1_1  and  S1_2 
REMARK    2  A    between atoms: S1_2  and  C1_4 
ROOT
HETATM    1  C1  UNL     1      22.816   1.097  51.937  1.00  0.00     0.151 C 
HETATM    2  C2  UNL     1      22.011   0.497  51.095  1.00  0.00     0.048 C 
HETATM    3  C3  UNL     1      21.512   0.957  49.833  1.00  0.00     0.003 C 
HETATM    4  C4  UNL     1      21.490   1.908  48.928  1.00  0.00    -0.000 C 
HETATM    5  C5  UNL     1      21.125   2.579  47.708  1.00  0.00    -0.004 C 
HETATM    6  C6  UNL     1      21.471   3.734  47.197  1.00  0.00    -0.021 C 
HETATM    7  C7  UNL     1      22.438   4.530  48.015  1.00  0.00     0.053 C 
HETATM    8  C8  UNL     1      22.858   5.747  47.571  1.00  0.00     0.011 C 
HETATM    9  C9  UNL     1      23.819   6.524  48.389  1.00  0.00    -0.054 C 
HETATM   10  C10 UNL     1      23.677   7.245  49.476  1.00  0.00     0.037 C 
HETATM   11  C11 UNL     1      24.506   8.063  50.395  1.00  0.00     0.059 C 
HETATM   12  C12 UNL     1      25.963   7.722  50.200  1.00  0.00     0.006 C 
HETATM   13  C13 UNL     1      26.031   6.427  49.416  1.00  0.00     0.005 C 
HETATM   14  C14 UNL     1      25.297   6.665  48.122  1.00  0.00     0.036 C 
HETATM   15  N2  UNL     1      22.284   7.196  49.850  1.00  0.00    -0.244 N 
HETATM   16  O2  UNL     1      21.228   6.523  50.375  1.00  0.00    -0.133 OA
HETATM   17  N3  UNL     1      21.461   5.347  51.052  1.00  0.00    -0.114 NA
HETATM   18  P1  UNL     1      22.946   5.034  51.637  1.00  0.00     0.121 P 
HETATM   19  C15 UNL     1      23.175   3.436  52.533  1.00  0.00     0.243 C 
HETATM   20  O3  UNL     1      23.253   2.375  51.581  1.00  0.00    -0.334 OA
HETATM   21  H18 UNL     1      21.901   8.151  49.591  1.00  0.00     0.196 HD
ENDROOT
BRANCH   1  22
HETATM   22  S1  UNL     1      23.201   0.174  53.397  1.00  0.00     0.146 S 
HETATM   23  O1  UNL     1      24.678  -0.060  53.543  1.00  0.00    -0.234 OA
BRANCH  22  24
HETATM   24  N1  UNL     1      22.264  -1.299  53.392  1.00  0.00    -0.246 NA
HETATM   25  H1  UNL     1      22.688  -2.023  53.990  1.00  0.00     0.134 HD
HETATM   26  H2  UNL     1      22.022  -1.606  52.433  1.00  0.00     0.134 HD
ENDBRANCH  22  24
ENDBRANCH   1  22
TORSDOF 2
ENDMDL
MODEL 8
REMARK VINA RESULT:      -6.8      8.501     10.662
REMARK  2 active torsions:
REMARK  status: ('A' for Active; 'I' for Inactive)
REMARK    1  A    between atoms: N1_1  and  S1_2 
REMARK    2  A    between atoms: S1_2  and  C1_4 
ROOT
HETATM    1  C1  UNL     1      25.981   6.442  49.477  1.00  0.00     0.151 C 
HETATM    2  C2  UNL     1      26.571   5.291  49.269  1.00  0.00     0.048 C 
HETATM    3  C3  UNL     1      27.863   5.021  48.710  1.00  0.00     0.003 C 
HETATM    4  C4  UNL     1      28.976   5.502  48.207  1.00  0.00    -0.000 C 
HETATM    5  C5  UNL     1      30.294   5.483  47.627  1.00  0.00    -0.004 C 
HETATM    6  C6  UNL     1      31.111   6.439  47.262  1.00  0.00    -0.021 C 
HETATM    7  C7  UNL     1      30.609   7.830  47.485  1.00  0.00     0.053 C 
HETATM    8  C8  UNL     1      31.385   8.894  47.136  1.00  0.00     0.011 C 
HETATM    9  C9  UNL     1      30.877  10.266  47.367  1.00  0.00    -0.054 C 
HETATM   10  C10 UNL     1      30.004  11.008  46.726  1.00  0.00     0.037 C 
HETATM   11  C11 UNL     1      29.399  12.359  46.817  1.00  0.00     0.059 C 
HETATM   12  C12 UNL     1      29.619  12.919  48.201  1.00  0.00     0.006 C 
HETATM   13  C13 UNL     1      30.047  11.774  49.098  1.00  0.00     0.005 C 
HETATM   14  C14 UNL     1      31.293  11.187  48.486  1.00  0.00     0.036 C 
HETATM   15  N2  UNL     1      29.515  10.235  45.609  1.00  0.00    -0.244 N 
HETATM   16  O2  UNL     1      28.749   9.226  45.120  1.00  0.00    -0.133 OA
HETATM   17  N3  UNL     1      27.814   8.643  45.945  1.00  0.00    -0.114 NA
HETATM   18  P1  UNL     1      27.293   9.439  47.264  1.00  0.00     0.121 P 
HETATM   19  C15 UNL     1      26.039   8.588  48.318  1.00  0.00     0.243 C 
HETATM   20  O3  UNL     1      26.689   7.585  49.098  1.00  0.00    -0.334 OA
HETATM   21  H18 UNL     1      29.979  10.667  44.759  1.00  0.00     0.196 HD
ENDROOT
BRANCH   1  22
HETATM   22  S1  UNL     1      24.371   6.342  50.203  1.00  0.00     0.146 S 
HETATM   23  O1  UNL     1      23.324   7.003  49.352  1.00  0.00    -0.234 OA
BRANCH  22  24
HETATM   24  N1  UNL     1      24.447   6.983  51.826  1.00  0.00    -0.246 NA
HETATM   25  H1  UNL     1      23.568   7.449  52.095  1.00  0.00     0.134 HD
HETATM   26  H2  UNL     1      25.306   7.537  51.988  1.00  0.00     0.134 HD
ENDBRANCH  22  24
ENDBRANCH   1  22
TORSDOF 2
ENDMDL
MODEL 9
REMARK VINA RESULT:      -6.7      5.552      7.334
REMARK  2 active torsions:
REMARK  status: ('A' for Active; 'I' for Inactive)
REMARK    1  A    between atoms: N1_1  and  S1_2 
REMARK    2  A    between atoms: S1_2  and  C1_4 
ROOT
HETATM    1  C1  UNL     1      26.309   9.015  47.655  1.00  0.00     0.151 C 
HETATM    2  C2  UNL     1      27.468   8.406  47.705  1.00  0.00     0.048 C 
HETATM    3  C3  UNL     1      27.770   7.062  48.099  1.00  0.00     0.003 C 
HETATM    4  C4  UNL     1      27.322   5.901  48.517  1.00  0.00    -0.000 C 
HETATM    5  C5  UNL     1      27.375   4.529  48.950  1.00  0.00    -0.004 C 
HETATM    6  C6  UNL     1      26.445   3.677  49.302  1.00  0.00    -0.021 C 
HETATM    7  C7  UNL     1      25.045   4.201  49.247  1.00  0.00     0.053 C 
HETATM    8  C8  UNL     1      24.006   3.392  49.596  1.00  0.00     0.011 C 
HETATM    9  C9  UNL     1      22.624   3.922  49.534  1.00  0.00    -0.054 C 
HETATM   10  C10 UNL     1      21.944   4.721  50.322  1.00  0.00     0.037 C 
HETATM   11  C11 UNL     1      20.595   5.334  50.406  1.00  0.00     0.059 C 
HETATM   12  C12 UNL     1      19.924   5.263  49.057  1.00  0.00     0.006 C 
HETATM   13  C13 UNL     1      20.989   4.933  48.030  1.00  0.00     0.005 C 
HETATM   14  C14 UNL     1      21.612   3.629  48.455  1.00  0.00     0.036 C 
HETATM   15  N2  UNL     1      22.809   5.088  51.418  1.00  0.00    -0.244 N 
HETATM   16  O2  UNL     1      23.861   5.797  51.903  1.00  0.00    -0.133 OA
HETATM   17  N3  UNL     1      24.384   6.815  51.138  1.00  0.00    -0.114 NA
HETATM   18  P1  UNL     1      23.488   7.474  49.952  1.00  0.00     0.121 P 
HETATM   19  C15 UNL     1      24.263   8.834  48.972  1.00  0.00     0.243 C 
HETATM   20  O3  UNL     1      25.194   8.271  48.048  1.00  0.00    -0.334 OA
HETATM   21  H18 UNL     1      22.443   4.536  52.247  1.00  0.00     0.196 HD
ENDROOT
BRANCH   1  22
HETATM   22  S1  UNL     1      26.364  10.694  47.100  1.00  0.00     0.146 S 
HETATM   23  O1  UNL     1      27.479  10.929  46.120  1.00  0.00    -0.234 OA
BRANCH  22  24
HETATM   24  N1  UNL     1      26.436  11.743  48.493  1.00  0.00    -0.246 NA
HETATM   25  H1  UNL     1      25.859  12.587  48.367  1.00  0.00     0.134 HD
HETATM   26  H2  UNL     1      27.409  11.917  48.803  1.00  0.00     0.134 HD
ENDBRANCH  22  24
ENDBRANCH   1  22
TORSDOF 2
ENDMDL
