MODEL 1
REMARK VINA RESULT:      -7.7      0.000      0.000
REMARK  1 active torsions:
REMARK  status: ('A' for Active; 'I' for Inactive)
REMARK    1  A    between atoms: N1_8  and  C7_9 
ROOT
HETATM    1  C7  UNL     1      31.616   5.455  47.588  1.00  0.00     0.163 C 
HETATM    2  N2  UNL     1      31.063   4.270  47.493  1.00  0.00    -0.224 NA
HETATM    3  C8  UNL     1      31.499   3.182  46.709  1.00  0.00     0.235 C 
HETATM    4  N3  UNL     1      32.574   3.267  45.894  1.00  0.00    -0.246 NA
HETATM    5  C9  UNL     1      33.148   4.612  45.928  1.00  0.00     0.074 C 
HETATM    6  C10 UNL     1      33.510   4.596  44.592  1.00  0.00     0.075 C 
HETATM    7  C11 UNL     1      34.125   5.395  43.543  1.00  0.00     0.002 C 
HETATM    8  C12 UNL     1      34.674   6.406  42.951  1.00  0.00     0.087 C 
HETATM    9  N4  UNL     1      34.974   7.698  43.412  1.00  0.00    -0.347 N 
HETATM   10  C13 UNL     1      34.727   8.507  44.549  1.00  0.00     0.166 A 
HETATM   11  O1  UNL     1      34.061   7.925  45.408  1.00  0.00    -0.306 OA
HETATM   12  C14 UNL     1      34.479   9.358  45.719  1.00  0.00     0.385 A 
HETATM   13  O2  UNL     1      33.743   8.686  46.706  1.00  0.00    -0.322 OA
HETATM   14  C15 UNL     1      34.269   7.574  47.399  1.00  0.00     0.082 A 
HETATM   15  C16 UNL     1      35.368   8.209  48.004  1.00  0.00     0.037 A 
HETATM   16  C17 UNL     1      36.325   7.627  48.850  1.00  0.00     0.003 A 
HETATM   17  C18 UNL     1      36.181   6.286  49.125  1.00  0.00     0.001 A 
HETATM   18  C19 UNL     1      35.058   5.723  48.485  1.00  0.00     0.014 A 
HETATM   19  C20 UNL     1      34.042   6.219  47.624  1.00  0.00     0.028 A 
HETATM   20  C21 UNL     1      33.066   5.221  47.242  1.00  0.00     0.234 C 
HETATM   21  F1  UNL     1      33.297   4.062  48.129  1.00  0.00    -0.222 F 
HETATM   22  H10 UNL     1      35.452   8.575  43.193  1.00  0.00     0.167 HD
ENDROOT
BRANCH   1  23
HETATM   23  N1  UNL     1      31.563   6.740  48.142  1.00  0.00    -0.309 N 
HETATM   24  C2  UNL     1      30.970   7.669  47.211  1.00  0.00     0.031 A 
HETATM   25  C1  UNL     1      30.486   7.349  45.839  1.00  0.00     0.070 C 
HETATM   26  C3  UNL     1      30.814   8.959  47.561  1.00  0.00     0.034 A 
HETATM   27 BR1  UNL     1      30.041  10.251  46.395  1.00  0.00    -0.049 Br
HETATM   28  C4  UNL     1      31.287   9.301  48.918  1.00  0.00     0.034 A 
HETATM   29  C5  UNL     1      31.816   8.436  49.736  1.00  0.00    -0.007 A 
HETATM   30  C6  UNL     1      31.979   7.189  49.420  1.00  0.00     0.111 A 
ENDBRANCH   1  23
TORSDOF 1
ENDMDL
MODEL 2
REMARK VINA RESULT:      -7.3      4.627      6.537
REMARK  1 active torsions:
REMARK  status: ('A' for Active; 'I' for Inactive)
REMARK    1  A    between atoms: N1_8  and  C7_9 
ROOT
HETATM    1  C7  UNL     1      27.039   9.471  49.382  1.00  0.00     0.163 C 
HETATM    2  N2  UNL     1      25.967   9.343  50.125  1.00  0.00    -0.224 NA
HETATM    3  C8  UNL     1      24.807   8.595  49.835  1.00  0.00     0.235 C 
HETATM    4  N3  UNL     1      24.656   7.925  48.670  1.00  0.00    -0.246 NA
HETATM    5  C9  UNL     1      25.812   8.131  47.797  1.00  0.00     0.074 C 
HETATM    6  C10 UNL     1      25.059   8.115  46.636  1.00  0.00     0.075 C 
HETATM    7  C11 UNL     1      25.148   8.245  45.189  1.00  0.00     0.002 C 
HETATM    8  C12 UNL     1      25.659   8.437  44.017  1.00  0.00     0.087 C 
HETATM    9  N4  UNL     1      26.969   8.749  43.619  1.00  0.00    -0.347 N 
HETATM   10  C13 UNL     1      28.203   9.120  44.210  1.00  0.00     0.166 A 
HETATM   11  O1  UNL     1      28.137   9.186  45.439  1.00  0.00    -0.306 OA
HETATM   12  C14 UNL     1      29.486   9.506  44.807  1.00  0.00     0.385 A 
HETATM   13  O2  UNL     1      29.417   9.555  46.207  1.00  0.00    -0.322 OA
HETATM   14  C15 UNL     1      29.197   8.396  46.983  1.00  0.00     0.082 A 
HETATM   15  C16 UNL     1      30.346   7.677  46.610  1.00  0.00     0.037 A 
HETATM   16  C17 UNL     1      30.726   6.399  47.047  1.00  0.00     0.003 A 
HETATM   17  C18 UNL     1      29.889   5.770  47.941  1.00  0.00     0.001 A 
HETATM   18  C19 UNL     1      28.763   6.554  48.266  1.00  0.00     0.014 A 
HETATM   19  C20 UNL     1      28.295   7.841  47.886  1.00  0.00     0.028 A 
HETATM   20  C21 UNL     1      27.058   8.223  48.533  1.00  0.00     0.234 C 
HETATM   21  F1  UNL     1      26.844   7.242  49.617  1.00  0.00    -0.222 F 
HETATM   22  H10 UNL     1      27.599   8.850  42.819  1.00  0.00     0.167 HD
ENDROOT
BRANCH   1  23
HETATM   23  N1  UNL     1      28.304  10.052  49.226  1.00  0.00    -0.309 N 
HETATM   24  C2  UNL     1      28.204  11.298  48.506  1.00  0.00     0.031 A 
HETATM   25  C1  UNL     1      26.952  11.905  47.971  1.00  0.00     0.070 C 
HETATM   26  C3  UNL     1      29.311  12.023  48.264  1.00  0.00     0.034 A 
HETATM   27 BR1  UNL     1      29.270  13.676  47.322  1.00  0.00    -0.049 Br
HETATM   28  C4  UNL     1      30.565  11.440  48.785  1.00  0.00     0.034 A 
HETATM   29  C5  UNL     1      30.621  10.313  49.435  1.00  0.00    -0.007 A 
HETATM   30  C6  UNL     1      29.568   9.596  49.677  1.00  0.00     0.111 A 
ENDBRANCH   1  23
TORSDOF 1
ENDMDL
MODEL 3
REMARK VINA RESULT:      -7.2      2.325      3.324
REMARK  1 active torsions:
REMARK  status: ('A' for Active; 'I' for Inactive)
REMARK    1  A    between atoms: N1_8  and  C7_9 
ROOT
HETATM    1  C7  UNL     1      32.479   6.810  48.756  1.00  0.00     0.163 C 
HETATM    2  N2  UNL     1      33.274   5.915  49.291  1.00  0.00    -0.224 NA
HETATM    3  C8  UNL     1      34.378   5.279  48.686  1.00  0.00     0.235 C 
HETATM    4  N3  UNL     1      34.726   5.510  47.400  1.00  0.00    -0.246 NA
HETATM    5  C9  UNL     1      33.793   6.444  46.768  1.00  0.00     0.074 C 
HETATM    6  C10 UNL     1      33.869   5.830  45.529  1.00  0.00     0.075 C 
HETATM    7  C11 UNL     1      33.356   5.889  44.168  1.00  0.00     0.002 C 
HETATM    8  C12 UNL     1      32.661   6.275  43.149  1.00  0.00     0.087 C 
HETATM    9  N4  UNL     1      31.685   7.276  43.020  1.00  0.00    -0.347 N 
HETATM   10  C13 UNL     1      30.941   8.152  43.851  1.00  0.00     0.166 A 
HETATM   11  O1  UNL     1      31.223   8.025  45.044  1.00  0.00    -0.306 OA
HETATM   12  C14 UNL     1      30.163   9.064  44.697  1.00  0.00     0.385 A 
HETATM   13  O2  UNL     1      30.504   8.937  46.051  1.00  0.00    -0.322 OA
HETATM   14  C15 UNL     1      31.783   9.289  46.534  1.00  0.00     0.082 A 
HETATM   15  C16 UNL     1      31.762  10.654  46.197  1.00  0.00     0.037 A 
HETATM   16  C17 UNL     1      32.778  11.597  46.416  1.00  0.00     0.003 A 
HETATM   17  C18 UNL     1      33.925  11.148  47.030  1.00  0.00     0.001 A 
HETATM   18  C19 UNL     1      33.868   9.773  47.337  1.00  0.00     0.014 A 
HETATM   19  C20 UNL     1      32.901   8.747  47.161  1.00  0.00     0.028 A 
HETATM   20  C21 UNL     1      33.317   7.462  47.683  1.00  0.00     0.234 C 
HETATM   21  F1  UNL     1      34.519   7.723  48.501  1.00  0.00    -0.222 F 
HETATM   22  H10 UNL     1      31.105   7.800  42.360  1.00  0.00     0.167 HD
ENDROOT
BRANCH   1  23
HETATM   23  N1  UNL     1      31.356   7.632  48.910  1.00  0.00    -0.309 N 
HETATM   24  C2  UNL     1      30.165   6.954  48.459  1.00  0.00     0.031 A 
HETATM   25  C1  UNL     1      30.101   5.580  47.887  1.00  0.00     0.070 C 
HETATM   26  C3  UNL     1      28.972   7.572  48.538  1.00  0.00     0.034 A 
HETATM   27 BR1  UNL     1      27.353   6.751  47.966  1.00  0.00    -0.049 Br
HETATM   28  C4  UNL     1      29.012   8.937  49.101  1.00  0.00     0.034 A 
HETATM   29  C5  UNL     1      30.105   9.520  49.503  1.00  0.00    -0.007 A 
HETATM   30  C6  UNL     1      31.266   8.946  49.434  1.00  0.00     0.111 A 
ENDBRANCH   1  23
TORSDOF 1
ENDMDL
MODEL 4
REMARK VINA RESULT:      -7.0      8.821     11.057
REMARK  1 active torsions:
REMARK  status: ('A' for Active; 'I' for Inactive)
REMARK    1  A    between atoms: N1_8  and  C7_9 
ROOT
HETATM    1  C7  UNL     1      22.255   7.302  49.399  1.00  0.00     0.163 C 
HETATM    2  N2  UNL     1      22.105   8.559  49.058  1.00  0.00    -0.224 NA
HETATM    3  C8  UNL     1      22.880   9.296  48.138  1.00  0.00     0.235 C 
HETATM    4  N3  UNL     1      23.950   8.761  47.508  1.00  0.00    -0.246 NA
HETATM    5  C9  UNL     1      24.178   7.383  47.946  1.00  0.00     0.074 C 
HETATM    6  C10 UNL     1      25.556   7.482  47.858  1.00  0.00     0.075 C 
HETATM    7  C11 UNL     1      26.791   6.742  48.068  1.00  0.00     0.002 C 
HETATM    8  C12 UNL     1      27.587   5.778  48.399  1.00  0.00     0.087 C 
HETATM    9  N4  UNL     1      27.329   4.511  48.946  1.00  0.00    -0.347 N 
HETATM   10  C13 UNL     1      26.239   3.788  49.492  1.00  0.00     0.166 A 
HETATM   11  O1  UNL     1      25.192   4.438  49.488  1.00  0.00    -0.306 OA
HETATM   12  C14 UNL     1      25.121   3.028  50.060  1.00  0.00     0.385 A 
HETATM   13  O2  UNL     1      23.924   3.759  50.032  1.00  0.00    -0.322 OA
HETATM   14  C15 UNL     1      23.300   4.118  48.818  1.00  0.00     0.082 A 
HETATM   15  C16 UNL     1      23.054   2.826  48.321  1.00  0.00     0.037 A 
HETATM   16  C17 UNL     1      22.439   2.486  47.107  1.00  0.00     0.003 A 
HETATM   17  C18 UNL     1      22.024   3.526  46.305  1.00  0.00     0.001 A 
HETATM   18  C19 UNL     1      22.303   4.786  46.871  1.00  0.00     0.014 A 
HETATM   19  C20 UNL     1      22.911   5.231  48.076  1.00  0.00     0.028 A 
HETATM   20  C21 UNL     1      22.943   6.671  48.213  1.00  0.00     0.234 C 
HETATM   21  F1  UNL     1      22.052   7.202  47.161  1.00  0.00    -0.222 F 
HETATM   22  H10 UNL     1      27.737   3.605  49.189  1.00  0.00     0.167 HD
ENDROOT
BRANCH   1  23
HETATM   23  N1  UNL     1      21.816   6.235  50.192  1.00  0.00    -0.309 N 
HETATM   24  C2  UNL     1      22.724   6.013  51.291  1.00  0.00     0.031 A 
HETATM   25  C1  UNL     1      23.972   6.778  51.567  1.00  0.00     0.070 C 
HETATM   26  C3  UNL     1      22.471   5.037  52.182  1.00  0.00     0.034 A 
HETATM   27 BR1  UNL     1      23.614   4.676  53.661  1.00  0.00    -0.049 Br
HETATM   28  C4  UNL     1      21.237   4.264  51.929  1.00  0.00     0.034 A 
HETATM   29  C5  UNL     1      20.436   4.492  50.927  1.00  0.00    -0.007 A 
HETATM   30  C6  UNL     1      20.661   5.425  50.055  1.00  0.00     0.111 A 
ENDBRANCH   1  23
TORSDOF 1
ENDMDL
MODEL 5
REMARK VINA RESULT:      -6.9      9.998     12.302
REMARK  1 active torsions:
REMARK  status: ('A' for Active; 'I' for Inactive)
REMARK    1  A    between atoms: N1_8  and  C7_9 
ROOT
HETATM    1  C7  UNL     1      22.879   6.758  50.268  1.00  0.00     0.163 C 
HETATM    2  N2  UNL     1      22.904   8.068  50.252  1.00  0.00    -0.224 NA
HETATM    3  C8  UNL     1      22.271   8.926  49.329  1.00  0.00     0.235 C 
HETATM    4  N3  UNL     1      21.566   8.455  48.276  1.00  0.00    -0.246 NA
HETATM    5  C9  UNL     1      21.603   6.993  48.236  1.00  0.00     0.074 C 
HETATM    6  C10 UNL     1      21.612   6.936  46.853  1.00  0.00     0.075 C 
HETATM    7  C11 UNL     1      21.661   6.015  45.727  1.00  0.00     0.002 C 
HETATM    8  C12 UNL     1      21.740   4.904  45.070  1.00  0.00     0.087 C 
HETATM    9  N4  UNL     1      21.889   3.579  45.508  1.00  0.00    -0.347 N 
HETATM   10  C13 UNL     1      22.154   2.878  46.711  1.00  0.00     0.166 A 
HETATM   11  O1  UNL     1      22.286   3.631  47.678  1.00  0.00    -0.306 OA
HETATM   12  C14 UNL     1      22.428   2.138  47.948  1.00  0.00     0.385 A 
HETATM   13  O2  UNL     1      22.552   2.995  49.052  1.00  0.00    -0.322 OA
HETATM   14  C15 UNL     1      21.463   3.754  49.532  1.00  0.00     0.082 A 
HETATM   15  C16 UNL     1      20.607   2.693  49.875  1.00  0.00     0.037 A 
HETATM   16  C17 UNL     1      19.319   2.785  50.423  1.00  0.00     0.003 A 
HETATM   17  C18 UNL     1      18.828   4.050  50.655  1.00  0.00     0.001 A 
HETATM   18  C19 UNL     1      19.743   5.057  50.288  1.00  0.00     0.014 A 
HETATM   19  C20 UNL     1      21.053   5.069  49.735  1.00  0.00     0.028 A 
HETATM   20  C21 UNL     1      21.596   6.398  49.558  1.00  0.00     0.234 C 
HETATM   21  F1  UNL     1      20.699   7.309  50.297  1.00  0.00    -0.222 F 
HETATM   22  H10 UNL     1      21.883   2.597  45.222  1.00  0.00     0.167 HD
ENDROOT
BRANCH   1  23
HETATM   23  N1  UNL     1      23.313   5.577  50.884  1.00  0.00    -0.309 N 
HETATM   24  C2  UNL     1      24.459   5.037  50.194  1.00  0.00     0.031 A 
HETATM   25  C1  UNL     1      25.108   5.614  48.984  1.00  0.00     0.070 C 
HETATM   26  C3  UNL     1      25.038   3.907  50.641  1.00  0.00     0.034 A 
HETATM   27 BR1  UNL     1      26.553   3.126  49.792  1.00  0.00    -0.049 Br
HETATM   28  C4  UNL     1      24.411   3.316  51.841  1.00  0.00     0.034 A 
HETATM   29  C5  UNL     1      23.377   3.831  52.442  1.00  0.00    -0.007 A 
HETATM   30  C6  UNL     1      22.801   4.917  52.029  1.00  0.00     0.111 A 
ENDBRANCH   1  23
TORSDOF 1
ENDMDL
MODEL 6
REMARK VINA RESULT:      -6.8      3.063      5.221
REMARK  1 active torsions:
REMARK  status: ('A' for Active; 'I' for Inactive)
REMARK    1  A    between atoms: N1_8  and  C7_9 
ROOT
HETATM    1  C7  UNL     1      32.043   7.965  48.554  1.00  0.00     0.163 C 
HETATM    2  N2  UNL     1      32.375   7.008  49.386  1.00  0.00    -0.224 NA
HETATM    3  C8  UNL     1      31.731   5.766  49.564  1.00  0.00     0.235 C 
HETATM    4  N3  UNL     1      30.612   5.432  48.884  1.00  0.00    -0.246 NA
HETATM    5  C9  UNL     1      30.184   6.528  48.014  1.00  0.00     0.074 C 
HETATM    6  C10 UNL     1      28.835   6.267  48.188  1.00  0.00     0.075 C 
HETATM    7  C11 UNL     1      27.504   6.728  47.822  1.00  0.00     0.002 C 
HETATM    8  C12 UNL     1      26.574   7.453  47.293  1.00  0.00     0.087 C 
HETATM    9  N4  UNL     1      26.640   8.626  46.524  1.00  0.00    -0.347 N 
HETATM   10  C13 UNL     1      27.606   9.581  46.118  1.00  0.00     0.166 A 
HETATM   11  O1  UNL     1      28.734   9.323  46.544  1.00  0.00    -0.306 OA
HETATM   12  C14 UNL     1      28.594  10.577  45.690  1.00  0.00     0.385 A 
HETATM   13  O2  UNL     1      29.881  10.269  46.153  1.00  0.00    -0.322 OA
HETATM   14  C15 UNL     1      30.577   9.123  45.712  1.00  0.00     0.082 A 
HETATM   15  C16 UNL     1      30.651   9.441  44.344  1.00  0.00     0.037 A 
HETATM   16  C17 UNL     1      31.241   8.676  43.326  1.00  0.00     0.003 A 
HETATM   17  C18 UNL     1      31.815   7.481  43.696  1.00  0.00     0.001 A 
HETATM   18  C19 UNL     1      31.701   7.235  45.079  1.00  0.00     0.014 A 
HETATM   19  C20 UNL     1      31.134   7.935  46.178  1.00  0.00     0.028 A 
HETATM   20  C21 UNL     1      31.300   7.258  47.446  1.00  0.00     0.234 C 
HETATM   21  F1  UNL     1      32.281   6.179  47.208  1.00  0.00    -0.222 F 
HETATM   22  H10 UNL     1      26.104   9.284  45.953  1.00  0.00     0.167 HD
ENDROOT
BRANCH   1  23
HETATM   23  N1  UNL     1      32.310   9.251  48.068  1.00  0.00    -0.309 N 
HETATM   24  C2  UNL     1      31.405  10.212  48.651  1.00  0.00     0.031 A 
HETATM   25  C1  UNL     1      30.315   9.915  49.622  1.00  0.00     0.070 C 
HETATM   26  C3  UNL     1      31.507  11.513  48.323  1.00  0.00     0.034 A 
HETATM   27 BR1  UNL     1      30.356  12.846  49.044  1.00  0.00    -0.049 Br
HETATM   28  C4  UNL     1      32.582  11.832  47.360  1.00  0.00     0.034 A 
HETATM   29  C5  UNL     1      33.385  10.939  46.854  1.00  0.00    -0.007 A 
HETATM   30  C6  UNL     1      33.303   9.680  47.153  1.00  0.00     0.111 A 
ENDBRANCH   1  23
TORSDOF 1
ENDMDL
MODEL 7
REMARK VINA RESULT:      -6.7     10.415     12.717
REMARK  1 active torsions:
REMARK  status: ('A' for Active; 'I' for Inactive)
REMARK    1  A    between atoms: N1_8  and  C7_9 
ROOT
HETATM    1  C7  UNL     1      23.448   3.056  52.064  1.00  0.00     0.163 C 
HETATM    2  N2  UNL     1      23.710   2.095  52.916  1.00  0.00    -0.224 NA
HETATM    3  C8  UNL     1      22.897   0.988  53.237  1.00  0.00     0.235 C 
HETATM    4  N3  UNL     1      21.669   0.817  52.696  1.00  0.00    -0.246 NA
HETATM    5  C9  UNL     1      21.331   1.930  51.808  1.00  0.00     0.074 C 
HETATM    6  C10 UNL     1      19.986   1.909  52.136  1.00  0.00     0.075 C 
HETATM    7  C11 UNL     1      18.716   2.570  51.880  1.00  0.00     0.002 C 
HETATM    8  C12 UNL     1      17.863   3.418  51.405  1.00  0.00     0.087 C 
HETATM    9  N4  UNL     1      18.033   4.528  50.561  1.00  0.00    -0.347 N 
HETATM   10  C13 UNL     1      19.090   5.287  49.999  1.00  0.00     0.166 A 
HETATM   11  O1  UNL     1      20.201   4.862  50.323  1.00  0.00    -0.306 OA
HETATM   12  C14 UNL     1      20.173   6.082  49.411  1.00  0.00     0.385 A 
HETATM   13  O2  UNL     1      21.436   5.582  49.759  1.00  0.00    -0.322 OA
HETATM   14  C15 UNL     1      21.883   4.317  49.320  1.00  0.00     0.082 A 
HETATM   15  C16 UNL     1      21.855   4.557  47.935  1.00  0.00     0.037 A 
HETATM   16  C17 UNL     1      22.195   3.659  46.912  1.00  0.00     0.003 A 
HETATM   17  C18 UNL     1      22.604   2.401  47.295  1.00  0.00     0.001 A 
HETATM   18  C19 UNL     1      22.607   2.240  48.695  1.00  0.00     0.014 A 
HETATM   19  C20 UNL     1      22.287   3.074  49.800  1.00  0.00     0.028 A 
HETATM   20  C21 UNL     1      22.481   2.436  51.085  1.00  0.00     0.234 C 
HETATM   21  F1  UNL     1      23.240   1.197  50.815  1.00  0.00    -0.222 F 
HETATM   22  H10 UNL     1      17.551   5.241  50.009  1.00  0.00     0.167 HD
ENDROOT
BRANCH   1  23
HETATM   23  N1  UNL     1      23.865   4.255  51.474  1.00  0.00    -0.309 N 
HETATM   24  C2  UNL     1      25.032   4.038  50.654  1.00  0.00     0.031 A 
HETATM   25  C1  UNL     1      25.734   2.739  50.453  1.00  0.00     0.070 C 
HETATM   26  C3  UNL     1      25.583   5.068  49.986  1.00  0.00     0.034 A 
HETATM   27 BR1  UNL     1      27.121   4.869  48.882  1.00  0.00    -0.049 Br
HETATM   28  C4  UNL     1      24.904   6.367  50.171  1.00  0.00     0.034 A 
HETATM   29  C5  UNL     1      23.849   6.529  50.918  1.00  0.00    -0.007 A 
HETATM   30  C6  UNL     1      23.303   5.553  51.573  1.00  0.00     0.111 A 
ENDBRANCH   1  23
TORSDOF 1
ENDMDL
MODEL 8
REMARK VINA RESULT:      -6.3      3.063      6.152
REMARK  1 active torsions:
REMARK  status: ('A' for Active; 'I' for Inactive)
REMARK    1  A    between atoms: N1_8  and  C7_9 
ROOT
HETATM    1  C7  UNL     1      32.230   7.756  46.785  1.00  0.00     0.163 C 
HETATM    2  N2  UNL     1      32.556   7.011  47.812  1.00  0.00    -0.224 NA
HETATM    3  C8  UNL     1      32.077   7.116  49.135  1.00  0.00     0.235 C 
HETATM    4  N3  UNL     1      31.210   8.083  49.510  1.00  0.00    -0.246 NA
HETATM    5  C9  UNL     1      30.904   8.973  48.390  1.00  0.00     0.074 C 
HETATM    6  C10 UNL     1      30.803  10.100  49.188  1.00  0.00     0.075 C 
HETATM    7  C11 UNL     1      30.558  11.534  49.151  1.00  0.00     0.002 C 
HETATM    8  C12 UNL     1      30.332  12.715  48.674  1.00  0.00     0.087 C 
HETATM    9  N4  UNL     1      30.200  13.169  47.352  1.00  0.00    -0.347 N 
HETATM   10  C13 UNL     1      30.378  12.679  46.034  1.00  0.00     0.166 A 
HETATM   11  O1  UNL     1      30.749  11.504  46.013  1.00  0.00    -0.306 OA
HETATM   12  C14 UNL     1      30.559  12.187  44.664  1.00  0.00     0.385 A 
HETATM   13  O2  UNL     1      30.955  10.842  44.641  1.00  0.00    -0.322 OA
HETATM   14  C15 UNL     1      30.108   9.808  45.094  1.00  0.00     0.082 A 
HETATM   15  C16 UNL     1      29.056   9.987  44.180  1.00  0.00     0.037 A 
HETATM   16  C17 UNL     1      27.865   9.249  44.101  1.00  0.00     0.003 A 
HETATM   17  C18 UNL     1      27.698   8.233  45.015  1.00  0.00     0.001 A 
HETATM   18  C19 UNL     1      28.794   8.116  45.894  1.00  0.00     0.014 A 
HETATM   19  C20 UNL     1      30.028   8.802  46.054  1.00  0.00     0.028 A 
HETATM   20  C21 UNL     1      30.852   8.275  47.121  1.00  0.00     0.234 C 
HETATM   21  F1  UNL     1      30.244   6.985  47.507  1.00  0.00    -0.222 F 
HETATM   22  H10 UNL     1      29.946  13.966  46.762  1.00  0.00     0.167 HD
ENDROOT
BRANCH   1  23
HETATM   23  N1  UNL     1      32.420   8.042  45.427  1.00  0.00    -0.309 N 
HETATM   24  C2  UNL     1      33.364   9.121  45.264  1.00  0.00     0.031 A 
HETATM   25  C1  UNL     1      34.047   9.863  46.360  1.00  0.00     0.070 C 
HETATM   26  C3  UNL     1      33.696   9.539  44.028  1.00  0.00     0.034 A 
HETATM   27 BR1  UNL     1      34.932  10.953  43.722  1.00  0.00    -0.049 Br
HETATM   28  C4  UNL     1      33.029   8.817  42.925  1.00  0.00     0.034 A 
HETATM   29  C5  UNL     1      32.183   7.844  43.107  1.00  0.00    -0.007 A 
HETATM   30  C6  UNL     1      31.845   7.426  44.287  1.00  0.00     0.111 A 
ENDBRANCH   1  23
TORSDOF 1
ENDMDL
MODEL 9
REMARK VINA RESULT:      -6.3      3.010      5.742
REMARK  1 active torsions:
REMARK  status: ('A' for Active; 'I' for Inactive)
REMARK    1  A    between atoms: N1_8  and  C7_9 
ROOT
HETATM    1  C7  UNL     1      30.182   6.908  47.277  1.00  0.00     0.163 C 
HETATM    2  N2  UNL     1      29.154   6.325  47.846  1.00  0.00    -0.224 NA
HETATM    3  C8  UNL     1      28.007   6.945  48.383  1.00  0.00     0.235 C 
HETATM    4  N3  UNL     1      27.860   8.289  48.406  1.00  0.00    -0.246 NA
HETATM    5  C9  UNL     1      29.039   8.952  47.849  1.00  0.00     0.074 C 
HETATM    6  C10 UNL     1      28.961  10.029  48.717  1.00  0.00     0.075 C 
HETATM    7  C11 UNL     1      29.617  11.274  49.088  1.00  0.00     0.002 C 
HETATM    8  C12 UNL     1      30.485  12.232  49.099  1.00  0.00     0.087 C 
HETATM    9  N4  UNL     1      31.669  12.416  48.366  1.00  0.00    -0.347 N 
HETATM   10  C13 UNL     1      32.496  11.686  47.477  1.00  0.00     0.166 A 
HETATM   11  O1  UNL     1      32.067  10.552  47.256  1.00  0.00    -0.306 OA
HETATM   12  C14 UNL     1      33.363  10.943  46.556  1.00  0.00     0.385 A 
HETATM   13  O2  UNL     1      32.860   9.662  46.285  1.00  0.00    -0.322 OA
HETATM   14  C15 UNL     1      31.648   9.470  45.587  1.00  0.00     0.082 A 
HETATM   15  C16 UNL     1      32.009  10.082  44.374  1.00  0.00     0.037 A 
HETATM   16  C17 UNL     1      31.213  10.229  43.228  1.00  0.00     0.003 A 
HETATM   17  C18 UNL     1      29.935   9.720  43.287  1.00  0.00     0.001 A 
HETATM   18  C19 UNL     1      29.651   9.122  44.531  1.00  0.00     0.014 A 
HETATM   19  C20 UNL     1      30.376   8.923  45.736  1.00  0.00     0.028 A 
HETATM   20  C21 UNL     1      29.631   8.212  46.752  1.00  0.00     0.234 C 
HETATM   21  F1  UNL     1      28.437   7.665  46.076  1.00  0.00    -0.222 F 
HETATM   22  H10 UNL     1      32.418  13.074  48.139  1.00  0.00     0.167 HD
ENDROOT
BRANCH   1  23
HETATM   23  N1  UNL     1      31.437   6.759  46.674  1.00  0.00    -0.309 N 
HETATM   24  C2  UNL     1      32.490   6.957  47.640  1.00  0.00     0.031 A 
HETATM   25  C1  UNL     1      32.309   7.292  49.080  1.00  0.00     0.070 C 
HETATM   26  C3  UNL     1      33.777   6.842  47.262  1.00  0.00     0.034 A 
HETATM   27 BR1  UNL     1      35.227   7.087  48.471  1.00  0.00    -0.049 Br
HETATM   28  C4  UNL     1      33.981   6.511  45.837  1.00  0.00     0.034 A 
HETATM   29  C5  UNL     1      33.007   6.335  44.990  1.00  0.00    -0.007 A 
HETATM   30  C6  UNL     1      31.761   6.444  45.331  1.00  0.00     0.111 A 
ENDBRANCH   1  23
TORSDOF 1
ENDMDL
