MODEL 1
REMARK VINA RESULT:      -9.6      0.000      0.000
REMARK  0 active torsions:
REMARK  status: ('A' for Active; 'I' for Inactive)
ROOT
HETATM    1  O1  UNL     1      22.651   0.305  52.867  1.00  0.00    -0.140 OA
HETATM    2  C1  UNL     1      21.797  -0.503  52.574  1.00  0.00     0.385 A 
HETATM    3  N1  UNL     1      23.010  -0.942  53.118  1.00  0.00     0.125 N 
HETATM    4  C2  UNL     1      24.275  -0.379  53.577  1.00  0.00     0.193 A 
HETATM    5  C3  UNL     1      24.980   0.424  52.663  1.00  0.00     0.060 A 
HETATM    6  C4  UNL     1      26.174   1.055  52.875  1.00  0.00     0.041 A 
HETATM    7  C5  UNL     1      26.877   1.853  52.011  1.00  0.00     0.141 A 
HETATM    8  N2  UNL     1      28.036   2.395  52.415  1.00  0.00    -0.224 NA
HETATM    9  C6  UNL     1      28.547   2.188  53.644  1.00  0.00     0.236 A 
HETATM   10  N3  UNL     1      27.879   1.404  54.531  1.00  0.00    -0.241 NA
HETATM   11  C7  UNL     1      26.725   0.869  54.118  1.00  0.00     0.074 A 
HETATM   12  C8  UNL     1      26.047   0.085  55.019  1.00  0.00     0.058 A 
HETATM   13  C9  UNL     1      24.844  -0.550  54.810  1.00  0.00     0.073 A 
HETATM   14 CL1  UNL     1      23.881  -1.564  55.818  1.00  0.00    -0.082 Cl
HETATM   15  N4  UNL     1      26.674   2.326  50.652  1.00  0.00    -0.350 N 
HETATM   16  C10 UNL     1      25.464   3.060  50.481  1.00  0.00     0.089 C 
HETATM   17  C11 UNL     1      24.323   3.677  50.306  1.00  0.00     0.030 C 
HETATM   18  C12 UNL     1      23.033   4.286  50.093  1.00  0.00     0.213 A 
HETATM   19  C13 UNL     1      22.019   3.560  49.732  1.00  0.00     0.066 A 
HETATM   20  F1  UNL     1      23.249   3.068  49.940  1.00  0.00    -0.361 F 
HETATM   21  C14 UNL     1      20.756   2.855  49.316  1.00  0.00     0.070 C 
HETATM   22  C15 UNL     1      20.612   1.665  50.171  1.00  0.00    -0.001 C 
HETATM   23  C16 UNL     1      19.260   1.307  50.728  1.00  0.00     0.033 C 
HETATM   24  C17 UNL     1      19.608   0.637  52.066  1.00  0.00    -0.018 C 
HETATM   25  C18 UNL     1      20.915   0.551  52.114  1.00  0.00    -0.009 C 
HETATM   26  C19 UNL     1      21.329   1.905  51.467  1.00  0.00     0.044 C 
HETATM   27  H1  UNL     1      23.116  -1.992  53.296  1.00  0.00     0.330 HD
HETATM   28  H5  UNL     1      27.303   2.193  49.836  1.00  0.00     0.166 HD
ENDROOT
TORSDOF 0
ENDMDL
MODEL 2
REMARK VINA RESULT:      -9.5      2.071      5.123
REMARK  0 active torsions:
REMARK  status: ('A' for Active; 'I' for Inactive)
ROOT
HETATM    1  O1  UNL     1      25.573   2.188  51.350  1.00  0.00    -0.140 OA
HETATM    2  C1  UNL     1      26.579   2.858  51.439  1.00  0.00     0.385 A 
HETATM    3  N1  UNL     1      26.218   2.006  52.490  1.00  0.00     0.125 N 
HETATM    4  C2  UNL     1      25.146   1.078  52.832  1.00  0.00     0.193 A 
HETATM    5  C3  UNL     1      23.834   1.583  52.795  1.00  0.00     0.060 A 
HETATM    6  C4  UNL     1      22.683   0.899  53.070  1.00  0.00     0.041 A 
HETATM    7  C5  UNL     1      21.393   1.358  53.030  1.00  0.00     0.141 A 
HETATM    8  N2  UNL     1      20.388   0.519  53.326  1.00  0.00    -0.224 NA
HETATM    9  C6  UNL     1      20.592  -0.769  53.663  1.00  0.00     0.236 A 
HETATM   10  N3  UNL     1      21.857  -1.264  53.713  1.00  0.00    -0.241 NA
HETATM   11  C7  UNL     1      22.850  -0.418  53.416  1.00  0.00     0.074 A 
HETATM   12  C8  UNL     1      24.128  -0.923  53.457  1.00  0.00     0.058 A 
HETATM   13  C9  UNL     1      25.289  -0.238  53.180  1.00  0.00     0.073 A 
HETATM   14 CL1  UNL     1      26.945  -0.715  53.196  1.00  0.00    -0.082 Cl
HETATM   15  N4  UNL     1      20.763   2.627  52.707  1.00  0.00    -0.350 N 
HETATM   16  C10 UNL     1      21.059   3.090  51.392  1.00  0.00     0.089 C 
HETATM   17  C11 UNL     1      21.382   3.548  50.209  1.00  0.00     0.030 C 
HETATM   18  C12 UNL     1      21.799   4.094  48.941  1.00  0.00     0.213 A 
HETATM   19  C13 UNL     1      22.838   4.871  48.872  1.00  0.00     0.066 A 
HETATM   20  F1  UNL     1      22.384   4.333  50.015  1.00  0.00    -0.361 F 
HETATM   21  C14 UNL     1      24.014   5.778  48.633  1.00  0.00     0.070 C 
HETATM   22  C15 UNL     1      25.171   5.194  49.332  1.00  0.00    -0.001 C 
HETATM   23  C16 UNL     1      26.517   5.177  48.656  1.00  0.00     0.033 C 
HETATM   24  C17 UNL     1      27.167   3.905  49.224  1.00  0.00    -0.018 C 
HETATM   25  C18 UNL     1      26.345   3.436  50.130  1.00  0.00    -0.009 C 
HETATM   26  C19 UNL     1      24.968   3.713  49.459  1.00  0.00     0.044 C 
HETATM   27  H1  UNL     1      26.883   1.951  53.326  1.00  0.00     0.330 HD
HETATM   28  H5  UNL     1      20.141   3.197  53.313  1.00  0.00     0.166 HD
ENDROOT
TORSDOF 0
ENDMDL
MODEL 3
REMARK VINA RESULT:      -9.3      3.305      6.846
REMARK  0 active torsions:
REMARK  status: ('A' for Active; 'I' for Inactive)
ROOT
HETATM    1  O1  UNL     1      25.585   3.000  51.102  1.00  0.00    -0.140 OA
HETATM    2  C1  UNL     1      26.735   2.643  51.239  1.00  0.00     0.385 A 
HETATM    3  N1  UNL     1      26.339   3.266  50.049  1.00  0.00     0.125 N 
HETATM    4  C2  UNL     1      25.129   3.815  49.447  1.00  0.00     0.193 A 
HETATM    5  C3  UNL     1      24.017   2.958  49.364  1.00  0.00     0.060 A 
HETATM    6  C4  UNL     1      22.787   3.256  48.848  1.00  0.00     0.041 A 
HETATM    7  C5  UNL     1      21.683   2.449  48.766  1.00  0.00     0.141 A 
HETATM    8  N2  UNL     1      20.553   2.935  48.230  1.00  0.00    -0.224 NA
HETATM    9  C6  UNL     1      20.453   4.195  47.764  1.00  0.00     0.236 A 
HETATM   10  N3  UNL     1      21.525   5.028  47.829  1.00  0.00    -0.241 NA
HETATM   11  C7  UNL     1      22.646   4.532  48.365  1.00  0.00     0.074 A 
HETATM   12  C8  UNL     1      23.725   5.379  48.439  1.00  0.00     0.058 A 
HETATM   13  C9  UNL     1      24.965   5.083  48.959  1.00  0.00     0.073 A 
HETATM   14 CL1  UNL     1      26.406   6.015  49.114  1.00  0.00    -0.082 Cl
HETATM   15  N4  UNL     1      21.377   1.082  49.155  1.00  0.00    -0.350 N 
HETATM   16  C10 UNL     1      21.561   0.834  50.547  1.00  0.00     0.089 C 
HETATM   17  C11 UNL     1      21.792   0.586  51.811  1.00  0.00     0.030 C 
HETATM   18  C12 UNL     1      22.120   0.289  53.183  1.00  0.00     0.213 A 
HETATM   19  C13 UNL     1      23.304  -0.147  53.493  1.00  0.00     0.066 A 
HETATM   20  F1  UNL     1      22.922   0.142  52.240  1.00  0.00    -0.361 F 
HETATM   21  C14 UNL     1      24.626  -0.653  54.006  1.00  0.00     0.070 C 
HETATM   22  C15 UNL     1      25.681   0.181  53.407  1.00  0.00    -0.001 C 
HETATM   23  C16 UNL     1      26.837   0.640  54.256  1.00  0.00     0.033 C 
HETATM   24  C17 UNL     1      27.203   1.994  53.628  1.00  0.00    -0.018 C 
HETATM   25  C18 UNL     1      26.450   2.131  52.564  1.00  0.00    -0.009 C 
HETATM   26  C19 UNL     1      25.107   1.524  53.067  1.00  0.00     0.044 C 
HETATM   27  H1  UNL     1      27.095   3.443  49.313  1.00  0.00     0.330 HD
HETATM   28  H5  UNL     1      21.045   0.310  48.545  1.00  0.00     0.166 HD
ENDROOT
TORSDOF 0
ENDMDL
MODEL 4
REMARK VINA RESULT:      -9.3      2.529      5.744
REMARK  0 active torsions:
REMARK  status: ('A' for Active; 'I' for Inactive)
ROOT
HETATM    1  O1  UNL     1      23.390  -0.062  53.197  1.00  0.00    -0.140 OA
HETATM    2  C1  UNL     1      24.061  -0.586  54.059  1.00  0.00     0.385 A 
HETATM    3  N1  UNL     1      22.694  -0.372  54.278  1.00  0.00     0.125 N 
HETATM    4  C2  UNL     1      21.551   0.212  53.587  1.00  0.00     0.193 A 
HETATM    5  C3  UNL     1      21.686   1.541  53.149  1.00  0.00     0.060 A 
HETATM    6  C4  UNL     1      20.753   2.284  52.480  1.00  0.00     0.041 A 
HETATM    7  C5  UNL     1      20.859   3.573  52.030  1.00  0.00     0.141 A 
HETATM    8  N2  UNL     1      19.826   4.129  51.378  1.00  0.00    -0.224 NA
HETATM    9  C6  UNL     1      18.676   3.468  51.142  1.00  0.00     0.236 A 
HETATM   10  N3  UNL     1      18.531   2.186  51.571  1.00  0.00    -0.241 NA
HETATM   11  C7  UNL     1      19.568   1.644  52.220  1.00  0.00     0.074 A 
HETATM   12  C8  UNL     1      19.423   0.345  52.644  1.00  0.00     0.058 A 
HETATM   13  C9  UNL     1      20.360  -0.407  53.316  1.00  0.00     0.073 A 
HETATM   14 CL1  UNL     1      20.331  -2.021  53.919  1.00  0.00    -0.082 Cl
HETATM   15  N4  UNL     1      21.897   4.591  52.060  1.00  0.00    -0.350 N 
HETATM   16  C10 UNL     1      23.111   4.182  51.436  1.00  0.00     0.089 C 
HETATM   17  C11 UNL     1      24.248   3.786  50.922  1.00  0.00     0.030 C 
HETATM   18  C12 UNL     1      25.523   3.326  50.429  1.00  0.00     0.213 A 
HETATM   19  C13 UNL     1      26.378   2.777  51.239  1.00  0.00     0.066 A 
HETATM   20  F1  UNL     1      25.178   3.237  51.623  1.00  0.00    -0.361 F 
HETATM   21  C14 UNL     1      27.465   2.124  52.049  1.00  0.00     0.070 C 
HETATM   22  C15 UNL     1      26.836   1.074  52.867  1.00  0.00    -0.001 C 
HETATM   23  C16 UNL     1      27.514  -0.262  53.013  1.00  0.00     0.033 C 
HETATM   24  C17 UNL     1      26.331  -1.229  53.175  1.00  0.00    -0.018 C 
HETATM   25  C18 UNL     1      25.249  -0.492  53.234  1.00  0.00    -0.009 C 
HETATM   26  C19 UNL     1      25.580   0.613  52.189  1.00  0.00     0.044 C 
HETATM   27  H1  UNL     1      22.284  -0.728  55.200  1.00  0.00     0.330 HD
HETATM   28  H5  UNL     1      21.835   5.545  52.467  1.00  0.00     0.166 HD
ENDROOT
TORSDOF 0
ENDMDL
MODEL 5
REMARK VINA RESULT:      -8.9      2.331      4.433
REMARK  0 active torsions:
REMARK  status: ('A' for Active; 'I' for Inactive)
ROOT
HETATM    1  O1  UNL     1      24.351   0.555  52.941  1.00  0.00    -0.140 OA
HETATM    2  C1  UNL     1      24.504  -0.596  53.289  1.00  0.00     0.385 A 
HETATM    3  N1  UNL     1      25.453   0.008  52.455  1.00  0.00     0.125 N 
HETATM    4  C2  UNL     1      25.674   1.288  51.791  1.00  0.00     0.193 A 
HETATM    5  C3  UNL     1      24.646   1.752  50.952  1.00  0.00     0.060 A 
HETATM    6  C4  UNL     1      24.632   2.918  50.237  1.00  0.00     0.041 A 
HETATM    7  C5  UNL     1      23.642   3.402  49.424  1.00  0.00     0.141 A 
HETATM    8  N2  UNL     1      23.815   4.584  48.812  1.00  0.00    -0.224 NA
HETATM    9  C6  UNL     1      24.930   5.325  48.965  1.00  0.00     0.236 A 
HETATM   10  N3  UNL     1      25.935   4.880  49.765  1.00  0.00    -0.241 NA
HETATM   11  C7  UNL     1      25.751   3.700  50.368  1.00  0.00     0.074 A 
HETATM   12  C8  UNL     1      26.764   3.257  51.184  1.00  0.00     0.058 A 
HETATM   13  C9  UNL     1      26.781   2.085  51.906  1.00  0.00     0.073 A 
HETATM   14 CL1  UNL     1      27.960   1.389  52.952  1.00  0.00    -0.082 Cl
HETATM   15  N4  UNL     1      22.325   2.941  49.021  1.00  0.00    -0.350 N 
HETATM   16  C10 UNL     1      21.438   2.728  50.116  1.00  0.00     0.089 C 
HETATM   17  C11 UNL     1      20.643   2.469  51.123  1.00  0.00     0.030 C 
HETATM   18  C12 UNL     1      19.794   2.108  52.231  1.00  0.00     0.213 A 
HETATM   19  C13 UNL     1      19.807   0.895  52.698  1.00  0.00     0.066 A 
HETATM   20  F1  UNL     1      20.561   1.305  51.666  1.00  0.00    -0.361 F 
HETATM   21  C14 UNL     1      19.714  -0.459  53.347  1.00  0.00     0.070 C 
HETATM   22  C15 UNL     1      21.088  -0.926  53.596  1.00  0.00    -0.001 C 
HETATM   23  C16 UNL     1      21.419  -1.600  54.900  1.00  0.00     0.033 C 
HETATM   24  C17 UNL     1      22.889  -1.209  55.123  1.00  0.00    -0.018 C 
HETATM   25  C18 UNL     1      23.271  -0.561  54.050  1.00  0.00    -0.009 C 
HETATM   26  C19 UNL     1      21.992   0.264  53.725  1.00  0.00     0.044 C 
HETATM   27  H1  UNL     1      26.313  -0.571  52.192  1.00  0.00     0.330 HD
HETATM   28  H5  UNL     1      21.983   2.768  48.055  1.00  0.00     0.166 HD
ENDROOT
TORSDOF 0
ENDMDL
MODEL 6
REMARK VINA RESULT:      -8.9      2.804      5.617
REMARK  0 active torsions:
REMARK  status: ('A' for Active; 'I' for Inactive)
ROOT
HETATM    1  O1  UNL     1      21.192   1.315  52.425  1.00  0.00    -0.140 OA
HETATM    2  C1  UNL     1      20.606   1.014  53.441  1.00  0.00     0.385 A 
HETATM    3  N1  UNL     1      20.226   2.163  52.736  1.00  0.00     0.125 N 
HETATM    4  C2  UNL     1      20.629   2.902  51.545  1.00  0.00     0.193 A 
HETATM    5  C3  UNL     1      21.974   3.306  51.474  1.00  0.00     0.060 A 
HETATM    6  C4  UNL     1      22.570   4.000  50.457  1.00  0.00     0.041 A 
HETATM    7  C5  UNL     1      23.877   4.395  50.353  1.00  0.00     0.141 A 
HETATM    8  N2  UNL     1      24.276   5.063  49.260  1.00  0.00    -0.224 NA
HETATM    9  C6  UNL     1      23.439   5.367  48.248  1.00  0.00     0.236 A 
HETATM   10  N3  UNL     1      22.134   4.991  48.313  1.00  0.00    -0.241 NA
HETATM   11  C7  UNL     1      21.750   4.325  49.407  1.00  0.00     0.074 A 
HETATM   12  C8  UNL     1      20.433   3.937  49.465  1.00  0.00     0.058 A 
HETATM   13  C9  UNL     1      19.829   3.238  50.486  1.00  0.00     0.073 A 
HETATM   14 CL1  UNL     1      18.210   2.692  50.714  1.00  0.00    -0.082 Cl
HETATM   15  N4  UNL     1      25.063   4.256  51.183  1.00  0.00    -0.350 N 
HETATM   16  C10 UNL     1      25.406   2.901  51.461  1.00  0.00     0.089 C 
HETATM   17  C11 UNL     1      25.684   1.661  51.773  1.00  0.00     0.030 C 
HETATM   18  C12 UNL     1      25.947   0.303  52.183  1.00  0.00     0.213 A 
HETATM   19  C13 UNL     1      25.425  -0.162  53.277  1.00  0.00     0.066 A 
HETATM   20  F1  UNL     1      25.234   1.090  52.836  1.00  0.00    -0.361 F 
HETATM   21  C14 UNL     1      24.893  -0.841  54.511  1.00  0.00     0.070 C 
HETATM   22  C15 UNL     1      23.448  -0.569  54.577  1.00  0.00    -0.001 C 
HETATM   23  C16 UNL     1      22.500  -1.673  54.963  1.00  0.00     0.033 C 
HETATM   24  C17 UNL     1      21.223  -1.312  54.187  1.00  0.00    -0.018 C 
HETATM   25  C18 UNL     1      21.446  -0.154  53.615  1.00  0.00    -0.009 C 
HETATM   26  C19 UNL     1      22.936  -0.310  53.192  1.00  0.00     0.044 C 
HETATM   27  H1  UNL     1      19.389   2.713  53.110  1.00  0.00     0.330 HD
HETATM   28  H5  UNL     1      25.659   5.016  51.565  1.00  0.00     0.166 HD
ENDROOT
TORSDOF 0
ENDMDL
MODEL 7
REMARK VINA RESULT:      -8.6      2.145      3.028
REMARK  0 active torsions:
REMARK  status: ('A' for Active; 'I' for Inactive)
ROOT
HETATM    1  O1  UNL     1      20.232   1.448  52.228  1.00  0.00    -0.140 OA
HETATM    2  C1  UNL     1      19.268   1.337  51.504  1.00  0.00     0.385 A 
HETATM    3  N1  UNL     1      19.981   0.195  51.888  1.00  0.00     0.125 N 
HETATM    4  C2  UNL     1      21.156  -0.149  52.680  1.00  0.00     0.193 A 
HETATM    5  C3  UNL     1      22.363   0.484  52.334  1.00  0.00     0.060 A 
HETATM    6  C4  UNL     1      23.579   0.320  52.937  1.00  0.00     0.041 A 
HETATM    7  C5  UNL     1      24.766   0.932  52.632  1.00  0.00     0.141 A 
HETATM    8  N2  UNL     1      25.858   0.643  53.356  1.00  0.00    -0.224 NA
HETATM    9  C6  UNL     1      25.840  -0.231  54.381  1.00  0.00     0.236 A 
HETATM   10  N3  UNL     1      24.682  -0.858  54.717  1.00  0.00    -0.241 NA
HETATM   11  C7  UNL     1      23.600  -0.562  53.988  1.00  0.00     0.074 A 
HETATM   12  C8  UNL     1      22.428  -1.188  54.335  1.00  0.00     0.058 A 
HETATM   13  C9  UNL     1      21.201  -1.025  53.732  1.00  0.00     0.073 A 
HETATM   14 CL1  UNL     1      19.660  -1.734  54.035  1.00  0.00    -0.082 Cl
HETATM   15  N4  UNL     1      25.194   1.914  51.650  1.00  0.00    -0.350 N 
HETATM   16  C10 UNL     1      24.483   3.146  51.732  1.00  0.00     0.089 C 
HETATM   17  C11 UNL     1      23.786   4.254  51.762  1.00  0.00     0.030 C 
HETATM   18  C12 UNL     1      22.970   5.442  51.740  1.00  0.00     0.213 A 
HETATM   19  C13 UNL     1      21.918   5.500  50.979  1.00  0.00     0.066 A 
HETATM   20  F1  UNL     1      22.731   4.435  51.047  1.00  0.00    -0.361 F 
HETATM   21  C14 UNL     1      20.676   5.715  50.156  1.00  0.00     0.070 C 
HETATM   22  C15 UNL     1      19.825   4.526  50.322  1.00  0.00    -0.001 C 
HETATM   23  C16 UNL     1      18.340   4.694  50.506  1.00  0.00     0.033 C 
HETATM   24  C17 UNL     1      17.968   3.493  51.389  1.00  0.00    -0.018 C 
HETATM   25  C18 UNL     1      19.054   2.770  51.518  1.00  0.00    -0.009 C 
HETATM   26  C19 UNL     1      20.140   3.879  51.638  1.00  0.00     0.044 C 
HETATM   27  H1  UNL     1      19.610  -0.751  51.553  1.00  0.00     0.330 HD
HETATM   28  H5  UNL     1      25.940   1.809  50.934  1.00  0.00     0.166 HD
ENDROOT
TORSDOF 0
ENDMDL
MODEL 8
REMARK VINA RESULT:      -8.6      3.568      5.803
REMARK  0 active torsions:
REMARK  status: ('A' for Active; 'I' for Inactive)
ROOT
HETATM    1  O1  UNL     1      19.813   2.290  51.427  1.00  0.00    -0.140 OA
HETATM    2  C1  UNL     1      18.766   1.996  51.958  1.00  0.00     0.385 A 
HETATM    3  N1  UNL     1      18.952   3.293  51.466  1.00  0.00     0.125 N 
HETATM    4  C2  UNL     1      19.990   4.078  50.809  1.00  0.00     0.193 A 
HETATM    5  C3  UNL     1      21.238   4.148  51.455  1.00  0.00     0.060 A 
HETATM    6  C4  UNL     1      22.350   4.816  51.024  1.00  0.00     0.041 A 
HETATM    7  C5  UNL     1      23.579   4.891  51.623  1.00  0.00     0.141 A 
HETATM    8  N2  UNL     1      24.556   5.596  51.031  1.00  0.00    -0.224 NA
HETATM    9  C6  UNL     1      24.381   6.239  49.860  1.00  0.00     0.236 A 
HETATM   10  N3  UNL     1      23.176   6.188  49.233  1.00  0.00    -0.241 NA
HETATM   11  C7  UNL     1      22.211   5.483  49.833  1.00  0.00     0.074 A 
HETATM   12  C8  UNL     1      20.996   5.424  49.192  1.00  0.00     0.058 A 
HETATM   13  C9  UNL     1      19.875   4.751  49.622  1.00  0.00     0.073 A 
HETATM   14 CL1  UNL     1      18.296   4.590  48.952  1.00  0.00    -0.082 Cl
HETATM   15  N4  UNL     1      24.167   4.347  52.836  1.00  0.00    -0.350 N 
HETATM   16  C10 UNL     1      24.130   2.924  52.896  1.00  0.00     0.089 C 
HETATM   17  C11 UNL     1      24.038   1.621  52.983  1.00  0.00     0.030 C 
HETATM   18  C12 UNL     1      23.868   0.196  53.119  1.00  0.00     0.213 A 
HETATM   19  C13 UNL     1      22.813  -0.284  53.707  1.00  0.00     0.066 A 
HETATM   20  F1  UNL     1      23.046   1.028  53.550  1.00  0.00    -0.361 F 
HETATM   21  C14 UNL     1      21.651  -0.986  54.357  1.00  0.00     0.070 C 
HETATM   22  C15 UNL     1      20.417  -0.382  53.828  1.00  0.00    -0.001 C 
HETATM   23  C16 UNL     1      19.256  -1.265  53.458  1.00  0.00     0.033 C 
HETATM   24  C17 UNL     1      18.595  -0.494  52.304  1.00  0.00    -0.018 C 
HETATM   25  C18 UNL     1      19.233   0.646  52.200  1.00  0.00    -0.009 C 
HETATM   26  C19 UNL     1      20.698   0.195  52.472  1.00  0.00     0.044 C 
HETATM   27  H1  UNL     1      18.128   3.970  51.543  1.00  0.00     0.330 HD
HETATM   28  H5  UNL     1      24.599   4.874  53.621  1.00  0.00     0.166 HD
ENDROOT
TORSDOF 0
ENDMDL
MODEL 9
REMARK VINA RESULT:      -8.6      2.442      5.733
REMARK  0 active torsions:
REMARK  status: ('A' for Active; 'I' for Inactive)
ROOT
HETATM    1  O1  UNL     1      24.047   2.202  51.596  1.00  0.00    -0.140 OA
HETATM    2  C1  UNL     1      25.063   2.716  52.009  1.00  0.00     0.385 A 
HETATM    3  N1  UNL     1      24.220   2.038  52.897  1.00  0.00     0.125 N 
HETATM    4  C2  UNL     1      22.949   1.323  52.873  1.00  0.00     0.193 A 
HETATM    5  C3  UNL     1      21.841   2.017  52.356  1.00  0.00     0.060 A 
HETATM    6  C4  UNL     1      20.562   1.548  52.232  1.00  0.00     0.041 A 
HETATM    7  C5  UNL     1      19.468   2.194  51.720  1.00  0.00     0.141 A 
HETATM    8  N2  UNL     1      18.290   1.553  51.674  1.00  0.00    -0.224 NA
HETATM    9  C6  UNL     1      18.133   0.288  52.113  1.00  0.00     0.236 A 
HETATM   10  N3  UNL     1      19.195  -0.388  52.626  1.00  0.00    -0.241 NA
HETATM   11  C7  UNL     1      20.363   0.262  52.666  1.00  0.00     0.074 A 
HETATM   12  C8  UNL     1      21.438  -0.426  53.176  1.00  0.00     0.058 A 
HETATM   13  C9  UNL     1      22.726   0.042  53.301  1.00  0.00     0.073 A 
HETATM   14 CL1  UNL     1      24.163  -0.679  53.920  1.00  0.00    -0.082 Cl
HETATM   15  N4  UNL     1      19.223   3.506  51.146  1.00  0.00    -0.350 N 
HETATM   16  C10 UNL     1      20.028   3.785  50.004  1.00  0.00     0.089 C 
HETATM   17  C11 UNL     1      20.812   4.069  48.995  1.00  0.00     0.030 C 
HETATM   18  C12 UNL     1      21.727   4.416  47.935  1.00  0.00     0.213 A 
HETATM   19  C13 UNL     1      22.848   5.013  48.208  1.00  0.00     0.066 A 
HETATM   20  F1  UNL     1      21.943   4.668  49.136  1.00  0.00    -0.361 F 
HETATM   21  C14 UNL     1      24.177   5.701  48.366  1.00  0.00     0.070 C 
HETATM   22  C15 UNL     1      24.902   5.019  49.450  1.00  0.00    -0.001 C 
HETATM   23  C16 UNL     1      26.371   4.728  49.295  1.00  0.00     0.033 C 
HETATM   24  C17 UNL     1      26.550   3.435  50.106  1.00  0.00    -0.018 C 
HETATM   25  C18 UNL     1      25.398   3.190  50.681  1.00  0.00    -0.009 C 
HETATM   26  C19 UNL     1      24.407   3.607  49.556  1.00  0.00     0.044 C 
HETATM   27  H1  UNL     1      24.538   1.964  53.915  1.00  0.00     0.330 HD
HETATM   28  H5  UNL     1      18.543   4.222  51.471  1.00  0.00     0.166 HD
ENDROOT
TORSDOF 0
ENDMDL
