MODEL 1
REMARK VINA RESULT:      -9.1      0.000      0.000
REMARK  4 active torsions:
REMARK  status: ('A' for Active; 'I' for Inactive)
REMARK    1  A    between atoms: C2_2  and  O1_4 
REMARK    2  A    between atoms: O1_4  and  C4_5 
REMARK    3  A    between atoms: C8_11  and  N3_12 
REMARK    4  A    between atoms: N3_12  and  C9_13 
ROOT
HETATM    1  C9  UNL     1      26.168  -0.056  52.992  1.00  0.00     0.034 C 
HETATM    2  C10 UNL     1      26.398  -1.293  52.523  1.00  0.00     0.029 C 
HETATM    3  C11 UNL     1      27.642  -2.086  52.417  1.00  0.00    -0.001 C 
HETATM    4  C12 UNL     1      28.713  -1.870  53.139  1.00  0.00    -0.021 C 
HETATM    5  C13 UNL     1      29.104  -0.908  54.202  1.00  0.00     0.077 C 
HETATM    6  C14 UNL     1      28.444   0.399  54.017  1.00  0.00     0.028 C 
HETATM    7  C15 UNL     1      29.224   1.546  54.444  1.00  0.00     0.095 C 
HETATM    8  N4  UNL     1      29.835   2.476  54.798  1.00  0.00    -0.192 NA
HETATM    9  C16 UNL     1      27.261   0.782  53.532  1.00  0.00     0.048 C 
ENDROOT
BRANCH   1  10
HETATM   10  N3  UNL     1      24.850   0.479  52.979  1.00  0.00    -0.340 N 
HETATM   11  H10 UNL     1      25.250   1.213  52.375  1.00  0.00     0.167 HD
BRANCH  10  12
HETATM   12  C8  UNL     1      23.816  -0.165  53.692  1.00  0.00     0.144 A 
HETATM   13  N2  UNL     1      24.213  -0.883  54.752  1.00  0.00    -0.223 NA
HETATM   14  C7  UNL     1      23.276  -1.540  55.498  1.00  0.00     0.236 A 
HETATM   15  N1  UNL     1      21.990  -1.444  55.142  1.00  0.00    -0.241 NA
HETATM   16  C6  UNL     1      21.538  -0.744  54.096  1.00  0.00     0.077 A 
HETATM   17  C5  UNL     1      20.210  -0.636  53.716  1.00  0.00     0.072 A 
HETATM   18  C17 UNL     1      22.488  -0.084  53.349  1.00  0.00     0.075 A 
HETATM   19  C4  UNL     1      19.818   0.120  52.603  1.00  0.00     0.107 A 
HETATM   20  C19 UNL     1      20.839   0.737  51.928  1.00  0.00     0.136 A 
HETATM   21  C18 UNL     1      22.174   0.674  52.248  1.00  0.00     0.121 A 
HETATM   22  O2  UNL     1      20.465   1.481  50.833  1.00  0.00    -0.344 OA
HETATM   23  O3  UNL     1      23.073   1.357  51.459  1.00  0.00    -0.345 OA
HETATM   24  C21 UNL     1      22.795   1.767  50.139  1.00  0.00     0.202 C 
HETATM   25  C20 UNL     1      21.348   1.857  49.802  1.00  0.00     0.202 C 
BRANCH  19  26
HETATM   26  O1  UNL     1      18.469   0.077  52.427  1.00  0.00    -0.344 OA
BRANCH  26  27
HETATM   27  C2  UNL     1      17.679  -0.774  51.694  1.00  0.00     0.121 C 
HETATM   28  C1  UNL     1      17.234  -0.046  50.437  1.00  0.00     0.040 C 
HETATM   29  C3  UNL     1      16.457  -1.155  52.508  1.00  0.00     0.040 C 
ENDBRANCH  26  27
ENDBRANCH  19  26
ENDBRANCH  10  12
ENDBRANCH   1  10
TORSDOF 4
ENDMDL
MODEL 2
REMARK VINA RESULT:      -8.9      2.237      7.770
REMARK  4 active torsions:
REMARK  status: ('A' for Active; 'I' for Inactive)
REMARK    1  A    between atoms: C2_2  and  O1_4 
REMARK    2  A    between atoms: O1_4  and  C4_5 
REMARK    3  A    between atoms: C8_11  and  N3_12 
REMARK    4  A    between atoms: N3_12  and  C9_13 
ROOT
HETATM    1  C9  UNL     1      20.439   0.898  51.953  1.00  0.00     0.034 C 
HETATM    2  C10 UNL     1      20.106   1.440  50.770  1.00  0.00     0.029 C 
HETATM    3  C11 UNL     1      18.999   1.148  49.833  1.00  0.00    -0.001 C 
HETATM    4  C12 UNL     1      17.884   0.554  50.179  1.00  0.00    -0.021 C 
HETATM    5  C13 UNL     1      17.317   0.001  51.437  1.00  0.00     0.077 C 
HETATM    6  C14 UNL     1      18.376  -0.533  52.316  1.00  0.00     0.028 C 
HETATM    7  C15 UNL     1      17.985  -1.678  53.119  1.00  0.00     0.095 C 
HETATM    8  N4  UNL     1      17.680  -2.590  53.781  1.00  0.00    -0.192 NA
HETATM    9  C16 UNL     1      19.646  -0.198  52.551  1.00  0.00     0.048 C 
ENDROOT
BRANCH   1  10
HETATM   10  N3  UNL     1      21.576   1.375  52.662  1.00  0.00    -0.340 N 
HETATM   11  H10 UNL     1      21.329   2.293  52.261  1.00  0.00     0.167 HD
BRANCH  10  12
HETATM   12  C8  UNL     1      22.352   0.488  53.438  1.00  0.00     0.144 A 
HETATM   13  N2  UNL     1      21.671  -0.223  54.347  1.00  0.00    -0.223 NA
HETATM   14  C7  UNL     1      22.346  -1.107  55.141  1.00  0.00     0.236 A 
HETATM   15  N1  UNL     1      23.668  -1.230  54.984  1.00  0.00    -0.241 NA
HETATM   16  C6  UNL     1      24.398  -0.546  54.095  1.00  0.00     0.077 A 
HETATM   17  C5  UNL     1      25.768  -0.663  53.921  1.00  0.00     0.072 A 
HETATM   18  C17 UNL     1      23.711   0.342  53.298  1.00  0.00     0.075 A 
HETATM   19  C4  UNL     1      26.459   0.092  52.965  1.00  0.00     0.107 A 
HETATM   20  C19 UNL     1      25.684   0.945  52.223  1.00  0.00     0.136 A 
HETATM   21  C18 UNL     1      24.325   1.111  52.341  1.00  0.00     0.121 A 
HETATM   22  O2  UNL     1      26.353   1.692  51.281  1.00  0.00    -0.344 OA
HETATM   23  O3  UNL     1      23.698   2.016  51.512  1.00  0.00    -0.345 OA
HETATM   24  C21 UNL     1      24.373   3.065  50.855  1.00  0.00     0.202 C 
HETATM   25  C20 UNL     1      25.841   2.872  50.708  1.00  0.00     0.202 C 
BRANCH  19  26
HETATM   26  O1  UNL     1      27.790  -0.193  52.980  1.00  0.00    -0.344 OA
BRANCH  26  27
HETATM   27  C2  UNL     1      28.718  -0.132  53.990  1.00  0.00     0.121 C 
HETATM   28  C1  UNL     1      29.182   1.308  54.124  1.00  0.00     0.040 C 
HETATM   29  C3  UNL     1      29.904  -1.008  53.639  1.00  0.00     0.040 C 
ENDBRANCH  26  27
ENDBRANCH  19  26
ENDBRANCH  10  12
ENDBRANCH   1  10
TORSDOF 4
ENDMDL
MODEL 3
REMARK VINA RESULT:      -8.9      1.256      1.908
REMARK  4 active torsions:
REMARK  status: ('A' for Active; 'I' for Inactive)
REMARK    1  A    between atoms: C2_2  and  O1_4 
REMARK    2  A    between atoms: O1_4  and  C4_5 
REMARK    3  A    between atoms: C8_11  and  N3_12 
REMARK    4  A    between atoms: N3_12  and  C9_13 
ROOT
HETATM    1  C9  UNL     1      26.042   0.673  53.110  1.00  0.00     0.034 C 
HETATM    2  C10 UNL     1      26.480   1.889  53.475  1.00  0.00     0.029 C 
HETATM    3  C11 UNL     1      27.777   2.340  54.024  1.00  0.00    -0.001 C 
HETATM    4  C12 UNL     1      28.901   1.681  53.886  1.00  0.00    -0.021 C 
HETATM    5  C13 UNL     1      29.318   0.412  53.237  1.00  0.00     0.077 C 
HETATM    6  C14 UNL     1      28.235  -0.592  53.269  1.00  0.00     0.028 C 
HETATM    7  C15 UNL     1      28.680  -1.970  53.378  1.00  0.00     0.095 C 
HETATM    8  N4  UNL     1      29.025  -3.083  53.451  1.00  0.00    -0.192 NA
HETATM    9  C16 UNL     1      26.903  -0.524  53.220  1.00  0.00     0.048 C 
ENDROOT
BRANCH   1  10
HETATM   10  N3  UNL     1      24.723   0.513  52.601  1.00  0.00    -0.340 N 
HETATM   11  H10 UNL     1      25.091   0.968  51.752  1.00  0.00     0.167 HD
BRANCH  10  12
HETATM   12  C8  UNL     1      23.726  -0.094  53.394  1.00  0.00     0.144 A 
HETATM   13  N2  UNL     1      24.175  -0.756  54.470  1.00  0.00    -0.223 NA
HETATM   14  C7  UNL     1      23.276  -1.374  55.293  1.00  0.00     0.236 A 
HETATM   15  N1  UNL     1      21.975  -1.298  54.994  1.00  0.00    -0.241 NA
HETATM   16  C6  UNL     1      21.472  -0.653  53.935  1.00  0.00     0.077 A 
HETATM   17  C5  UNL     1      20.127  -0.566  53.613  1.00  0.00     0.072 A 
HETATM   18  C17 UNL     1      22.383  -0.032  53.110  1.00  0.00     0.075 A 
HETATM   19  C4  UNL     1      19.680   0.132  52.482  1.00  0.00     0.107 A 
HETATM   20  C19 UNL     1      20.667   0.713  51.729  1.00  0.00     0.136 A 
HETATM   21  C18 UNL     1      22.015   0.668  51.988  1.00  0.00     0.121 A 
HETATM   22  O2  UNL     1      20.239   1.400  50.616  1.00  0.00    -0.344 OA
HETATM   23  O3  UNL     1      22.875   1.310  51.124  1.00  0.00    -0.345 OA
HETATM   24  C21 UNL     1      22.533   1.651  49.799  1.00  0.00     0.202 C 
HETATM   25  C20 UNL     1      21.072   1.722  49.526  1.00  0.00     0.202 C 
BRANCH  19  26
HETATM   26  O1  UNL     1      18.325   0.078  52.373  1.00  0.00    -0.344 OA
BRANCH  26  27
HETATM   27  C2  UNL     1      17.503  -0.816  51.732  1.00  0.00     0.121 C 
HETATM   28  C1  UNL     1      17.003  -0.169  50.452  1.00  0.00     0.040 C 
HETATM   29  C3  UNL     1      16.320  -1.141  52.622  1.00  0.00     0.040 C 
ENDBRANCH  26  27
ENDBRANCH  19  26
ENDBRANCH  10  12
ENDBRANCH   1  10
TORSDOF 4
ENDMDL
MODEL 4
REMARK VINA RESULT:      -8.8      4.163      5.726
REMARK  4 active torsions:
REMARK  status: ('A' for Active; 'I' for Inactive)
REMARK    1  A    between atoms: C2_2  and  O1_4 
REMARK    2  A    between atoms: O1_4  and  C4_5 
REMARK    3  A    between atoms: C8_11  and  N3_12 
REMARK    4  A    between atoms: N3_12  and  C9_13 
ROOT
HETATM    1  C9  UNL     1      26.417   4.590  49.325  1.00  0.00     0.034 C 
HETATM    2  C10 UNL     1      25.628   5.647  49.579  1.00  0.00     0.029 C 
HETATM    3  C11 UNL     1      25.875   7.102  49.480  1.00  0.00    -0.001 C 
HETATM    4  C12 UNL     1      26.807   7.638  48.732  1.00  0.00    -0.021 C 
HETATM    5  C13 UNL     1      27.854   7.129  47.808  1.00  0.00     0.077 C 
HETATM    6  C14 UNL     1      28.358   5.809  48.237  1.00  0.00     0.028 C 
HETATM    7  C15 UNL     1      29.758   5.562  47.943  1.00  0.00     0.095 C 
HETATM    8  N4  UNL     1      30.878   5.345  47.699  1.00  0.00    -0.192 NA
HETATM    9  C16 UNL     1      27.808   4.760  48.852  1.00  0.00     0.048 C 
ENDROOT
BRANCH   1  10
HETATM   10  N3  UNL     1      25.921   3.269  49.507  1.00  0.00    -0.340 N 
HETATM   11  H10 UNL     1      25.710   3.305  48.498  1.00  0.00     0.167 HD
BRANCH  10  12
HETATM   12  C8  UNL     1      25.959   2.667  50.783  1.00  0.00     0.144 A 
HETATM   13  N2  UNL     1      27.165   2.638  51.366  1.00  0.00    -0.223 NA
HETATM   14  C7  UNL     1      27.292   2.072  52.603  1.00  0.00     0.236 A 
HETATM   15  N1  UNL     1      26.203   1.563  53.190  1.00  0.00    -0.241 NA
HETATM   16  C6  UNL     1      24.977   1.564  52.655  1.00  0.00     0.077 A 
HETATM   17  C5  UNL     1      23.841   1.041  53.252  1.00  0.00     0.072 A 
HETATM   18  C17 UNL     1      24.857   2.136  51.409  1.00  0.00     0.075 A 
HETATM   19  C4  UNL     1      22.589   1.082  52.622  1.00  0.00     0.107 A 
HETATM   20  C19 UNL     1      22.577   1.672  51.385  1.00  0.00     0.136 A 
HETATM   21  C18 UNL     1      23.662   2.210  50.736  1.00  0.00     0.121 A 
HETATM   22  O2  UNL     1      21.354   1.717  50.758  1.00  0.00    -0.344 OA
HETATM   23  O3  UNL     1      23.474   2.769  49.490  1.00  0.00    -0.345 OA
HETATM   24  C21 UNL     1      22.372   2.470  48.664  1.00  0.00     0.202 C 
HETATM   25  C20 UNL     1      21.190   1.909  49.372  1.00  0.00     0.202 C 
BRANCH  19  26
HETATM   26  O1  UNL     1      21.628   0.508  53.397  1.00  0.00    -0.344 OA
BRANCH  26  27
HETATM   27  C2  UNL     1      21.014  -0.717  53.318  1.00  0.00     0.121 C 
HETATM   28  C1  UNL     1      19.511  -0.499  53.341  1.00  0.00     0.040 C 
HETATM   29  C3  UNL     1      21.414  -1.559  54.514  1.00  0.00     0.040 C 
ENDBRANCH  26  27
ENDBRANCH  19  26
ENDBRANCH  10  12
ENDBRANCH   1  10
TORSDOF 4
ENDMDL
MODEL 5
REMARK VINA RESULT:      -8.8      4.001      5.889
REMARK  4 active torsions:
REMARK  status: ('A' for Active; 'I' for Inactive)
REMARK    1  A    between atoms: C2_2  and  O1_4 
REMARK    2  A    between atoms: O1_4  and  C4_5 
REMARK    3  A    between atoms: C8_11  and  N3_12 
REMARK    4  A    between atoms: N3_12  and  C9_13 
ROOT
HETATM    1  C9  UNL     1      26.240   4.614  49.246  1.00  0.00     0.034 C 
HETATM    2  C10 UNL     1      27.375   5.031  48.661  1.00  0.00     0.029 C 
HETATM    3  C11 UNL     1      27.862   6.385  48.318  1.00  0.00    -0.001 C 
HETATM    4  C12 UNL     1      27.436   7.484  48.890  1.00  0.00    -0.021 C 
HETATM    5  C13 UNL     1      26.450   7.820  49.950  1.00  0.00     0.077 C 
HETATM    6  C14 UNL     1      25.320   6.870  49.957  1.00  0.00     0.028 C 
HETATM    7  C15 UNL     1      24.043   7.439  50.347  1.00  0.00     0.095 C 
HETATM    8  N4  UNL     1      23.013   7.880  50.674  1.00  0.00    -0.192 NA
HETATM    9  C16 UNL     1      25.197   5.570  49.679  1.00  0.00     0.048 C 
ENDROOT
BRANCH   1  10
HETATM   10  N3  UNL     1      26.018   3.226  49.464  1.00  0.00    -0.340 N 
HETATM   11  H10 UNL     1      25.928   3.171  48.438  1.00  0.00     0.167 HD
BRANCH  10  12
HETATM   12  C8  UNL     1      26.028   2.703  50.775  1.00  0.00     0.144 A 
HETATM   13  N2  UNL     1      27.215   2.739  51.396  1.00  0.00    -0.223 NA
HETATM   14  C7  UNL     1      27.314   2.252  52.668  1.00  0.00     0.236 A 
HETATM   15  N1  UNL     1      26.218   1.754  53.251  1.00  0.00    -0.241 NA
HETATM   16  C6  UNL     1      25.010   1.692  52.679  1.00  0.00     0.077 A 
HETATM   17  C5  UNL     1      23.868   1.179  53.272  1.00  0.00     0.072 A 
HETATM   18  C17 UNL     1      24.918   2.185  51.397  1.00  0.00     0.075 A 
HETATM   19  C4  UNL     1      22.637   1.151  52.602  1.00  0.00     0.107 A 
HETATM   20  C19 UNL     1      22.652   1.665  51.331  1.00  0.00     0.136 A 
HETATM   21  C18 UNL     1      23.745   2.189  50.685  1.00  0.00     0.121 A 
HETATM   22  O2  UNL     1      21.448   1.642  50.665  1.00  0.00    -0.344 OA
HETATM   23  O3  UNL     1      23.585   2.667  49.402  1.00  0.00    -0.345 OA
HETATM   24  C21 UNL     1      22.517   2.292  48.561  1.00  0.00     0.202 C 
HETATM   25  C20 UNL     1      21.325   1.746  49.266  1.00  0.00     0.202 C 
BRANCH  19  26
HETATM   26  O1  UNL     1      21.664   0.602  53.380  1.00  0.00    -0.344 OA
BRANCH  26  27
HETATM   27  C2  UNL     1      21.121  -0.658  53.396  1.00  0.00     0.121 C 
HETATM   28  C1  UNL     1      19.608  -0.525  53.399  1.00  0.00     0.040 C 
HETATM   29  C3  UNL     1      21.561  -1.381  54.654  1.00  0.00     0.040 C 
ENDBRANCH  26  27
ENDBRANCH  19  26
ENDBRANCH  10  12
ENDBRANCH   1  10
TORSDOF 4
ENDMDL
MODEL 6
REMARK VINA RESULT:      -8.8      2.224      2.907
REMARK  4 active torsions:
REMARK  status: ('A' for Active; 'I' for Inactive)
REMARK    1  A    between atoms: C2_2  and  O1_4 
REMARK    2  A    between atoms: O1_4  and  C4_5 
REMARK    3  A    between atoms: C8_11  and  N3_12 
REMARK    4  A    between atoms: N3_12  and  C9_13 
ROOT
HETATM    1  C9  UNL     1      26.322   0.841  52.782  1.00  0.00     0.034 C 
HETATM    2  C10 UNL     1      26.741   2.020  53.271  1.00  0.00     0.029 C 
HETATM    3  C11 UNL     1      27.941   2.386  54.055  1.00  0.00    -0.001 C 
HETATM    4  C12 UNL     1      29.043   1.679  54.081  1.00  0.00    -0.021 C 
HETATM    5  C13 UNL     1      29.513   0.416  53.455  1.00  0.00     0.077 C 
HETATM    6  C14 UNL     1      28.400  -0.535  53.256  1.00  0.00     0.028 C 
HETATM    7  C15 UNL     1      28.762  -1.935  53.378  1.00  0.00     0.095 C 
HETATM    8  N4  UNL     1      29.042  -3.066  53.457  1.00  0.00    -0.192 NA
HETATM    9  C16 UNL     1      27.101  -0.400  52.984  1.00  0.00     0.048 C 
ENDROOT
BRANCH   1  10
HETATM   10  N3  UNL     1      25.106   0.765  52.049  1.00  0.00    -0.340 N 
HETATM   11  H10 UNL     1      25.694   0.960  51.224  1.00  0.00     0.167 HD
BRANCH  10  12
HETATM   12  C8  UNL     1      23.890   0.503  52.717  1.00  0.00     0.144 A 
HETATM   13  N2  UNL     1      23.901  -0.565  53.526  1.00  0.00    -0.223 NA
HETATM   14  C7  UNL     1      22.765  -0.891  54.211  1.00  0.00     0.236 A 
HETATM   15  N1  UNL     1      21.677  -0.130  54.048  1.00  0.00    -0.241 NA
HETATM   16  C6  UNL     1      21.610   0.946  53.254  1.00  0.00     0.077 A 
HETATM   17  C5  UNL     1      20.490   1.742  53.077  1.00  0.00     0.072 A 
HETATM   18  C17 UNL     1      22.758   1.268  52.567  1.00  0.00     0.075 A 
HETATM   19  C4  UNL     1      20.502   2.854  52.224  1.00  0.00     0.107 A 
HETATM   20  C19 UNL     1      21.694   3.089  51.588  1.00  0.00     0.136 A 
HETATM   21  C18 UNL     1      22.840   2.342  51.718  1.00  0.00     0.121 A 
HETATM   22  O2  UNL     1      21.716   4.178  50.748  1.00  0.00    -0.344 OA
HETATM   23  O3  UNL     1      23.956   2.719  51.002  1.00  0.00    -0.345 OA
HETATM   24  C21 UNL     1      23.904   3.539  49.856  1.00  0.00     0.202 C 
HETATM   25  C20 UNL     1      22.672   4.363  49.730  1.00  0.00     0.202 C 
BRANCH  19  26
HETATM   26  O1  UNL     1      19.293   3.479  52.210  1.00  0.00    -0.344 OA
BRANCH  26  27
HETATM   27  C2  UNL     1      18.386   3.672  51.198  1.00  0.00     0.121 C 
HETATM   28  C1  UNL     1      17.005   3.810  51.816  1.00  0.00     0.040 C 
HETATM   29  C3  UNL     1      18.400   2.472  50.272  1.00  0.00     0.040 C 
ENDBRANCH  26  27
ENDBRANCH  19  26
ENDBRANCH  10  12
ENDBRANCH   1  10
TORSDOF 4
ENDMDL
MODEL 7
REMARK VINA RESULT:      -8.4      1.394      2.954
REMARK  4 active torsions:
REMARK  status: ('A' for Active; 'I' for Inactive)
REMARK    1  A    between atoms: C2_2  and  O1_4 
REMARK    2  A    between atoms: O1_4  and  C4_5 
REMARK    3  A    between atoms: C8_11  and  N3_12 
REMARK    4  A    between atoms: N3_12  and  C9_13 
ROOT
HETATM    1  C9  UNL     1      26.279  -0.420  53.215  1.00  0.00     0.034 C 
HETATM    2  C10 UNL     1      26.595  -1.634  52.738  1.00  0.00     0.029 C 
HETATM    3  C11 UNL     1      27.901  -2.301  52.540  1.00  0.00    -0.001 C 
HETATM    4  C12 UNL     1      28.997  -1.970  53.175  1.00  0.00    -0.021 C 
HETATM    5  C13 UNL     1      29.371  -0.959  54.199  1.00  0.00     0.077 C 
HETATM    6  C14 UNL     1      28.570   0.273  54.057  1.00  0.00     0.028 C 
HETATM    7  C15 UNL     1      29.262   1.498  54.416  1.00  0.00     0.095 C 
HETATM    8  N4  UNL     1      29.802   2.488  54.716  1.00  0.00    -0.192 NA
HETATM    9  C16 UNL     1      27.321   0.530  53.664  1.00  0.00     0.048 C 
ENDROOT
BRANCH   1  10
HETATM   10  N3  UNL     1      24.917  -0.019  53.301  1.00  0.00    -0.340 N 
HETATM   11  H10 UNL     1      24.869  -0.671  54.099  1.00  0.00     0.167 HD
BRANCH  10  12
HETATM   12  C8  UNL     1      24.396   0.923  52.389  1.00  0.00     0.144 A 
HETATM   13  N2  UNL     1      25.303   1.723  51.812  1.00  0.00    -0.223 NA
HETATM   14  C7  UNL     1      24.884   2.665  50.916  1.00  0.00     0.236 A 
HETATM   15  N1  UNL     1      23.577   2.757  50.646  1.00  0.00    -0.241 NA
HETATM   16  C6  UNL     1      22.629   1.987  51.192  1.00  0.00     0.077 A 
HETATM   17  C5  UNL     1      21.273   2.071  50.922  1.00  0.00     0.072 A 
HETATM   18  C17 UNL     1      23.059   1.040  52.094  1.00  0.00     0.075 A 
HETATM   19  C4  UNL     1      20.342   1.224  51.538  1.00  0.00     0.107 A 
HETATM   20  C19 UNL     1      20.872   0.317  52.419  1.00  0.00     0.136 A 
HETATM   21  C18 UNL     1      22.202   0.178  52.733  1.00  0.00     0.121 A 
HETATM   22  O2  UNL     1      19.966  -0.519  53.030  1.00  0.00    -0.344 OA
HETATM   23  O3  UNL     1      22.567  -0.790  53.643  1.00  0.00    -0.345 OA
HETATM   24  C21 UNL     1      21.671  -1.359  54.572  1.00  0.00     0.202 C 
HETATM   25  C20 UNL     1      20.232  -1.228  54.218  1.00  0.00     0.202 C 
BRANCH  19  26
HETATM   26  O1  UNL     1      19.075   1.494  51.118  1.00  0.00    -0.344 OA
BRANCH  26  27
HETATM   27  C2  UNL     1      18.352   1.012  50.056  1.00  0.00     0.121 C 
HETATM   28  C1  UNL     1      17.433   2.117  49.565  1.00  0.00     0.040 C 
HETATM   29  C3  UNL     1      17.515  -0.168  50.510  1.00  0.00     0.040 C 
ENDBRANCH  26  27
ENDBRANCH  19  26
ENDBRANCH  10  12
ENDBRANCH   1  10
TORSDOF 4
ENDMDL
MODEL 8
REMARK VINA RESULT:      -8.3      4.035      7.894
REMARK  4 active torsions:
REMARK  status: ('A' for Active; 'I' for Inactive)
REMARK    1  A    between atoms: C2_2  and  O1_4 
REMARK    2  A    between atoms: O1_4  and  C4_5 
REMARK    3  A    between atoms: C8_11  and  N3_12 
REMARK    4  A    between atoms: N3_12  and  C9_13 
ROOT
HETATM    1  C9  UNL     1      22.123   1.757  52.328  1.00  0.00     0.034 C 
HETATM    2  C10 UNL     1      21.128   1.847  51.431  1.00  0.00     0.029 C 
HETATM    3  C11 UNL     1      19.991   0.948  51.133  1.00  0.00    -0.001 C 
HETATM    4  C12 UNL     1      19.513   0.068  51.976  1.00  0.00    -0.021 C 
HETATM    5  C13 UNL     1      19.829  -0.359  53.364  1.00  0.00     0.077 C 
HETATM    6  C14 UNL     1      21.272  -0.233  53.652  1.00  0.00     0.028 C 
HETATM    7  C15 UNL     1      21.803  -1.225  54.568  1.00  0.00     0.095 C 
HETATM    8  N4  UNL     1      22.240  -2.008  55.316  1.00  0.00    -0.192 NA
HETATM    9  C16 UNL     1      22.229   0.607  53.253  1.00  0.00     0.048 C 
ENDROOT
BRANCH   1  10
HETATM   10  N3  UNL     1      23.108   2.781  52.407  1.00  0.00    -0.340 N 
HETATM   11  H10 UNL     1      22.371   3.329  52.877  1.00  0.00     0.167 HD
BRANCH  10  12
HETATM   12  C8  UNL     1      24.399   2.566  51.881  1.00  0.00     0.144 A 
HETATM   13  N2  UNL     1      25.024   1.468  52.330  1.00  0.00    -0.223 NA
HETATM   14  C7  UNL     1      26.279   1.184  51.871  1.00  0.00     0.236 A 
HETATM   15  N1  UNL     1      26.844   2.016  50.989  1.00  0.00    -0.241 NA
HETATM   16  C6  UNL     1      26.267   3.124  50.508  1.00  0.00     0.077 A 
HETATM   17  C5  UNL     1      26.840   3.993  49.593  1.00  0.00     0.072 A 
HETATM   18  C17 UNL     1      25.003   3.403  50.973  1.00  0.00     0.075 A 
HETATM   19  C4  UNL     1      26.167   5.136  49.139  1.00  0.00     0.107 A 
HETATM   20  C19 UNL     1      24.914   5.323  49.663  1.00  0.00     0.136 A 
HETATM   21  C18 UNL     1      24.287   4.503  50.570  1.00  0.00     0.121 A 
HETATM   22  O2  UNL     1      24.246   6.442  49.223  1.00  0.00    -0.344 OA
HETATM   23  O3  UNL     1      23.020   4.839  50.996  1.00  0.00    -0.345 OA
HETATM   24  C21 UNL     1      22.490   6.142  50.901  1.00  0.00     0.202 C 
HETATM   25  C20 UNL     1      23.156   7.021  49.902  1.00  0.00     0.202 C 
BRANCH  19  26
HETATM   26  O1  UNL     1      26.926   5.834  48.250  1.00  0.00    -0.344 OA
BRANCH  26  27
HETATM   27  C2  UNL     1      27.637   7.000  48.387  1.00  0.00     0.121 C 
HETATM   28  C1  UNL     1      26.963   8.071  47.547  1.00  0.00     0.040 C 
HETATM   29  C3  UNL     1      29.052   6.789  47.883  1.00  0.00     0.040 C 
ENDBRANCH  26  27
ENDBRANCH  19  26
ENDBRANCH  10  12
ENDBRANCH   1  10
TORSDOF 4
ENDMDL
MODEL 9
REMARK VINA RESULT:      -8.2      2.714      7.826
REMARK  4 active torsions:
REMARK  status: ('A' for Active; 'I' for Inactive)
REMARK    1  A    between atoms: C2_2  and  O1_4 
REMARK    2  A    between atoms: O1_4  and  C4_5 
REMARK    3  A    between atoms: C8_11  and  N3_12 
REMARK    4  A    between atoms: N3_12  and  C9_13 
ROOT
HETATM    1  C9  UNL     1      20.151   1.675  51.828  1.00  0.00     0.034 C 
HETATM    2  C10 UNL     1      20.093   0.679  50.930  1.00  0.00     0.029 C 
HETATM    3  C11 UNL     1      18.997   0.209  50.054  1.00  0.00    -0.001 C 
HETATM    4  C12 UNL     1      17.973   0.946  49.702  1.00  0.00    -0.021 C 
HETATM    5  C13 UNL     1      17.520   2.336  49.969  1.00  0.00     0.077 C 
HETATM    6  C14 UNL     1      17.930   2.789  51.313  1.00  0.00     0.028 C 
HETATM    7  C15 UNL     1      17.007   3.705  51.959  1.00  0.00     0.095 C 
HETATM    8  N4  UNL     1      16.282   4.454  52.484  1.00  0.00    -0.192 NA
HETATM    9  C16 UNL     1      18.983   2.544  52.095  1.00  0.00     0.048 C 
ENDROOT
BRANCH   1  10
HETATM   10  N3  UNL     1      21.353   1.917  52.550  1.00  0.00    -0.340 N 
HETATM   11  H10 UNL     1      21.269   2.880  52.189  1.00  0.00     0.167 HD
BRANCH  10  12
HETATM   12  C8  UNL     1      21.963   0.876  53.282  1.00  0.00     0.144 A 
HETATM   13  N2  UNL     1      21.150   0.209  54.113  1.00  0.00    -0.223 NA
HETATM   14  C7  UNL     1      21.659  -0.814  54.861  1.00  0.00     0.236 A 
HETATM   15  N1  UNL     1      22.957  -1.116  54.737  1.00  0.00    -0.241 NA
HETATM   16  C6  UNL     1      23.812  -0.485  53.925  1.00  0.00     0.077 A 
HETATM   17  C5  UNL     1      25.158  -0.786  53.787  1.00  0.00     0.072 A 
HETATM   18  C17 UNL     1      23.292   0.545  53.174  1.00  0.00     0.075 A 
HETATM   19  C4  UNL     1      25.988  -0.074  52.911  1.00  0.00     0.107 A 
HETATM   20  C19 UNL     1      25.373   0.931  52.210  1.00  0.00     0.136 A 
HETATM   21  C18 UNL     1      24.048   1.282  52.297  1.00  0.00     0.121 A 
HETATM   22  O2  UNL     1      26.181   1.636  51.348  1.00  0.00    -0.344 OA
HETATM   23  O3  UNL     1      23.590   2.323  51.518  1.00  0.00    -0.345 OA
HETATM   24  C21 UNL     1      24.434   3.306  50.961  1.00  0.00     0.202 C 
HETATM   25  C20 UNL     1      25.864   2.914  50.847  1.00  0.00     0.202 C 
BRANCH  19  26
HETATM   26  O1  UNL     1      27.264  -0.548  52.946  1.00  0.00    -0.344 OA
BRANCH  26  27
HETATM   27  C2  UNL     1      28.420   0.002  53.444  1.00  0.00     0.121 C 
HETATM   28  C1  UNL     1      29.520  -1.041  53.353  1.00  0.00     0.040 C 
HETATM   29  C3  UNL     1      28.213   0.383  54.896  1.00  0.00     0.040 C 
ENDBRANCH  26  27
ENDBRANCH  19  26
ENDBRANCH  10  12
ENDBRANCH   1  10
TORSDOF 4
ENDMDL
