MODEL 1
REMARK VINA RESULT:      -8.9      0.000      0.000
REMARK  4 active torsions:
REMARK  status: ('A' for Active; 'I' for Inactive)
REMARK    1  A    between atoms: C2_2  and  N1_4 
REMARK    2  A    between atoms: N1_4  and  C4_5 
REMARK    3  A    between atoms: C4_5  and  C5_6 
REMARK    4  A    between atoms: C5_6  and  S1_7 
ROOT
HETATM    1  S1  UNL     1      23.219   1.957  50.982  1.00  0.00    -0.099 SA
HETATM    2  C6  UNL     1      24.251   1.177  52.216  1.00  0.00     0.020 A 
HETATM    3  C7  UNL     1      25.548   1.421  52.257  1.00  0.00     0.036 A 
HETATM    4  C8  UNL     1      26.560   0.895  53.175  1.00  0.00     0.029 A 
HETATM    5  C9  UNL     1      27.785   1.421  52.875  1.00  0.00     0.133 A 
HETATM    6  N2  UNL     1      28.851   1.043  53.625  1.00  0.00    -0.253 NA
HETATM    7  C10 UNL     1      28.676   0.162  54.646  1.00  0.00     0.234 A 
HETATM    8  N3  UNL     1      27.477  -0.371  54.961  1.00  0.00    -0.224 NA
HETATM    9  C11 UNL     1      26.415  -0.005  54.224  1.00  0.00     0.141 A 
HETATM   10  N4  UNL     1      25.217  -0.643  54.668  1.00  0.00    -0.339 N 
HETATM   11  C12 UNL     1      23.883  -0.491  54.158  1.00  0.00     0.047 A 
HETATM   12  C13 UNL     1      23.014  -1.265  54.889  1.00  0.00     0.033 A 
HETATM   13  C14 UNL     1      21.660  -1.248  54.538  1.00  0.00     0.046 A 
HETATM   14  C15 UNL     1      21.205  -0.484  53.496  1.00  0.00     0.138 A 
HETATM   15  F1  UNL     1      19.893  -0.472  53.163  1.00  0.00    -0.204 F 
HETATM   16  C16 UNL     1      22.118   0.283  52.787  1.00  0.00     0.081 A 
HETATM   17 CL1  UNL     1      21.502   1.248  51.461  1.00  0.00    -0.113 Cl
HETATM   18  C17 UNL     1      23.477   0.302  53.094  1.00  0.00     0.032 A 
HETATM   19  H16 UNL     1      25.324  -1.295  55.450  1.00  0.00     0.167 HD
ENDROOT
BRANCH   1  20
HETATM   20  C5  UNL     1      24.288   3.010  49.963  1.00  0.00     0.114 C 
BRANCH  20  21
HETATM   21  C4  UNL     1      24.384   4.414  50.518  1.00  0.00     0.280 C 
BRANCH  21  22
HETATM   22  N1  UNL     1      25.694   4.983  50.437  1.00  0.00     0.088 N 
HETATM   23  H8  UNL     1      26.407   4.356  50.845  1.00  0.00     0.316 HD
BRANCH  22  24
HETATM   24  C2  UNL     1      26.030   5.140  49.025  1.00  0.00     0.212 C 
HETATM   25  C1  UNL     1      25.846   6.578  48.578  1.00  0.00     0.042 C 
HETATM   26  C3  UNL     1      27.473   4.715  48.820  1.00  0.00     0.042 C 
ENDBRANCH  22  24
ENDBRANCH  21  22
ENDBRANCH  20  21
ENDBRANCH   1  20
TORSDOF 4
ENDMDL
MODEL 2
REMARK VINA RESULT:      -8.6      2.269      5.848
REMARK  4 active torsions:
REMARK  status: ('A' for Active; 'I' for Inactive)
REMARK    1  A    between atoms: C2_2  and  N1_4 
REMARK    2  A    between atoms: N1_4  and  C4_5 
REMARK    3  A    between atoms: C4_5  and  C5_6 
REMARK    4  A    between atoms: C5_6  and  S1_7 
ROOT
HETATM    1  S1  UNL     1      22.590   0.332  52.754  1.00  0.00    -0.099 SA
HETATM    2  C6  UNL     1      24.252   0.983  52.664  1.00  0.00     0.020 A 
HETATM    3  C7  UNL     1      25.157   0.640  53.562  1.00  0.00     0.036 A 
HETATM    4  C8  UNL     1      26.558   1.053  53.669  1.00  0.00     0.029 A 
HETATM    5  C9  UNL     1      27.146   0.447  54.744  1.00  0.00     0.133 A 
HETATM    6  N2  UNL     1      28.451   0.714  55.002  1.00  0.00    -0.253 NA
HETATM    7  C10 UNL     1      29.135   1.567  54.193  1.00  0.00     0.234 A 
HETATM    8  N3  UNL     1      28.577   2.177  53.127  1.00  0.00    -0.224 NA
HETATM    9  C11 UNL     1      27.284   1.921  52.863  1.00  0.00     0.141 A 
HETATM   10  N4  UNL     1      26.828   2.631  51.711  1.00  0.00    -0.339 N 
HETATM   11  C12 UNL     1      25.530   2.600  51.100  1.00  0.00     0.047 A 
HETATM   12  C13 UNL     1      25.518   3.410  49.990  1.00  0.00     0.033 A 
HETATM   13  C14 UNL     1      24.329   3.509  49.257  1.00  0.00     0.046 A 
HETATM   14  C15 UNL     1      23.205   2.821  49.630  1.00  0.00     0.138 A 
HETATM   15  F1  UNL     1      22.059   2.921  48.917  1.00  0.00    -0.204 F 
HETATM   16  C16 UNL     1      23.263   2.015  50.758  1.00  0.00     0.081 A 
HETATM   17 CL1  UNL     1      21.807   1.150  51.206  1.00  0.00    -0.113 Cl
HETATM   18  C17 UNL     1      24.420   1.881  51.523  1.00  0.00     0.032 A 
HETATM   19  H16 UNL     1      27.518   3.242  51.264  1.00  0.00     0.167 HD
ENDROOT
BRANCH   1  20
HETATM   20  C5  UNL     1      22.511  -0.761  54.201  1.00  0.00     0.114 C 
BRANCH  20  21
HETATM   21  C4  UNL     1      21.197  -1.507  54.268  1.00  0.00     0.280 C 
BRANCH  21  22
HETATM   22  N1  UNL     1      20.046  -0.670  54.130  1.00  0.00     0.088 N 
HETATM   23  H8  UNL     1      20.300   0.277  53.802  1.00  0.00     0.316 HD
BRANCH  22  24
HETATM   24  C2  UNL     1      19.184  -1.252  53.105  1.00  0.00     0.212 C 
HETATM   25  C1  UNL     1      18.085  -2.091  53.729  1.00  0.00     0.042 C 
HETATM   26  C3  UNL     1      18.577  -0.128  52.286  1.00  0.00     0.042 C 
ENDBRANCH  22  24
ENDBRANCH  21  22
ENDBRANCH  20  21
ENDBRANCH   1  20
TORSDOF 4
ENDMDL
MODEL 3
REMARK VINA RESULT:      -8.0      2.708      4.677
REMARK  4 active torsions:
REMARK  status: ('A' for Active; 'I' for Inactive)
REMARK    1  A    between atoms: C2_2  and  N1_4 
REMARK    2  A    between atoms: N1_4  and  C4_5 
REMARK    3  A    between atoms: C4_5  and  C5_6 
REMARK    4  A    between atoms: C5_6  and  S1_7 
ROOT
HETATM    1  S1  UNL     1      25.219   2.620  51.181  1.00  0.00    -0.099 SA
HETATM    2  C6  UNL     1      24.575   1.401  52.319  1.00  0.00     0.020 A 
HETATM    3  C7  UNL     1      23.293   1.083  52.307  1.00  0.00     0.036 A 
HETATM    4  C8  UNL     1      22.569   0.123  53.143  1.00  0.00     0.029 A 
HETATM    5  C9  UNL     1      21.250   0.090  52.787  1.00  0.00     0.133 A 
HETATM    6  N2  UNL     1      20.421  -0.748  53.459  1.00  0.00    -0.253 NA
HETATM    7  C10 UNL     1      20.917  -1.526  54.458  1.00  0.00     0.234 A 
HETATM    8  N3  UNL     1      22.215  -1.511  54.827  1.00  0.00    -0.224 NA
HETATM    9  C11 UNL     1      23.045  -0.684  54.169  1.00  0.00     0.141 A 
HETATM   10  N4  UNL     1      24.382  -0.773  54.663  1.00  0.00    -0.339 N 
HETATM   11  C12 UNL     1      25.550  -0.076  54.205  1.00  0.00     0.047 A 
HETATM   12  C13 UNL     1      26.646  -0.473  54.934  1.00  0.00     0.033 A 
HETATM   13  C14 UNL     1      27.885   0.103  54.631  1.00  0.00     0.046 A 
HETATM   14  C15 UNL     1      28.011   1.037  53.636  1.00  0.00     0.138 A 
HETATM   15  F1  UNL     1      29.213   1.588  53.348  1.00  0.00    -0.204 F 
HETATM   16  C16 UNL     1      26.878   1.406  52.926  1.00  0.00     0.081 A 
HETATM   17 CL1  UNL     1      27.075   2.603  51.661  1.00  0.00    -0.113 Cl
HETATM   18  C17 UNL     1      25.621   0.866  53.188  1.00  0.00     0.032 A 
HETATM   19  H16 UNL     1      24.524  -1.418  55.445  1.00  0.00     0.167 HD
ENDROOT
BRANCH   1  20
HETATM   20  C5  UNL     1      23.833   3.203  50.166  1.00  0.00     0.114 C 
BRANCH  20  21
HETATM   21  C4  UNL     1      23.893   4.698  49.942  1.00  0.00     0.280 C 
BRANCH  21  22
HETATM   22  N1  UNL     1      25.045   5.325  50.512  1.00  0.00     0.088 N 
HETATM   23  H8  UNL     1      25.725   4.628  50.860  1.00  0.00     0.316 HD
BRANCH  22  24
HETATM   24  C2  UNL     1      25.717   6.078  49.457  1.00  0.00     0.212 C 
HETATM   25  C1  UNL     1      26.850   5.272  48.849  1.00  0.00     0.042 C 
HETATM   26  C3  UNL     1      24.698   6.429  48.387  1.00  0.00     0.042 C 
ENDBRANCH  22  24
ENDBRANCH  21  22
ENDBRANCH  20  21
ENDBRANCH   1  20
TORSDOF 4
ENDMDL
MODEL 4
REMARK VINA RESULT:      -8.0      1.477      1.981
REMARK  4 active torsions:
REMARK  status: ('A' for Active; 'I' for Inactive)
REMARK    1  A    between atoms: C2_2  and  N1_4 
REMARK    2  A    between atoms: N1_4  and  C4_5 
REMARK    3  A    between atoms: C4_5  and  C5_6 
REMARK    4  A    between atoms: C5_6  and  S1_7 
ROOT
HETATM    1  S1  UNL     1      22.853   1.830  50.993  1.00  0.00    -0.099 SA
HETATM    2  C6  UNL     1      23.927   1.093  52.217  1.00  0.00     0.020 A 
HETATM    3  C7  UNL     1      25.214   1.390  52.247  1.00  0.00     0.036 A 
HETATM    4  C8  UNL     1      26.255   0.904  53.155  1.00  0.00     0.029 A 
HETATM    5  C9  UNL     1      27.455   1.479  52.844  1.00  0.00     0.133 A 
HETATM    6  N2  UNL     1      28.542   1.145  53.584  1.00  0.00    -0.253 NA
HETATM    7  C10 UNL     1      28.412   0.258  54.606  1.00  0.00     0.234 A 
HETATM    8  N3  UNL     1      27.238  -0.323  54.932  1.00  0.00    -0.224 NA
HETATM    9  C11 UNL     1      26.156  -0.000  54.205  1.00  0.00     0.141 A 
HETATM   10  N4  UNL     1      24.988  -0.686  54.659  1.00  0.00    -0.339 N 
HETATM   11  C12 UNL     1      23.645  -0.588  54.162  1.00  0.00     0.047 A 
HETATM   12  C13 UNL     1      22.815  -1.397  54.901  1.00  0.00     0.033 A 
HETATM   13  C14 UNL     1      21.457  -1.435  54.562  1.00  0.00     0.046 A 
HETATM   14  C15 UNL     1      20.962  -0.689  53.525  1.00  0.00     0.138 A 
HETATM   15  F1  UNL     1      19.648  -0.730  53.204  1.00  0.00    -0.204 F 
HETATM   16  C16 UNL     1      21.838   0.113  52.807  1.00  0.00     0.081 A 
HETATM   17 CL1  UNL     1      21.171   1.053  51.488  1.00  0.00    -0.113 Cl
HETATM   18  C17 UNL     1      23.197   0.187  53.102  1.00  0.00     0.032 A 
HETATM   19  H16 UNL     1      25.130  -1.333  55.441  1.00  0.00     0.167 HD
ENDROOT
BRANCH   1  20
HETATM   20  C5  UNL     1      23.870   2.926  49.965  1.00  0.00     0.114 C 
BRANCH  20  21
HETATM   21  C4  UNL     1      23.080   4.112  49.459  1.00  0.00     0.280 C 
BRANCH  21  22
HETATM   22  N1  UNL     1      23.345   5.329  50.163  1.00  0.00     0.088 N 
HETATM   23  H8  UNL     1      23.633   6.086  49.520  1.00  0.00     0.316 HD
BRANCH  22  24
HETATM   24  C2  UNL     1      22.102   5.764  50.795  1.00  0.00     0.212 C 
HETATM   25  C1  UNL     1      21.955   7.273  50.725  1.00  0.00     0.042 C 
HETATM   26  C3  UNL     1      20.939   5.096  50.086  1.00  0.00     0.042 C 
ENDBRANCH  22  24
ENDBRANCH  21  22
ENDBRANCH  20  21
ENDBRANCH   1  20
TORSDOF 4
ENDMDL
MODEL 5
REMARK VINA RESULT:      -8.0      1.554      2.064
REMARK  4 active torsions:
REMARK  status: ('A' for Active; 'I' for Inactive)
REMARK    1  A    between atoms: C2_2  and  N1_4 
REMARK    2  A    between atoms: N1_4  and  C4_5 
REMARK    3  A    between atoms: C4_5  and  C5_6 
REMARK    4  A    between atoms: C5_6  and  S1_7 
ROOT
HETATM    1  S1  UNL     1      22.795   2.455  51.608  1.00  0.00    -0.099 SA
HETATM    2  C6  UNL     1      23.899   1.493  52.634  1.00  0.00     0.020 A 
HETATM    3  C7  UNL     1      25.196   1.744  52.642  1.00  0.00     0.036 A 
HETATM    4  C8  UNL     1      26.262   1.084  53.399  1.00  0.00     0.029 A 
HETATM    5  C9  UNL     1      27.466   1.669  53.123  1.00  0.00     0.133 A 
HETATM    6  N2  UNL     1      28.574   1.185  53.738  1.00  0.00    -0.253 NA
HETATM    7  C10 UNL     1      28.462   0.144  54.605  1.00  0.00     0.234 A 
HETATM    8  N3  UNL     1      27.285  -0.450  54.893  1.00  0.00    -0.224 NA
HETATM    9  C11 UNL     1      26.180   0.020  54.289  1.00  0.00     0.141 A 
HETATM   10  N4  UNL     1      25.012  -0.699  54.687  1.00  0.00    -0.339 N 
HETATM   11  C12 UNL     1      23.651  -0.481  54.287  1.00  0.00     0.047 A 
HETATM   12  C13 UNL     1      22.828  -1.377  54.926  1.00  0.00     0.033 A 
HETATM   13  C14 UNL     1      21.455  -1.319  54.660  1.00  0.00     0.046 A 
HETATM   14  C15 UNL     1      20.938  -0.397  53.788  1.00  0.00     0.138 A 
HETATM   15  F1  UNL     1      19.609  -0.347  53.537  1.00  0.00    -0.204 F 
HETATM   16  C16 UNL     1      21.806   0.488  53.167  1.00  0.00     0.081 A 
HETATM   17 CL1  UNL     1      21.111   1.654  52.059  1.00  0.00    -0.113 Cl
HETATM   18  C17 UNL     1      23.181   0.473  53.395  1.00  0.00     0.032 A 
HETATM   19  H16 UNL     1      25.167  -1.470  55.342  1.00  0.00     0.167 HD
ENDROOT
BRANCH   1  20
HETATM   20  C5  UNL     1      23.800   3.677  50.722  1.00  0.00     0.114 C 
BRANCH  20  21
HETATM   21  C4  UNL     1      23.754   3.462  49.226  1.00  0.00     0.280 C 
BRANCH  21  22
HETATM   22  N1  UNL     1      22.830   4.317  48.545  1.00  0.00     0.088 N 
HETATM   23  H8  UNL     1      23.314   4.960  47.896  1.00  0.00     0.316 HD
BRANCH  22  24
HETATM   24  C2  UNL     1      21.956   3.477  47.730  1.00  0.00     0.212 C 
HETATM   25  C1  UNL     1      21.905   3.973  46.297  1.00  0.00     0.042 C 
HETATM   26  C3  UNL     1      22.480   2.053  47.767  1.00  0.00     0.042 C 
ENDBRANCH  22  24
ENDBRANCH  21  22
ENDBRANCH  20  21
ENDBRANCH   1  20
TORSDOF 4
ENDMDL
MODEL 6
REMARK VINA RESULT:      -7.9      3.286      6.719
REMARK  4 active torsions:
REMARK  status: ('A' for Active; 'I' for Inactive)
REMARK    1  A    between atoms: C2_2  and  N1_4 
REMARK    2  A    between atoms: N1_4  and  C4_5 
REMARK    3  A    between atoms: C4_5  and  C5_6 
REMARK    4  A    between atoms: C5_6  and  S1_7 
ROOT
HETATM    1  S1  UNL     1      25.176   0.993  52.840  1.00  0.00    -0.099 SA
HETATM    2  C6  UNL     1      23.479   0.957  52.279  1.00  0.00     0.020 A 
HETATM    3  C7  UNL     1      22.573   0.247  52.927  1.00  0.00     0.036 A 
HETATM    4  C8  UNL     1      21.146   0.083  52.640  1.00  0.00     0.029 A 
HETATM    5  C9  UNL     1      20.569  -0.729  53.576  1.00  0.00     0.133 A 
HETATM    6  N2  UNL     1      19.243  -0.997  53.469  1.00  0.00    -0.253 NA
HETATM    7  C10 UNL     1      18.529  -0.456  52.446  1.00  0.00     0.234 A 
HETATM    8  N3  UNL     1      19.076   0.349  51.510  1.00  0.00    -0.224 NA
HETATM    9  C11 UNL     1      20.389   0.619  51.606  1.00  0.00     0.141 A 
HETATM   10  N4  UNL     1      20.831   1.479  50.555  1.00  0.00    -0.339 N 
HETATM   11  C12 UNL     1      22.145   2.011  50.330  1.00  0.00     0.047 A 
HETATM   12  C13 UNL     1      22.135   2.821  49.219  1.00  0.00     0.033 A 
HETATM   13  C14 UNL     1      23.335   3.434  48.839  1.00  0.00     0.046 A 
HETATM   14  C15 UNL     1      24.490   3.237  49.549  1.00  0.00     0.138 A 
HETATM   15  F1  UNL     1      25.646   3.834  49.176  1.00  0.00    -0.204 F 
HETATM   16  C16 UNL     1      24.452   2.412  50.663  1.00  0.00     0.081 A 
HETATM   17 CL1  UNL     1      25.947   2.182  51.547  1.00  0.00    -0.113 Cl
HETATM   18  C17 UNL     1      23.285   1.777  51.085  1.00  0.00     0.032 A 
HETATM   19  H16 UNL     1      20.116   1.749  49.873  1.00  0.00     0.167 HD
ENDROOT
BRANCH   1  20
HETATM   20  C5  UNL     1      25.284  -0.054  54.317  1.00  0.00     0.114 C 
BRANCH  20  21
HETATM   21  C4  UNL     1      26.682  -0.065  54.895  1.00  0.00     0.280 C 
BRANCH  21  22
HETATM   22  N1  UNL     1      27.641  -0.750  54.084  1.00  0.00     0.088 N 
HETATM   23  H8  UNL     1      27.413  -0.674  53.078  1.00  0.00     0.316 HD
BRANCH  22  24
HETATM   24  C2  UNL     1      28.936  -0.102  54.273  1.00  0.00     0.212 C 
HETATM   25  C1  UNL     1      30.057  -0.948  53.700  1.00  0.00     0.042 C 
HETATM   26  C3  UNL     1      28.905   1.252  53.586  1.00  0.00     0.042 C 
ENDBRANCH  22  24
ENDBRANCH  21  22
ENDBRANCH  20  21
ENDBRANCH   1  20
TORSDOF 4
ENDMDL
MODEL 7
REMARK VINA RESULT:      -7.4      3.159      5.226
REMARK  4 active torsions:
REMARK  status: ('A' for Active; 'I' for Inactive)
REMARK    1  A    between atoms: C2_2  and  N1_4 
REMARK    2  A    between atoms: N1_4  and  C4_5 
REMARK    3  A    between atoms: C4_5  and  C5_6 
REMARK    4  A    between atoms: C5_6  and  S1_7 
ROOT
HETATM    1  S1  UNL     1      24.576   3.211  51.218  1.00  0.00    -0.099 SA
HETATM    2  C6  UNL     1      23.869   1.824  52.098  1.00  0.00     0.020 A 
HETATM    3  C7  UNL     1      22.560   1.651  52.138  1.00  0.00     0.036 A 
HETATM    4  C8  UNL     1      21.786   0.595  52.793  1.00  0.00     0.029 A 
HETATM    5  C9  UNL     1      20.451   0.785  52.571  1.00  0.00     0.133 A 
HETATM    6  N2  UNL     1      19.574  -0.101  53.106  1.00  0.00    -0.253 NA
HETATM    7  C10 UNL     1      20.040  -1.146  53.842  1.00  0.00     0.234 A 
HETATM    8  N3  UNL     1      21.353  -1.355  54.075  1.00  0.00    -0.224 NA
HETATM    9  C11 UNL     1      22.230  -0.482  53.550  1.00  0.00     0.141 A 
HETATM   10  N4  UNL     1      23.578  -0.824  53.875  1.00  0.00    -0.339 N 
HETATM   11  C12 UNL     1      24.787  -0.159  53.481  1.00  0.00     0.047 A 
HETATM   12  C13 UNL     1      25.874  -0.832  53.986  1.00  0.00     0.033 A 
HETATM   13  C14 UNL     1      27.150  -0.329  53.706  1.00  0.00     0.046 A 
HETATM   14  C15 UNL     1      27.319   0.801  52.950  1.00  0.00     0.138 A 
HETATM   15  F1  UNL     1      28.556   1.280  52.682  1.00  0.00    -0.204 F 
HETATM   16  C16 UNL     1      26.193   1.446  52.460  1.00  0.00     0.081 A 
HETATM   17 CL1  UNL     1      26.446   2.888  51.497  1.00  0.00    -0.113 Cl
HETATM   18  C17 UNL     1      24.901   0.989  52.710  1.00  0.00     0.032 A 
HETATM   19  H16 UNL     1      23.695  -1.651  54.468  1.00  0.00     0.167 HD
ENDROOT
BRANCH   1  20
HETATM   20  C5  UNL     1      23.204   4.162  50.509  1.00  0.00     0.114 C 
BRANCH  20  21
HETATM   21  C4  UNL     1      23.082   3.942  49.017  1.00  0.00     0.280 C 
BRANCH  21  22
HETATM   22  N1  UNL     1      23.463   2.631  48.591  1.00  0.00     0.088 N 
HETATM   23  H8  UNL     1      23.589   1.991  49.393  1.00  0.00     0.316 HD
BRANCH  22  24
HETATM   24  C2  UNL     1      22.375   2.085  47.783  1.00  0.00     0.212 C 
HETATM   25  C1  UNL     1      21.410   1.287  48.639  1.00  0.00     0.042 C 
HETATM   26  C3  UNL     1      21.646   3.235  47.113  1.00  0.00     0.042 C 
ENDBRANCH  22  24
ENDBRANCH  21  22
ENDBRANCH  20  21
ENDBRANCH   1  20
TORSDOF 4
ENDMDL
MODEL 8
REMARK VINA RESULT:      -7.3      7.927     10.744
REMARK  4 active torsions:
REMARK  status: ('A' for Active; 'I' for Inactive)
REMARK    1  A    between atoms: C2_2  and  N1_4 
REMARK    2  A    between atoms: N1_4  and  C4_5 
REMARK    3  A    between atoms: C4_5  and  C5_6 
REMARK    4  A    between atoms: C5_6  and  S1_7 
ROOT
HETATM    1  S1  UNL     1      31.352   6.667  47.732  1.00  0.00    -0.099 SA
HETATM    2  C6  UNL     1      30.211   7.974  48.164  1.00  0.00     0.020 A 
HETATM    3  C7  UNL     1      30.609   9.233  48.184  1.00  0.00     0.036 A 
HETATM    4  C8  UNL     1      29.846  10.440  48.507  1.00  0.00     0.029 A 
HETATM    5  C9  UNL     1      30.642  11.545  48.389  1.00  0.00     0.133 A 
HETATM    6  N2  UNL     1      30.101  12.761  48.652  1.00  0.00    -0.253 NA
HETATM    7  C10 UNL     1      28.794  12.850  49.020  1.00  0.00     0.234 A 
HETATM    8  N3  UNL     1      27.989  11.774  49.143  1.00  0.00    -0.224 NA
HETATM    9  C11 UNL     1      28.515  10.565  48.886  1.00  0.00     0.141 A 
HETATM   10  N4  UNL     1      27.553   9.522  49.055  1.00  0.00    -0.339 N 
HETATM   11  C12 UNL     1      27.721   8.112  48.850  1.00  0.00     0.047 A 
HETATM   12  C13 UNL     1      26.536   7.461  49.096  1.00  0.00     0.033 A 
HETATM   13  C14 UNL     1      26.503   6.070  48.948  1.00  0.00     0.046 A 
HETATM   14  C15 UNL     1      27.618   5.369  48.568  1.00  0.00     0.138 A 
HETATM   15  F1  UNL     1      27.578   4.023  48.426  1.00  0.00    -0.204 F 
HETATM   16  C16 UNL     1      28.792   6.068  48.330  1.00  0.00     0.081 A 
HETATM   17 CL1  UNL     1      30.198   5.140  47.847  1.00  0.00    -0.113 Cl
HETATM   18  C17 UNL     1      28.879   7.452  48.464  1.00  0.00     0.032 A 
HETATM   19  H16 UNL     1      26.624   9.822  49.363  1.00  0.00     0.167 HD
ENDROOT
BRANCH   1  20
HETATM   20  C5  UNL     1      32.957   7.439  47.384  1.00  0.00     0.114 C 
BRANCH  20  21
HETATM   21  C4  UNL     1      34.105   6.497  47.671  1.00  0.00     0.280 C 
BRANCH  21  22
HETATM   22  N1  UNL     1      34.663   5.888  46.503  1.00  0.00     0.088 N 
HETATM   23  H8  UNL     1      35.691   5.996  46.471  1.00  0.00     0.316 HD
BRANCH  22  24
HETATM   24  C2  UNL     1      34.392   4.454  46.568  1.00  0.00     0.212 C 
HETATM   25  C1  UNL     1      35.153   3.707  45.490  1.00  0.00     0.042 C 
HETATM   26  C3  UNL     1      34.801   3.946  47.939  1.00  0.00     0.042 C 
ENDBRANCH  22  24
ENDBRANCH  21  22
ENDBRANCH  20  21
ENDBRANCH   1  20
TORSDOF 4
ENDMDL
MODEL 9
REMARK VINA RESULT:      -7.3      2.790      4.444
REMARK  4 active torsions:
REMARK  status: ('A' for Active; 'I' for Inactive)
REMARK    1  A    between atoms: C2_2  and  N1_4 
REMARK    2  A    between atoms: N1_4  and  C4_5 
REMARK    3  A    between atoms: C4_5  and  C5_6 
REMARK    4  A    between atoms: C5_6  and  S1_7 
ROOT
HETATM    1  S1  UNL     1      21.147   0.543  52.170  1.00  0.00    -0.099 SA
HETATM    2  C6  UNL     1      22.838   1.092  51.985  1.00  0.00     0.020 A 
HETATM    3  C7  UNL     1      23.163   1.958  51.041  1.00  0.00     0.036 A 
HETATM    4  C8  UNL     1      24.473   2.531  50.722  1.00  0.00     0.029 A 
HETATM    5  C9  UNL     1      24.361   3.402  49.675  1.00  0.00     0.133 A 
HETATM    6  N2  UNL     1      25.481   4.032  49.238  1.00  0.00    -0.253 NA
HETATM    7  C10 UNL     1      26.672   3.784  49.845  1.00  0.00     0.234 A 
HETATM    8  N3  UNL     1      26.807   2.928  50.880  1.00  0.00    -0.224 NA
HETATM    9  C11 UNL     1      25.705   2.298  51.320  1.00  0.00     0.141 A 
HETATM   10  N4  UNL     1      25.995   1.427  52.414  1.00  0.00    -0.339 N 
HETATM   11  C12 UNL     1      25.087   0.609  53.168  1.00  0.00     0.047 A 
HETATM   12  C13 UNL     1      25.771  -0.056  54.157  1.00  0.00     0.033 A 
HETATM   13  C14 UNL     1      25.050  -0.908  55.001  1.00  0.00     0.046 A 
HETATM   14  C15 UNL     1      23.698  -1.079  54.852  1.00  0.00     0.138 A 
HETATM   15  F1  UNL     1      23.007  -1.904  55.672  1.00  0.00    -0.204 F 
HETATM   16  C16 UNL     1      23.050  -0.387  53.839  1.00  0.00     0.081 A 
HETATM   17 CL1  UNL     1      21.322  -0.630  53.677  1.00  0.00    -0.113 Cl
HETATM   18  C17 UNL     1      23.720   0.472  52.972  1.00  0.00     0.032 A 
HETATM   19  H16 UNL     1      26.978   1.380  52.696  1.00  0.00     0.167 HD
ENDROOT
BRANCH   1  20
HETATM   20  C5  UNL     1      20.161   1.379  50.897  1.00  0.00     0.114 C 
BRANCH  20  21
HETATM   21  C4  UNL     1      19.146   2.321  51.504  1.00  0.00     0.280 C 
BRANCH  21  22
HETATM   22  N1  UNL     1      19.695   3.575  51.922  1.00  0.00     0.088 N 
HETATM   23  H8  UNL     1      20.476   3.446  52.586  1.00  0.00     0.316 HD
BRANCH  22  24
HETATM   24  C2  UNL     1      20.249   4.239  50.745  1.00  0.00     0.212 C 
HETATM   25  C1  UNL     1      19.172   4.995  49.989  1.00  0.00     0.042 C 
HETATM   26  C3  UNL     1      21.335   5.198  51.196  1.00  0.00     0.042 C 
ENDBRANCH  22  24
ENDBRANCH  21  22
ENDBRANCH  20  21
ENDBRANCH   1  20
TORSDOF 4
ENDMDL
