MODEL 1
REMARK VINA RESULT:      -7.5      0.000      0.000
REMARK  5 active torsions:
REMARK  status: ('A' for Active; 'I' for Inactive)
REMARK    1  A    between atoms: S1_2  and  N1_4 
REMARK    2  A    between atoms: S1_2  and  C8_14 
REMARK    3  A    between atoms: N1_4  and  O3_5 
REMARK    4  A    between atoms: O3_5  and  C1_6 
REMARK    5  A    between atoms: C1_6  and  C2_7 
ROOT
HETATM    1  N1  UNL     1      26.219  -0.505  55.537  1.00  0.00    -0.090 NA
HETATM    2  H1  UNL     1      25.836   0.288  56.083  1.00  0.00     0.173 HD
ENDROOT
BRANCH   1   3
HETATM    3  S1  UNL     1      27.408   0.145  54.466  1.00  0.00     0.263 S 
HETATM    4  O1  UNL     1      28.119  -0.946  53.704  1.00  0.00    -0.204 OA
HETATM    5  O2  UNL     1      28.435   0.908  55.211  1.00  0.00    -0.204 OA
BRANCH   3   6
HETATM    6  C8  UNL     1      26.555   1.132  53.297  1.00  0.00     0.076 A 
HETATM    7  C9  UNL     1      25.663   2.086  53.769  1.00  0.00     0.026 A 
HETATM    8  C10 UNL     1      24.947   2.907  52.905  1.00  0.00     0.020 A 
HETATM    9  C11 UNL     1      25.115   2.784  51.541  1.00  0.00     0.011 A 
HETATM   10 BR1  UNL     1      24.117   3.929  50.394  1.00  0.00    -0.051 Br
HETATM   11  C12 UNL     1      26.003   1.834  51.076  1.00  0.00     0.020 A 
HETATM   12  C13 UNL     1      26.725   1.005  51.930  1.00  0.00     0.026 A 
ENDBRANCH   3   6
ENDBRANCH   1   3
BRANCH   1  13
HETATM   13  O3  UNL     1      25.298  -1.234  54.907  1.00  0.00    -0.287 OA
BRANCH  13  14
HETATM   14  C1  UNL     1      24.037  -1.210  55.464  1.00  0.00     0.233 C 
BRANCH  14  15
HETATM   15  C2  UNL     1      22.984  -0.812  54.498  1.00  0.00    -0.033 A 
HETATM   16  C3  UNL     1      23.317  -0.486  53.204  1.00  0.00     0.011 A 
HETATM   17  C4  UNL     1      22.329  -0.116  52.312  1.00  0.00     0.024 A 
HETATM   18  C5  UNL     1      21.000  -0.077  52.733  1.00  0.00     0.034 A 
HETATM   19 CL1  UNL     1      19.802   0.396  51.561  1.00  0.00    -0.084 Cl
HETATM   20  C6  UNL     1      20.669  -0.410  54.046  1.00  0.00     0.024 A 
HETATM   21  C7  UNL     1      21.661  -0.771  54.911  1.00  0.00     0.011 A 
ENDBRANCH  14  15
ENDBRANCH  13  14
ENDBRANCH   1  13
TORSDOF 5
ENDMDL
MODEL 2
REMARK VINA RESULT:      -6.9      4.160      6.525
REMARK  5 active torsions:
REMARK  status: ('A' for Active; 'I' for Inactive)
REMARK    1  A    between atoms: S1_2  and  N1_4 
REMARK    2  A    between atoms: S1_2  and  C8_14 
REMARK    3  A    between atoms: N1_4  and  O3_5 
REMARK    4  A    between atoms: O3_5  and  C1_6 
REMARK    5  A    between atoms: C1_6  and  C2_7 
ROOT
HETATM    1  N1  UNL     1      26.478   2.840  52.325  1.00  0.00    -0.090 NA
HETATM    2  H1  UNL     1      26.865   3.502  53.022  1.00  0.00     0.173 HD
ENDROOT
BRANCH   1   3
HETATM    3  S1  UNL     1      26.337   1.307  53.108  1.00  0.00     0.263 S 
HETATM    4  O1  UNL     1      26.839   1.365  54.530  1.00  0.00    -0.204 OA
HETATM    5  O2  UNL     1      27.127   0.273  52.401  1.00  0.00    -0.204 OA
BRANCH   3   6
HETATM    6  C8  UNL     1      24.629   0.922  53.170  1.00  0.00     0.076 A 
HETATM    7  C9  UNL     1      24.247  -0.277  53.757  1.00  0.00     0.026 A 
HETATM    8  C10 UNL     1      22.911  -0.654  53.843  1.00  0.00     0.020 A 
HETATM    9  C11 UNL     1      21.929   0.172  53.337  1.00  0.00     0.011 A 
HETATM   10 BR1  UNL     1      20.113  -0.382  53.476  1.00  0.00    -0.051 Br
HETATM   11  C12 UNL     1      22.314   1.363  52.753  1.00  0.00     0.020 A 
HETATM   12  C13 UNL     1      23.647   1.752  52.660  1.00  0.00     0.026 A 
ENDBRANCH   3   6
ENDBRANCH   1   3
BRANCH   1  13
HETATM   13  O3  UNL     1      27.165   2.776  51.185  1.00  0.00    -0.287 OA
BRANCH  13  14
HETATM   14  C1  UNL     1      26.413   2.864  50.032  1.00  0.00     0.233 C 
BRANCH  14  15
HETATM   15  C2  UNL     1      26.470   4.207  49.405  1.00  0.00    -0.033 A 
HETATM   16  C3  UNL     1      27.645   4.670  48.861  1.00  0.00     0.011 A 
HETATM   17  C4  UNL     1      27.687   5.923  48.280  1.00  0.00     0.024 A 
HETATM   18  C5  UNL     1      26.536   6.708  48.250  1.00  0.00     0.034 A 
HETATM   19 CL1  UNL     1      26.654   8.276  47.502  1.00  0.00    -0.084 Cl
HETATM   20  C6  UNL     1      25.346   6.232  48.801  1.00  0.00     0.024 A 
HETATM   21  C7  UNL     1      25.327   4.993  49.372  1.00  0.00     0.011 A 
ENDBRANCH  14  15
ENDBRANCH  13  14
ENDBRANCH   1  13
TORSDOF 5
ENDMDL
MODEL 3
REMARK VINA RESULT:      -6.9      3.955      5.267
REMARK  5 active torsions:
REMARK  status: ('A' for Active; 'I' for Inactive)
REMARK    1  A    between atoms: S1_2  and  N1_4 
REMARK    2  A    between atoms: S1_2  and  C8_14 
REMARK    3  A    between atoms: N1_4  and  O3_5 
REMARK    4  A    between atoms: O3_5  and  C1_6 
REMARK    5  A    between atoms: C1_6  and  C2_7 
ROOT
HETATM    1  N1  UNL     1      23.291   1.286  53.060  1.00  0.00    -0.090 NA
HETATM    2  H1  UNL     1      22.683   1.615  53.832  1.00  0.00     0.173 HD
ENDROOT
BRANCH   1   3
HETATM    3  S1  UNL     1      22.631   1.917  51.594  1.00  0.00     0.263 S 
HETATM    4  O1  UNL     1      21.539   2.921  51.867  1.00  0.00    -0.204 OA
HETATM    5  O2  UNL     1      22.044   0.838  50.766  1.00  0.00    -0.204 OA
BRANCH   3   6
HETATM    6  C8  UNL     1      23.928   2.762  50.774  1.00  0.00     0.076 A 
HETATM    7  C9  UNL     1      25.236   2.436  51.106  1.00  0.00     0.026 A 
HETATM    8  C10 UNL     1      26.321   3.062  50.501  1.00  0.00     0.020 A 
HETATM    9  C11 UNL     1      26.109   4.035  49.545  1.00  0.00     0.011 A 
HETATM   10 BR1  UNL     1      27.620   4.866  48.741  1.00  0.00    -0.051 Br
HETATM   11  C12 UNL     1      24.805   4.356  49.218  1.00  0.00     0.020 A 
HETATM   12  C13 UNL     1      23.711   3.736  49.817  1.00  0.00     0.026 A 
ENDBRANCH   3   6
ENDBRANCH   1   3
BRANCH   1  13
HETATM   13  O3  UNL     1      23.466  -0.035  53.021  1.00  0.00    -0.287 OA
BRANCH  13  14
HETATM   14  C1  UNL     1      24.148  -0.575  54.091  1.00  0.00     0.233 C 
BRANCH  14  15
HETATM   15  C2  UNL     1      25.622  -0.493  53.941  1.00  0.00    -0.033 A 
HETATM   16  C3  UNL     1      26.239  -1.056  52.849  1.00  0.00     0.011 A 
HETATM   17  C4  UNL     1      27.612  -0.975  52.718  1.00  0.00     0.024 A 
HETATM   18  C5  UNL     1      28.361  -0.323  53.697  1.00  0.00     0.034 A 
HETATM   19 CL1  UNL     1      30.086  -0.254  53.473  1.00  0.00    -0.084 Cl
HETATM   20  C6  UNL     1      27.728   0.247  54.801  1.00  0.00     0.024 A 
HETATM   21  C7  UNL     1      26.371   0.155  54.911  1.00  0.00     0.011 A 
ENDBRANCH  14  15
ENDBRANCH  13  14
ENDBRANCH   1  13
TORSDOF 5
ENDMDL
MODEL 4
REMARK VINA RESULT:      -6.7      3.314      5.289
REMARK  5 active torsions:
REMARK  status: ('A' for Active; 'I' for Inactive)
REMARK    1  A    between atoms: S1_2  and  N1_4 
REMARK    2  A    between atoms: S1_2  and  C8_14 
REMARK    3  A    between atoms: N1_4  and  O3_5 
REMARK    4  A    between atoms: O3_5  and  C1_6 
REMARK    5  A    between atoms: C1_6  and  C2_7 
ROOT
HETATM    1  N1  UNL     1      27.257   2.892  51.661  1.00  0.00    -0.090 NA
HETATM    2  H1  UNL     1      28.270   2.746  51.822  1.00  0.00     0.173 HD
ENDROOT
BRANCH   1   3
HETATM    3  S1  UNL     1      26.416   1.892  52.790  1.00  0.00     0.263 S 
HETATM    4  O1  UNL     1      26.726   2.284  54.213  1.00  0.00    -0.204 OA
HETATM    5  O2  UNL     1      26.798   0.470  52.629  1.00  0.00    -0.204 OA
BRANCH   3   6
HETATM    6  C8  UNL     1      24.704   2.160  52.532  1.00  0.00     0.076 A 
HETATM    7  C9  UNL     1      24.189   3.421  52.800  1.00  0.00     0.026 A 
HETATM    8  C10 UNL     1      22.842   3.714  52.621  1.00  0.00     0.020 A 
HETATM    9  C11 UNL     1      21.980   2.736  52.166  1.00  0.00     0.011 A 
HETATM   10 BR1  UNL     1      20.143   3.178  51.934  1.00  0.00    -0.051 Br
HETATM   11  C12 UNL     1      22.497   1.482  51.901  1.00  0.00     0.020 A 
HETATM   12  C13 UNL     1      23.844   1.178  52.076  1.00  0.00     0.026 A 
ENDBRANCH   3   6
ENDBRANCH   1   3
BRANCH   1  13
HETATM   13  O3  UNL     1      26.865   2.695  50.403  1.00  0.00    -0.287 OA
BRANCH  13  14
HETATM   14  C1  UNL     1      26.697   3.836  49.646  1.00  0.00     0.233 C 
BRANCH  14  15
HETATM   15  C2  UNL     1      25.272   4.196  49.449  1.00  0.00    -0.033 A 
HETATM   16  C3  UNL     1      24.370   3.250  49.021  1.00  0.00     0.011 A 
HETATM   17  C4  UNL     1      23.045   3.596  48.839  1.00  0.00     0.024 A 
HETATM   18  C5  UNL     1      22.633   4.904  49.092  1.00  0.00     0.034 A 
HETATM   19 CL1  UNL     1      20.950   5.276  48.845  1.00  0.00    -0.084 Cl
HETATM   20  C6  UNL     1      23.553   5.859  49.527  1.00  0.00     0.024 A 
HETATM   21  C7  UNL     1      24.857   5.496  49.698  1.00  0.00     0.011 A 
ENDBRANCH  14  15
ENDBRANCH  13  14
ENDBRANCH   1  13
TORSDOF 5
ENDMDL
MODEL 5
REMARK VINA RESULT:      -6.7      4.926      7.132
REMARK  5 active torsions:
REMARK  status: ('A' for Active; 'I' for Inactive)
REMARK    1  A    between atoms: S1_2  and  N1_4 
REMARK    2  A    between atoms: S1_2  and  C8_14 
REMARK    3  A    between atoms: N1_4  and  O3_5 
REMARK    4  A    between atoms: O3_5  and  C1_6 
REMARK    5  A    between atoms: C1_6  and  C2_7 
ROOT
HETATM    1  N1  UNL     1      24.034   2.230  50.936  1.00  0.00    -0.090 NA
HETATM    2  H1  UNL     1      23.077   2.587  50.759  1.00  0.00     0.173 HD
ENDROOT
BRANCH   1   3
HETATM    3  S1  UNL     1      24.231   2.142  52.650  1.00  0.00     0.263 S 
HETATM    4  O1  UNL     1      23.163   1.286  53.285  1.00  0.00    -0.204 OA
HETATM    5  O2  UNL     1      24.145   3.487  53.265  1.00  0.00    -0.204 OA
BRANCH   3   6
HETATM    6  C8  UNL     1      25.772   1.365  52.945  1.00  0.00     0.076 A 
HETATM    7  C9  UNL     1      25.936   0.051  52.527  1.00  0.00     0.026 A 
HETATM    8  C10 UNL     1      27.129  -0.636  52.725  1.00  0.00     0.020 A 
HETATM    9  C11 UNL     1      28.187  -0.009  53.353  1.00  0.00     0.011 A 
HETATM   10 BR1  UNL     1      29.802  -0.984  53.604  1.00  0.00    -0.051 Br
HETATM   11  C12 UNL     1      28.019   1.298  53.768  1.00  0.00     0.020 A 
HETATM   12  C13 UNL     1      26.830   1.995  53.575  1.00  0.00     0.026 A 
ENDBRANCH   3   6
ENDBRANCH   1   3
BRANCH   1  13
HETATM   13  O3  UNL     1      25.001   2.926  50.339  1.00  0.00    -0.287 OA
BRANCH  13  14
HETATM   14  C1  UNL     1      24.618   4.140  49.808  1.00  0.00     0.233 C 
BRANCH  14  15
HETATM   15  C2  UNL     1      25.750   4.896  49.217  1.00  0.00    -0.033 A 
HETATM   16  C3  UNL     1      25.571   6.190  48.788  1.00  0.00     0.011 A 
HETATM   17  C4  UNL     1      26.631   6.885  48.239  1.00  0.00     0.024 A 
HETATM   18  C5  UNL     1      27.875   6.266  48.124  1.00  0.00     0.034 A 
HETATM   19 CL1  UNL     1      29.171   7.196  47.424  1.00  0.00    -0.084 Cl
HETATM   20  C6  UNL     1      28.051   4.954  48.562  1.00  0.00     0.024 A 
HETATM   21  C7  UNL     1      26.990   4.285  49.100  1.00  0.00     0.011 A 
ENDBRANCH  14  15
ENDBRANCH  13  14
ENDBRANCH   1  13
TORSDOF 5
ENDMDL
MODEL 6
REMARK VINA RESULT:      -6.7      4.508      6.893
REMARK  5 active torsions:
REMARK  status: ('A' for Active; 'I' for Inactive)
REMARK    1  A    between atoms: S1_2  and  N1_4 
REMARK    2  A    between atoms: S1_2  and  C8_14 
REMARK    3  A    between atoms: N1_4  and  O3_5 
REMARK    4  A    between atoms: O3_5  and  C1_6 
REMARK    5  A    between atoms: C1_6  and  C2_7 
ROOT
HETATM    1  N1  UNL     1      22.380  -0.523  52.925  1.00  0.00    -0.090 NA
HETATM    2  H1  UNL     1      22.058  -0.070  52.051  1.00  0.00     0.173 HD
ENDROOT
BRANCH   1   3
HETATM    3  S1  UNL     1      21.006  -0.649  53.964  1.00  0.00     0.263 S 
HETATM    4  O1  UNL     1      20.954   0.490  54.952  1.00  0.00    -0.204 OA
HETATM    5  O2  UNL     1      21.042  -1.909  54.743  1.00  0.00    -0.204 OA
BRANCH   3   6
HETATM    6  C8  UNL     1      19.586  -0.528  52.946  1.00  0.00     0.076 A 
HETATM    7  C9  UNL     1      18.437  -1.203  53.339  1.00  0.00     0.026 A 
HETATM    8  C10 UNL     1      17.269  -1.158  52.585  1.00  0.00     0.020 A 
HETATM    9  C11 UNL     1      17.235  -0.428  51.414  1.00  0.00     0.011 A 
HETATM   10 BR1  UNL     1      15.616  -0.391  50.413  1.00  0.00    -0.051 Br
HETATM   11  C12 UNL     1      18.379   0.242  51.028  1.00  0.00     0.020 A 
HETATM   12  C13 UNL     1      19.555   0.203  51.773  1.00  0.00     0.026 A 
ENDBRANCH   3   6
ENDBRANCH   1   3
BRANCH   1  13
HETATM   13  O3  UNL     1      23.416   0.079  53.509  1.00  0.00    -0.287 OA
BRANCH  13  14
HETATM   14  C1  UNL     1      24.175  -0.718  54.340  1.00  0.00     0.233 C 
BRANCH  14  15
HETATM   15  C2  UNL     1      25.634  -0.566  54.114  1.00  0.00    -0.033 A 
HETATM   16  C3  UNL     1      26.413   0.093  55.035  1.00  0.00     0.011 A 
HETATM   17  C4  UNL     1      27.770   0.230  54.815  1.00  0.00     0.024 A 
HETATM   18  C5  UNL     1      28.338  -0.303  53.658  1.00  0.00     0.034 A 
HETATM   19 CL1  UNL     1      30.054  -0.098  53.440  1.00  0.00    -0.084 Cl
HETATM   20  C6  UNL     1      27.542  -0.971  52.728  1.00  0.00     0.024 A 
HETATM   21  C7  UNL     1      26.204  -1.093  52.965  1.00  0.00     0.011 A 
ENDBRANCH  14  15
ENDBRANCH  13  14
ENDBRANCH   1  13
TORSDOF 5
ENDMDL
MODEL 7
REMARK VINA RESULT:      -6.5      4.615      5.947
REMARK  5 active torsions:
REMARK  status: ('A' for Active; 'I' for Inactive)
REMARK    1  A    between atoms: S1_2  and  N1_4 
REMARK    2  A    between atoms: S1_2  and  C8_14 
REMARK    3  A    between atoms: N1_4  and  O3_5 
REMARK    4  A    between atoms: O3_5  and  C1_6 
REMARK    5  A    between atoms: C1_6  and  C2_7 
ROOT
HETATM    1  N1  UNL     1      23.127   3.491  51.937  1.00  0.00    -0.090 NA
HETATM    2  H1  UNL     1      22.151   3.627  52.257  1.00  0.00     0.173 HD
ENDROOT
BRANCH   1   3
HETATM    3  S1  UNL     1      23.092   3.456  50.210  1.00  0.00     0.263 S 
HETATM    4  O1  UNL     1      21.968   4.300  49.664  1.00  0.00    -0.204 OA
HETATM    5  O2  UNL     1      22.894   2.076  49.710  1.00  0.00    -0.204 OA
BRANCH   3   6
HETATM    6  C8  UNL     1      24.596   4.161  49.657  1.00  0.00     0.076 A 
HETATM    7  C9  UNL     1      25.737   3.369  49.668  1.00  0.00     0.026 A 
HETATM    8  C10 UNL     1      26.969   3.856  49.245  1.00  0.00     0.020 A 
HETATM    9  C11 UNL     1      27.078   5.158  48.800  1.00  0.00     0.011 A 
HETATM   10 BR1  UNL     1      28.783   5.785  48.229  1.00  0.00    -0.051 Br
HETATM   11  C12 UNL     1      25.941   5.943  48.791  1.00  0.00     0.020 A 
HETATM   12  C13 UNL     1      24.702   5.467  49.212  1.00  0.00     0.026 A 
ENDBRANCH   3   6
ENDBRANCH   1   3
BRANCH   1  13
HETATM   13  O3  UNL     1      23.736   2.429  52.463  1.00  0.00    -0.287 OA
BRANCH  13  14
HETATM   14  C1  UNL     1      24.813   2.706  53.279  1.00  0.00     0.233 C 
BRANCH  14  15
HETATM   15  C2  UNL     1      25.859   1.655  53.234  1.00  0.00    -0.033 A 
HETATM   16  C3  UNL     1      26.973   1.750  54.034  1.00  0.00     0.011 A 
HETATM   17  C4  UNL     1      27.942   0.767  53.984  1.00  0.00     0.024 A 
HETATM   18  C5  UNL     1      27.781  -0.316  53.121  1.00  0.00     0.034 A 
HETATM   19 CL1  UNL     1      29.036  -1.523  53.106  1.00  0.00    -0.084 Cl
HETATM   20  C6  UNL     1      26.648  -0.408  52.313  1.00  0.00     0.024 A 
HETATM   21  C7  UNL     1      25.704   0.576  52.377  1.00  0.00     0.011 A 
ENDBRANCH  14  15
ENDBRANCH  13  14
ENDBRANCH   1  13
TORSDOF 5
ENDMDL
MODEL 8
REMARK VINA RESULT:      -6.5      4.813      5.583
REMARK  5 active torsions:
REMARK  status: ('A' for Active; 'I' for Inactive)
REMARK    1  A    between atoms: S1_2  and  N1_4 
REMARK    2  A    between atoms: S1_2  and  C8_14 
REMARK    3  A    between atoms: N1_4  and  O3_5 
REMARK    4  A    between atoms: O3_5  and  C1_6 
REMARK    5  A    between atoms: C1_6  and  C2_7 
ROOT
HETATM    1  N1  UNL     1      26.934   3.290  50.803  1.00  0.00    -0.090 NA
HETATM    2  H1  UNL     1      27.731   3.923  51.003  1.00  0.00     0.173 HD
ENDROOT
BRANCH   1   3
HETATM    3  S1  UNL     1      25.764   4.213  49.930  1.00  0.00     0.263 S 
HETATM    4  O1  UNL     1      24.858   4.979  50.863  1.00  0.00    -0.204 OA
HETATM    5  O2  UNL     1      24.906   3.336  49.100  1.00  0.00    -0.204 OA
BRANCH   3   6
HETATM    6  C8  UNL     1      26.648   5.385  48.976  1.00  0.00     0.076 A 
HETATM    7  C9  UNL     1      27.978   5.119  48.676  1.00  0.00     0.026 A 
HETATM    8  C10 UNL     1      28.748   6.000  47.924  1.00  0.00     0.020 A 
HETATM    9  C11 UNL     1      28.192   7.174  47.457  1.00  0.00     0.011 A 
HETATM   10 BR1  UNL     1      29.280   8.351  46.431  1.00  0.00    -0.051 Br
HETATM   11  C12 UNL     1      26.869   7.435  47.758  1.00  0.00     0.020 A 
HETATM   12  C13 UNL     1      26.088   6.561  48.510  1.00  0.00     0.026 A 
ENDBRANCH   3   6
ENDBRANCH   1   3
BRANCH   1  13
HETATM   13  O3  UNL     1      26.424   2.690  51.877  1.00  0.00    -0.287 OA
BRANCH  13  14
HETATM   14  C1  UNL     1      26.383   1.312  51.824  1.00  0.00     0.233 C 
BRANCH  14  15
HETATM   15  C2  UNL     1      25.198   0.740  52.509  1.00  0.00    -0.033 A 
HETATM   16  C3  UNL     1      25.355  -0.212  53.488  1.00  0.00     0.011 A 
HETATM   17  C4  UNL     1      24.244  -0.738  54.119  1.00  0.00     0.024 A 
HETATM   18  C5  UNL     1      22.972  -0.298  53.756  1.00  0.00     0.034 A 
HETATM   19 CL1  UNL     1      21.613  -1.000  54.590  1.00  0.00    -0.084 Cl
HETATM   20  C6  UNL     1      22.819   0.669  52.763  1.00  0.00     0.024 A 
HETATM   21  C7  UNL     1      23.930   1.174  52.151  1.00  0.00     0.011 A 
ENDBRANCH  14  15
ENDBRANCH  13  14
ENDBRANCH   1  13
TORSDOF 5
ENDMDL
MODEL 9
REMARK VINA RESULT:      -6.4      5.073      6.313
REMARK  5 active torsions:
REMARK  status: ('A' for Active; 'I' for Inactive)
REMARK    1  A    between atoms: S1_2  and  N1_4 
REMARK    2  A    between atoms: S1_2  and  C8_14 
REMARK    3  A    between atoms: N1_4  and  O3_5 
REMARK    4  A    between atoms: O3_5  and  C1_6 
REMARK    5  A    between atoms: C1_6  and  C2_7 
ROOT
HETATM    1  N1  UNL     1      25.503   2.550  50.839  1.00  0.00    -0.090 NA
HETATM    2  H1  UNL     1      26.318   2.929  51.356  1.00  0.00     0.173 HD
ENDROOT
BRANCH   1   3
HETATM    3  S1  UNL     1      24.741   3.882  50.048  1.00  0.00     0.263 S 
HETATM    4  O1  UNL     1      24.016   4.767  51.031  1.00  0.00    -0.204 OA
HETATM    5  O2  UNL     1      23.746   3.414  49.056  1.00  0.00    -0.204 OA
BRANCH   3   6
HETATM    6  C8  UNL     1      26.015   4.839  49.320  1.00  0.00     0.076 A 
HETATM    7  C9  UNL     1      25.770   6.184  49.078  1.00  0.00     0.026 A 
HETATM    8  C10 UNL     1      26.730   7.010  48.503  1.00  0.00     0.020 A 
HETATM    9  C11 UNL     1      27.963   6.495  48.158  1.00  0.00     0.011 A 
HETATM   10 BR1  UNL     1      29.249   7.659  47.374  1.00  0.00    -0.051 Br
HETATM   11  C12 UNL     1      28.203   5.156  48.400  1.00  0.00     0.020 A 
HETATM   12  C13 UNL     1      27.250   4.319  48.975  1.00  0.00     0.026 A 
ENDBRANCH   3   6
ENDBRANCH   1   3
BRANCH   1  13
HETATM   13  O3  UNL     1      24.659   1.840  51.586  1.00  0.00    -0.287 OA
BRANCH  13  14
HETATM   14  C1  UNL     1      24.996   1.726  52.919  1.00  0.00     0.233 C 
BRANCH  14  15
HETATM   15  C2  UNL     1      26.269   0.993  53.133  1.00  0.00    -0.033 A 
HETATM   16  C3  UNL     1      26.374  -0.332  52.782  1.00  0.00     0.011 A 
HETATM   17  C4  UNL     1      27.563  -1.005  52.987  1.00  0.00     0.024 A 
HETATM   18  C5  UNL     1      28.648  -0.333  53.549  1.00  0.00     0.034 A 
HETATM   19 CL1  UNL     1      30.118  -1.237  53.779  1.00  0.00    -0.084 Cl
HETATM   20  C6  UNL     1      28.535   1.012  53.901  1.00  0.00     0.024 A 
HETATM   21  C7  UNL     1      27.351   1.657  53.692  1.00  0.00     0.011 A 
ENDBRANCH  14  15
ENDBRANCH  13  14
ENDBRANCH   1  13
TORSDOF 5
ENDMDL
