MODEL 1
REMARK VINA RESULT:      -7.0      0.000      0.000
REMARK  8 active torsions:
REMARK  status: ('A' for Active; 'I' for Inactive)
REMARK    1  A    between atoms: C11_15  and  C12_16 
REMARK    2  A    between atoms: C12_16  and  N5_17 
REMARK    3  A    between atoms: N5_17  and  C13_18 
REMARK    4  A    between atoms: C13_18  and  C14_19 
REMARK    5  A    between atoms: C14_19  and  C15_20 
REMARK    6  A    between atoms: C15_20  and  C16_21 
REMARK    7  A    between atoms: C16_21  and  C17_22 
REMARK    8  A    between atoms: C17_22  and  N6_23 
ROOT
HETATM    1  C1  UNL     1      21.987   1.235  53.076  1.00  0.00     0.049 C 
HETATM    2  C2  UNL     1      22.582   1.673  51.816  1.00  0.00    -0.050 C 
HETATM    3  C3  UNL     1      22.995   1.715  50.503  1.00  0.00     0.007 C 
HETATM    4  C4  UNL     1      23.720   2.515  49.473  1.00  0.00    -0.002 C 
HETATM    5  C5  UNL     1      24.421   3.655  49.283  1.00  0.00    -0.007 C 
HETATM    6  C6  UNL     1      25.115   4.921  49.415  1.00  0.00     0.148 C 
HETATM    7  N1  UNL     1      25.242   5.525  50.743  1.00  0.00    -0.369 N 
HETATM    8  C7  UNL     1      23.984   5.949  51.160  1.00  0.00     0.154 A 
HETATM    9  N2  UNL     1      23.620   7.206  50.790  1.00  0.00    -0.221 NA
HETATM   10  C8  UNL     1      22.254   7.422  50.831  1.00  0.00     0.258 A 
HETATM   11  N3  UNL     1      21.541   6.346  51.226  1.00  0.00    -0.161 NA
HETATM   12  N4  UNL     1      22.087   5.214  51.544  1.00  0.00    -0.239 N 
HETATM   13  C9  UNL     1      21.547   3.957  51.793  1.00  0.00     0.131 A 
HETATM   14  C10 UNL     1      22.707   3.169  51.913  1.00  0.00    -0.002 A 
HETATM   15  C11 UNL     1      23.931   3.672  51.806  1.00  0.00     0.015 A 
HETATM   16  C18 UNL     1      23.346   4.816  51.582  1.00  0.00     0.112 A 
HETATM   17  H9  UNL     1      25.734   5.845  51.598  1.00  0.00     0.161 HD
ENDROOT
BRANCH  15  18
HETATM   18  C12 UNL     1      25.189   2.996  52.069  1.00  0.00     0.311 C 
BRANCH  18  19
HETATM   19  N5  UNL     1      25.428   2.836  53.517  1.00  0.00     0.087 N 
HETATM   20  H14 UNL     1      25.829   3.668  53.949  1.00  0.00     0.316 HD
BRANCH  19  21
HETATM   21  C13 UNL     1      26.040   1.580  53.804  1.00  0.00     0.270 C 
BRANCH  21  22
HETATM   22  C14 UNL     1      26.027   0.596  52.644  1.00  0.00     0.030 C 
BRANCH  22  23
HETATM   23  C15 UNL     1      25.874  -0.810  53.090  1.00  0.00     0.003 C 
BRANCH  23  24
HETATM   24  C16 UNL     1      26.807  -1.711  52.345  1.00  0.00     0.030 C 
BRANCH  24  25
HETATM   25  C17 UNL     1      28.138  -1.841  53.033  1.00  0.00     0.267 C 
BRANCH  25  26
HETATM   26  N6  UNL     1      28.514  -3.254  53.138  1.00  0.00     0.078 N 
HETATM   27  H25 UNL     1      29.051  -3.422  54.032  1.00  0.00     0.312 HD
HETATM   28  H26 UNL     1      29.124  -3.500  52.311  1.00  0.00     0.312 HD
ENDBRANCH  25  26
ENDBRANCH  24  25
ENDBRANCH  23  24
ENDBRANCH  22  23
ENDBRANCH  21  22
ENDBRANCH  19  21
ENDBRANCH  18  19
ENDBRANCH  15  18
TORSDOF 8
ENDMDL
MODEL 2
REMARK VINA RESULT:      -6.4      2.254      4.270
REMARK  8 active torsions:
REMARK  status: ('A' for Active; 'I' for Inactive)
REMARK    1  A    between atoms: C11_15  and  C12_16 
REMARK    2  A    between atoms: C12_16  and  N5_17 
REMARK    3  A    between atoms: N5_17  and  C13_18 
REMARK    4  A    between atoms: C13_18  and  C14_19 
REMARK    5  A    between atoms: C14_19  and  C15_20 
REMARK    6  A    between atoms: C15_20  and  C16_21 
REMARK    7  A    between atoms: C16_21  and  C17_22 
REMARK    8  A    between atoms: C17_22  and  N6_23 
ROOT
HETATM    1  C1  UNL     1      25.015   0.065  52.549  1.00  0.00     0.049 C 
HETATM    2  C2  UNL     1      24.657   1.464  52.764  1.00  0.00    -0.050 C 
HETATM    3  C3  UNL     1      24.346   2.663  53.365  1.00  0.00     0.007 C 
HETATM    4  C4  UNL     1      23.969   4.088  53.132  1.00  0.00    -0.002 C 
HETATM    5  C5  UNL     1      23.679   4.987  52.165  1.00  0.00    -0.007 C 
HETATM    6  C6  UNL     1      23.419   5.684  50.921  1.00  0.00     0.148 C 
HETATM    7  N1  UNL     1      23.424   4.924  49.669  1.00  0.00    -0.369 N 
HETATM    8  C7  UNL     1      24.728   4.521  49.398  1.00  0.00     0.154 A 
HETATM    9  N2  UNL     1      25.493   5.397  48.692  1.00  0.00    -0.221 NA
HETATM   10  C8  UNL     1      26.852   5.175  48.822  1.00  0.00     0.258 A 
HETATM   11  N3  UNL     1      27.163   4.136  49.627  1.00  0.00    -0.161 NA
HETATM   12  N4  UNL     1      26.269   3.408  50.218  1.00  0.00    -0.239 N 
HETATM   13  C9  UNL     1      26.366   2.435  51.207  1.00  0.00     0.131 A 
HETATM   14  C10 UNL     1      25.011   2.183  51.491  1.00  0.00    -0.002 A 
HETATM   15  C11 UNL     1      24.019   2.799  50.860  1.00  0.00     0.015 A 
HETATM   16  C18 UNL     1      24.949   3.447  50.214  1.00  0.00     0.112 A 
HETATM   17  H9  UNL     1      23.016   4.489  48.821  1.00  0.00     0.161 HD
ENDROOT
BRANCH  15  18
HETATM   18  C12 UNL     1      22.599   2.509  50.952  1.00  0.00     0.311 C 
BRANCH  18  19
HETATM   19  N5  UNL     1      22.267   1.215  50.322  1.00  0.00     0.087 N 
HETATM   20  H14 UNL     1      22.024   1.302  49.335  1.00  0.00     0.316 HD
BRANCH  19  21
HETATM   21  C13 UNL     1      21.402   0.443  51.152  1.00  0.00     0.270 C 
BRANCH  21  22
HETATM   22  C14 UNL     1      20.879   1.184  52.374  1.00  0.00     0.030 C 
BRANCH  22  23
HETATM   23  C15 UNL     1      21.173   0.472  53.641  1.00  0.00     0.003 C 
BRANCH  23  24
HETATM   24  C16 UNL     1      21.448  -0.976  53.389  1.00  0.00     0.030 C 
BRANCH  24  25
HETATM   25  C17 UNL     1      21.771  -1.720  54.655  1.00  0.00     0.267 C 
BRANCH  25  26
HETATM   26  N6  UNL     1      23.000  -1.189  55.252  1.00  0.00     0.078 N 
HETATM   27  H25 UNL     1      22.908  -0.148  55.410  1.00  0.00     0.312 HD
HETATM   28  H26 UNL     1      23.800  -1.374  54.587  1.00  0.00     0.312 HD
ENDBRANCH  25  26
ENDBRANCH  24  25
ENDBRANCH  23  24
ENDBRANCH  22  23
ENDBRANCH  21  22
ENDBRANCH  19  21
ENDBRANCH  18  19
ENDBRANCH  15  18
TORSDOF 8
ENDMDL
MODEL 3
REMARK VINA RESULT:      -6.3      2.296      4.036
REMARK  8 active torsions:
REMARK  status: ('A' for Active; 'I' for Inactive)
REMARK    1  A    between atoms: C11_15  and  C12_16 
REMARK    2  A    between atoms: C12_16  and  N5_17 
REMARK    3  A    between atoms: N5_17  and  C13_18 
REMARK    4  A    between atoms: C13_18  and  C14_19 
REMARK    5  A    between atoms: C14_19  and  C15_20 
REMARK    6  A    between atoms: C15_20  and  C16_21 
REMARK    7  A    between atoms: C16_21  and  C17_22 
REMARK    8  A    between atoms: C17_22  and  N6_23 
ROOT
HETATM    1  C1  UNL     1      26.503   4.057  49.638  1.00  0.00     0.049 C 
HETATM    2  C2  UNL     1      25.235   4.561  50.158  1.00  0.00    -0.050 C 
HETATM    3  C3  UNL     1      24.208   5.399  50.531  1.00  0.00     0.007 C 
HETATM    4  C4  UNL     1      22.855   5.476  51.157  1.00  0.00    -0.002 C 
HETATM    5  C5  UNL     1      21.894   4.734  51.751  1.00  0.00    -0.007 C 
HETATM    6  C6  UNL     1      21.086   3.683  52.337  1.00  0.00     0.148 C 
HETATM    7  N1  UNL     1      21.646   2.335  52.448  1.00  0.00    -0.369 N 
HETATM    8  C7  UNL     1      21.767   1.798  51.169  1.00  0.00     0.154 A 
HETATM    9  N2  UNL     1      20.678   1.140  50.689  1.00  0.00    -0.221 NA
HETATM   10  C8  UNL     1      20.669   1.016  49.311  1.00  0.00     0.258 A 
HETATM   11  N3  UNL     1      21.739   1.572  48.704  1.00  0.00    -0.161 NA
HETATM   12  N4  UNL     1      22.692   2.164  49.353  1.00  0.00    -0.239 N 
HETATM   13  C9  UNL     1      23.763   2.945  48.930  1.00  0.00     0.131 A 
HETATM   14  C10 UNL     1      24.291   3.390  50.157  1.00  0.00    -0.002 A 
HETATM   15  C11 UNL     1      23.778   3.037  51.329  1.00  0.00     0.015 A 
HETATM   16  C18 UNL     1      22.889   2.374  50.642  1.00  0.00     0.112 A 
HETATM   17  H9  UNL     1      22.023   1.499  52.933  1.00  0.00     0.161 HD
ENDROOT
BRANCH  15  18
HETATM   18  C12 UNL     1      24.328   3.300  52.647  1.00  0.00     0.311 C 
BRANCH  18  19
HETATM   19  N5  UNL     1      25.660   2.685  52.813  1.00  0.00     0.087 N 
HETATM   20  H14 UNL     1      26.364   3.086  52.193  1.00  0.00     0.316 HD
BRANCH  19  21
HETATM   21  C13 UNL     1      25.569   1.263  52.879  1.00  0.00     0.270 C 
BRANCH  21  22
HETATM   22  C14 UNL     1      26.595   0.529  52.028  1.00  0.00     0.030 C 
BRANCH  22  23
HETATM   23  C15 UNL     1      27.418  -0.418  52.819  1.00  0.00     0.003 C 
BRANCH  23  24
HETATM   24  C16 UNL     1      27.793   0.175  54.140  1.00  0.00     0.030 C 
BRANCH  24  25
HETATM   25  C17 UNL     1      29.161   0.798  54.113  1.00  0.00     0.267 C 
BRANCH  25  26
HETATM   26  N6  UNL     1      29.047   2.259  54.049  1.00  0.00     0.078 N 
HETATM   27  H25 UNL     1      29.084   2.670  55.021  1.00  0.00     0.312 HD
HETATM   28  H26 UNL     1      28.122   2.501  53.600  1.00  0.00     0.312 HD
ENDBRANCH  25  26
ENDBRANCH  24  25
ENDBRANCH  23  24
ENDBRANCH  22  23
ENDBRANCH  21  22
ENDBRANCH  19  21
ENDBRANCH  18  19
ENDBRANCH  15  18
TORSDOF 8
ENDMDL
MODEL 4
REMARK VINA RESULT:      -6.3      1.799      2.122
REMARK  8 active torsions:
REMARK  status: ('A' for Active; 'I' for Inactive)
REMARK    1  A    between atoms: C11_15  and  C12_16 
REMARK    2  A    between atoms: C12_16  and  N5_17 
REMARK    3  A    between atoms: N5_17  and  C13_18 
REMARK    4  A    between atoms: C13_18  and  C14_19 
REMARK    5  A    between atoms: C14_19  and  C15_20 
REMARK    6  A    between atoms: C15_20  and  C16_21 
REMARK    7  A    between atoms: C16_21  and  C17_22 
REMARK    8  A    between atoms: C17_22  and  N6_23 
ROOT
HETATM    1  C1  UNL     1      21.586   0.564  53.807  1.00  0.00     0.049 C 
HETATM    2  C2  UNL     1      21.646   0.737  52.359  1.00  0.00    -0.050 C 
HETATM    3  C3  UNL     1      21.476   0.549  51.005  1.00  0.00     0.007 C 
HETATM    4  C4  UNL     1      21.790   1.080  49.646  1.00  0.00    -0.002 C 
HETATM    5  C5  UNL     1      22.471   2.048  48.993  1.00  0.00    -0.007 C 
HETATM    6  C6  UNL     1      23.294   3.178  48.609  1.00  0.00     0.148 C 
HETATM    7  N1  UNL     1      24.030   3.904  49.646  1.00  0.00    -0.369 N 
HETATM    8  C7  UNL     1      23.117   4.589  50.442  1.00  0.00     0.154 A 
HETATM    9  N2  UNL     1      22.776   5.838  50.024  1.00  0.00    -0.221 NA
HETATM   10  C8  UNL     1      21.585   6.295  50.561  1.00  0.00     0.258 A 
HETATM   11  N3  UNL     1      20.986   5.416  51.392  1.00  0.00    -0.161 NA
HETATM   12  N4  UNL     1      21.484   4.252  51.668  1.00  0.00    -0.239 N 
HETATM   13  C9  UNL     1      20.959   3.149  52.333  1.00  0.00     0.131 A 
HETATM   14  C10 UNL     1      21.967   2.188  52.127  1.00  0.00    -0.002 A 
HETATM   15  C11 UNL     1      23.083   2.451  51.457  1.00  0.00     0.015 A 
HETATM   16  C18 UNL     1      22.590   3.646  51.278  1.00  0.00     0.112 A 
HETATM   17  H9  UNL     1      24.866   4.231  50.165  1.00  0.00     0.161 HD
ENDROOT
BRANCH  15  18
HETATM   18  C12 UNL     1      24.251   1.600  51.320  1.00  0.00     0.311 C 
BRANCH  18  19
HETATM   19  N5  UNL     1      25.297   1.950  52.301  1.00  0.00     0.087 N 
HETATM   20  H14 UNL     1      26.186   2.198  51.865  1.00  0.00     0.316 HD
BRANCH  19  21
HETATM   21  C13 UNL     1      25.326   1.019  53.381  1.00  0.00     0.270 C 
BRANCH  21  22
HETATM   22  C14 UNL     1      25.758  -0.385  52.987  1.00  0.00     0.030 C 
BRANCH  22  23
HETATM   23  C15 UNL     1      27.230  -0.518  52.872  1.00  0.00     0.003 C 
BRANCH  23  24
HETATM   24  C16 UNL     1      27.912   0.044  54.079  1.00  0.00     0.030 C 
BRANCH  24  25
HETATM   25  C17 UNL     1      29.037   0.972  53.713  1.00  0.00     0.267 C 
BRANCH  25  26
HETATM   26  N6  UNL     1      28.679   2.354  54.047  1.00  0.00     0.078 N 
HETATM   27  H25 UNL     1      29.265   3.028  53.482  1.00  0.00     0.312 HD
HETATM   28  H26 UNL     1      28.862   2.506  55.076  1.00  0.00     0.312 HD
ENDBRANCH  25  26
ENDBRANCH  24  25
ENDBRANCH  23  24
ENDBRANCH  22  23
ENDBRANCH  21  22
ENDBRANCH  19  21
ENDBRANCH  18  19
ENDBRANCH  15  18
TORSDOF 8
ENDMDL
MODEL 5
REMARK VINA RESULT:      -6.2      2.381      6.479
REMARK  8 active torsions:
REMARK  status: ('A' for Active; 'I' for Inactive)
REMARK    1  A    between atoms: C11_15  and  C12_16 
REMARK    2  A    between atoms: C12_16  and  N5_17 
REMARK    3  A    between atoms: N5_17  and  C13_18 
REMARK    4  A    between atoms: C13_18  and  C14_19 
REMARK    5  A    between atoms: C14_19  and  C15_20 
REMARK    6  A    between atoms: C15_20  and  C16_21 
REMARK    7  A    between atoms: C16_21  and  C17_22 
REMARK    8  A    between atoms: C17_22  and  N6_23 
ROOT
HETATM    1  C1  UNL     1      25.177   3.526  50.493  1.00  0.00     0.049 C 
HETATM    2  C2  UNL     1      23.992   2.709  50.250  1.00  0.00    -0.050 C 
HETATM    3  C3  UNL     1      23.017   1.962  49.628  1.00  0.00     0.007 C 
HETATM    4  C4  UNL     1      21.753   1.193  49.822  1.00  0.00    -0.002 C 
HETATM    5  C5  UNL     1      20.833   0.839  50.747  1.00  0.00    -0.007 C 
HETATM    6  C6  UNL     1      20.042   0.648  51.947  1.00  0.00     0.148 C 
HETATM    7  N1  UNL     1      20.429   1.353  53.171  1.00  0.00    -0.369 N 
HETATM    8  C7  UNL     1      21.624   0.812  53.637  1.00  0.00     0.154 A 
HETATM    9  N2  UNL     1      21.515  -0.258  54.469  1.00  0.00    -0.221 NA
HETATM   10  C8  UNL     1      22.670  -1.016  54.551  1.00  0.00     0.258 A 
HETATM   11  N3  UNL     1      23.683  -0.554  53.787  1.00  0.00    -0.161 NA
HETATM   12  N4  UNL     1      23.586   0.507  53.050  1.00  0.00    -0.239 N 
HETATM   13  C9  UNL     1      24.418   1.041  52.072  1.00  0.00     0.131 A 
HETATM   14  C10 UNL     1      23.631   2.096  51.574  1.00  0.00    -0.002 A 
HETATM   15  C11 UNL     1      22.425   2.378  52.052  1.00  0.00     0.015 A 
HETATM   16  C18 UNL     1      22.597   1.358  52.847  1.00  0.00     0.112 A 
HETATM   17  H9  UNL     1      20.338   2.046  53.937  1.00  0.00     0.161 HD
ENDROOT
BRANCH  15  18
HETATM   18  C12 UNL     1      21.596   3.527  51.733  1.00  0.00     0.311 C 
BRANCH  18  19
HETATM   19  N5  UNL     1      22.176   4.779  52.262  1.00  0.00     0.087 N 
HETATM   20  H14 UNL     1      22.103   4.854  53.276  1.00  0.00     0.316 HD
BRANCH  19  21
HETATM   21  C13 UNL     1      21.773   5.904  51.483  1.00  0.00     0.270 C 
BRANCH  21  22
HETATM   22  C14 UNL     1      22.398   5.962  50.096  1.00  0.00     0.030 C 
BRANCH  22  23
HETATM   23  C15 UNL     1      23.028   7.274  49.810  1.00  0.00     0.003 C 
BRANCH  23  24
HETATM   24  C16 UNL     1      24.098   7.582  50.807  1.00  0.00     0.030 C 
BRANCH  24  25
HETATM   25  C17 UNL     1      25.449   7.102  50.354  1.00  0.00     0.267 C 
BRANCH  25  26
HETATM   26  N6  UNL     1      26.471   8.106  50.667  1.00  0.00     0.078 N 
HETATM   27  H25 UNL     1      27.213   8.116  49.915  1.00  0.00     0.312 HD
HETATM   28  H26 UNL     1      26.913   7.855  51.593  1.00  0.00     0.312 HD
ENDBRANCH  25  26
ENDBRANCH  24  25
ENDBRANCH  23  24
ENDBRANCH  22  23
ENDBRANCH  21  22
ENDBRANCH  19  21
ENDBRANCH  18  19
ENDBRANCH  15  18
TORSDOF 8
ENDMDL
MODEL 6
REMARK VINA RESULT:      -6.1      3.113      5.274
REMARK  8 active torsions:
REMARK  status: ('A' for Active; 'I' for Inactive)
REMARK    1  A    between atoms: C11_15  and  C12_16 
REMARK    2  A    between atoms: C12_16  and  N5_17 
REMARK    3  A    between atoms: N5_17  and  C13_18 
REMARK    4  A    between atoms: C13_18  and  C14_19 
REMARK    5  A    between atoms: C14_19  and  C15_20 
REMARK    6  A    between atoms: C15_20  and  C16_21 
REMARK    7  A    between atoms: C16_21  and  C17_22 
REMARK    8  A    between atoms: C17_22  and  N6_23 
ROOT
HETATM    1  C1  UNL     1      21.412   1.284  48.636  1.00  0.00     0.049 C 
HETATM    2  C2  UNL     1      22.127   1.535  49.884  1.00  0.00    -0.050 C 
HETATM    3  C3  UNL     1      22.808   1.353  51.067  1.00  0.00     0.007 C 
HETATM    4  C4  UNL     1      23.449   2.037  52.228  1.00  0.00    -0.002 C 
HETATM    5  C5  UNL     1      23.676   3.250  52.779  1.00  0.00    -0.007 C 
HETATM    6  C6  UNL     1      23.741   4.662  53.101  1.00  0.00     0.148 C 
HETATM    7  N1  UNL     1      23.021   5.616  52.254  1.00  0.00    -0.369 N 
HETATM    8  C7  UNL     1      23.648   5.669  51.013  1.00  0.00     0.154 A 
HETATM    9  N2  UNL     1      24.665   6.563  50.891  1.00  0.00    -0.221 NA
HETATM   10  C8  UNL     1      25.522   6.289  49.840  1.00  0.00     0.258 A 
HETATM   11  N3  UNL     1      25.190   5.185  49.137  1.00  0.00    -0.161 NA
HETATM   12  N4  UNL     1      24.157   4.453  49.416  1.00  0.00    -0.239 N 
HETATM   13  C9  UNL     1      23.746   3.208  48.953  1.00  0.00     0.131 A 
HETATM   14  C10 UNL     1      22.646   2.943  49.790  1.00  0.00    -0.002 A 
HETATM   15  C11 UNL     1      22.233   3.793  50.723  1.00  0.00     0.015 A 
HETATM   16  C18 UNL     1      23.229   4.549  50.350  1.00  0.00     0.112 A 
HETATM   17  H9  UNL     1      22.289   6.311  52.016  1.00  0.00     0.161 HD
ENDROOT
BRANCH  15  18
HETATM   18  C12 UNL     1      21.028   3.702  51.528  1.00  0.00     0.311 C 
BRANCH  18  19
HETATM   19  N5  UNL     1      19.855   4.243  50.813  1.00  0.00     0.087 N 
HETATM   20  H14 UNL     1      19.580   5.169  51.140  1.00  0.00     0.316 HD
BRANCH  19  21
HETATM   21  C13 UNL     1      18.832   3.257  50.679  1.00  0.00     0.270 C 
BRANCH  21  22
HETATM   22  C14 UNL     1      18.873   2.164  51.736  1.00  0.00     0.030 C 
BRANCH  22  23
HETATM   23  C15 UNL     1      18.629   0.815  51.171  1.00  0.00     0.003 C 
BRANCH  23  24
HETATM   24  C16 UNL     1      18.905  -0.248  52.187  1.00  0.00     0.030 C 
BRANCH  24  25
HETATM   25  C17 UNL     1      17.695  -1.098  52.459  1.00  0.00     0.267 C 
BRANCH  25  26
HETATM   26  N6  UNL     1      17.649  -1.468  53.877  1.00  0.00     0.078 N 
HETATM   27  H25 UNL     1      17.846  -2.500  53.991  1.00  0.00     0.312 HD
HETATM   28  H26 UNL     1      16.684  -1.252  54.247  1.00  0.00     0.312 HD
ENDBRANCH  25  26
ENDBRANCH  24  25
ENDBRANCH  23  24
ENDBRANCH  22  23
ENDBRANCH  21  22
ENDBRANCH  19  21
ENDBRANCH  18  19
ENDBRANCH  15  18
TORSDOF 8
ENDMDL
MODEL 7
REMARK VINA RESULT:      -6.1      1.856      6.579
REMARK  8 active torsions:
REMARK  status: ('A' for Active; 'I' for Inactive)
REMARK    1  A    between atoms: C11_15  and  C12_16 
REMARK    2  A    between atoms: C12_16  and  N5_17 
REMARK    3  A    between atoms: N5_17  and  C13_18 
REMARK    4  A    between atoms: C13_18  and  C14_19 
REMARK    5  A    between atoms: C14_19  and  C15_20 
REMARK    6  A    between atoms: C15_20  and  C16_21 
REMARK    7  A    between atoms: C16_21  and  C17_22 
REMARK    8  A    between atoms: C17_22  and  N6_23 
ROOT
HETATM    1  C1  UNL     1      26.241   5.400  49.158  1.00  0.00     0.049 C 
HETATM    2  C2  UNL     1      25.164   4.418  49.244  1.00  0.00    -0.050 C 
HETATM    3  C3  UNL     1      24.115   3.587  48.921  1.00  0.00     0.007 C 
HETATM    4  C4  UNL     1      23.141   2.583  49.442  1.00  0.00    -0.002 C 
HETATM    5  C5  UNL     1      22.730   1.959  50.568  1.00  0.00    -0.007 C 
HETATM    6  C6  UNL     1      22.528   1.482  51.922  1.00  0.00     0.148 C 
HETATM    7  N1  UNL     1      23.297   2.092  53.010  1.00  0.00    -0.369 N 
HETATM    8  C7  UNL     1      24.632   1.725  52.870  1.00  0.00     0.154 A 
HETATM    9  N2  UNL     1      25.001   0.559  53.467  1.00  0.00    -0.221 NA
HETATM   10  C8  UNL     1      26.167   0.019  52.956  1.00  0.00     0.258 A 
HETATM   11  N3  UNL     1      26.717   0.746  51.960  1.00  0.00    -0.161 NA
HETATM   12  N4  UNL     1      26.202   1.854  51.526  1.00  0.00    -0.239 N 
HETATM   13  C9  UNL     1      26.492   2.645  50.420  1.00  0.00     0.131 A 
HETATM   14  C10 UNL     1      25.452   3.592  50.468  1.00  0.00    -0.002 A 
HETATM   15  C11 UNL     1      24.524   3.591  51.418  1.00  0.00     0.015 A 
HETATM   16  C18 UNL     1      25.125   2.530  51.882  1.00  0.00     0.112 A 
HETATM   17  H9  UNL     1      23.448   2.658  53.865  1.00  0.00     0.161 HD
ENDROOT
BRANCH  15  18
HETATM   18  C12 UNL     1      23.509   4.601  51.660  1.00  0.00     0.311 C 
BRANCH  18  19
HETATM   19  N5  UNL     1      24.077   5.795  52.318  1.00  0.00     0.087 N 
HETATM   20  H14 UNL     1      23.839   5.856  53.308  1.00  0.00     0.316 HD
BRANCH  19  21
HETATM   21  C13 UNL     1      23.893   6.962  51.519  1.00  0.00     0.270 C 
BRANCH  21  22
HETATM   22  C14 UNL     1      22.708   6.889  50.567  1.00  0.00     0.030 C 
BRANCH  22  23
HETATM   23  C15 UNL     1      22.988   7.531  49.259  1.00  0.00     0.003 C 
BRANCH  23  24
HETATM   24  C16 UNL     1      22.294   6.806  48.150  1.00  0.00     0.030 C 
BRANCH  24  25
HETATM   25  C17 UNL     1      23.139   6.730  46.908  1.00  0.00     0.267 C 
BRANCH  25  26
HETATM   26  N6  UNL     1      24.292   7.627  47.028  1.00  0.00     0.078 N 
HETATM   27  H25 UNL     1      24.499   7.819  48.046  1.00  0.00     0.312 HD
HETATM   28  H26 UNL     1      24.062   8.535  46.540  1.00  0.00     0.312 HD
ENDBRANCH  25  26
ENDBRANCH  24  25
ENDBRANCH  23  24
ENDBRANCH  22  23
ENDBRANCH  21  22
ENDBRANCH  19  21
ENDBRANCH  18  19
ENDBRANCH  15  18
TORSDOF 8
ENDMDL
MODEL 8
REMARK VINA RESULT:      -6.1      2.880      5.218
REMARK  8 active torsions:
REMARK  status: ('A' for Active; 'I' for Inactive)
REMARK    1  A    between atoms: C11_15  and  C12_16 
REMARK    2  A    between atoms: C12_16  and  N5_17 
REMARK    3  A    between atoms: N5_17  and  C13_18 
REMARK    4  A    between atoms: C13_18  and  C14_19 
REMARK    5  A    between atoms: C14_19  and  C15_20 
REMARK    6  A    between atoms: C15_20  and  C16_21 
REMARK    7  A    between atoms: C16_21  and  C17_22 
REMARK    8  A    between atoms: C17_22  and  N6_23 
ROOT
HETATM    1  C1  UNL     1      24.818   2.739  53.421  1.00  0.00     0.049 C 
HETATM    2  C2  UNL     1      24.092   2.520  52.173  1.00  0.00    -0.050 C 
HETATM    3  C3  UNL     1      23.350   1.939  51.169  1.00  0.00     0.007 C 
HETATM    4  C4  UNL     1      22.752   2.136  49.817  1.00  0.00    -0.002 C 
HETATM    5  C5  UNL     1      22.650   3.018  48.797  1.00  0.00    -0.007 C 
HETATM    6  C6  UNL     1      22.740   4.155  47.903  1.00  0.00     0.148 C 
HETATM    7  N1  UNL     1      23.600   5.282  48.274  1.00  0.00    -0.369 N 
HETATM    8  C7  UNL     1      23.031   5.935  49.363  1.00  0.00     0.154 A 
HETATM    9  N2  UNL     1      22.131   6.913  49.074  1.00  0.00    -0.221 NA
HETATM   10  C8  UNL     1      21.288   7.219  50.128  1.00  0.00     0.258 A 
HETATM   11  N3  UNL     1      21.513   6.488  51.240  1.00  0.00    -0.161 NA
HETATM   12  N4  UNL     1      22.440   5.586  51.317  1.00  0.00    -0.239 N 
HETATM   13  C9  UNL     1      22.719   4.616  52.274  1.00  0.00     0.131 A 
HETATM   14  C10 UNL     1      23.748   3.887  51.648  1.00  0.00    -0.002 A 
HETATM   15  C11 UNL     1      24.223   4.202  50.449  1.00  0.00     0.015 A 
HETATM   16  C18 UNL     1      23.339   5.161  50.447  1.00  0.00     0.112 A 
HETATM   17  H9  UNL     1      24.417   5.916  48.204  1.00  0.00     0.161 HD
ENDROOT
BRANCH  15  18
HETATM   18  C12 UNL     1      25.378   3.630  49.780  1.00  0.00     0.311 C 
BRANCH  18  19
HETATM   19  N5  UNL     1      26.589   4.446  49.994  1.00  0.00     0.087 N 
HETATM   20  H14 UNL     1      26.418   5.271  50.569  1.00  0.00     0.316 HD
BRANCH  19  21
HETATM   21  C13 UNL     1      27.312   4.626  48.777  1.00  0.00     0.270 C 
BRANCH  21  22
HETATM   22  C14 UNL     1      27.760   6.057  48.520  1.00  0.00     0.030 C 
BRANCH  22  23
HETATM   23  C15 UNL     1      26.622   6.975  48.271  1.00  0.00     0.003 C 
BRANCH  23  24
HETATM   24  C16 UNL     1      27.014   8.394  48.531  1.00  0.00     0.030 C 
BRANCH  24  25
HETATM   25  C17 UNL     1      26.874   8.764  49.982  1.00  0.00     0.267 C 
BRANCH  25  26
HETATM   26  N6  UNL     1      28.125   9.347  50.476  1.00  0.00     0.078 N 
HETATM   27  H25 UNL     1      28.029  10.396  50.563  1.00  0.00     0.312 HD
HETATM   28  H26 UNL     1      28.893   9.121  49.787  1.00  0.00     0.312 HD
ENDBRANCH  25  26
ENDBRANCH  24  25
ENDBRANCH  23  24
ENDBRANCH  22  23
ENDBRANCH  21  22
ENDBRANCH  19  21
ENDBRANCH  18  19
ENDBRANCH  15  18
TORSDOF 8
ENDMDL
MODEL 9
REMARK VINA RESULT:      -6.1      4.529      8.233
REMARK  8 active torsions:
REMARK  status: ('A' for Active; 'I' for Inactive)
REMARK    1  A    between atoms: C11_15  and  C12_16 
REMARK    2  A    between atoms: C12_16  and  N5_17 
REMARK    3  A    between atoms: N5_17  and  C13_18 
REMARK    4  A    between atoms: C13_18  and  C14_19 
REMARK    5  A    between atoms: C14_19  and  C15_20 
REMARK    6  A    between atoms: C15_20  and  C16_21 
REMARK    7  A    between atoms: C16_21  and  C17_22 
REMARK    8  A    between atoms: C17_22  and  N6_23 
ROOT
HETATM    1  C1  UNL     1      28.562   6.753  47.802  1.00  0.00     0.049 C 
HETATM    2  C2  UNL     1      27.163   7.171  47.770  1.00  0.00    -0.050 C 
HETATM    3  C3  UNL     1      25.936   7.618  47.335  1.00  0.00     0.007 C 
HETATM    4  C4  UNL     1      24.543   7.965  47.744  1.00  0.00    -0.002 C 
HETATM    5  C5  UNL     1      23.723   8.066  48.814  1.00  0.00    -0.007 C 
HETATM    6  C6  UNL     1      23.123   8.077  50.133  1.00  0.00     0.148 C 
HETATM    7  N1  UNL     1      23.967   7.804  51.299  1.00  0.00    -0.369 N 
HETATM    8  C7  UNL     1      24.346   6.465  51.268  1.00  0.00     0.154 A 
HETATM    9  N2  UNL     1      23.497   5.587  51.868  1.00  0.00    -0.221 NA
HETATM   10  C8  UNL     1      23.666   4.279  51.448  1.00  0.00     0.258 A 
HETATM   11  N3  UNL     1      24.636   4.122  50.522  1.00  0.00    -0.161 NA
HETATM   12  N4  UNL     1      25.349   5.105  50.072  1.00  0.00    -0.239 N 
HETATM   13  C9  UNL     1      26.248   5.196  49.014  1.00  0.00     0.131 A 
HETATM   14  C10 UNL     1      26.524   6.576  48.994  1.00  0.00    -0.002 A 
HETATM   15  C11 UNL     1      25.984   7.428  49.857  1.00  0.00     0.015 A 
HETATM   16  C18 UNL     1      25.353   6.397  50.347  1.00  0.00     0.112 A 
HETATM   17  H9  UNL     1      24.473   8.021  52.177  1.00  0.00     0.161 HD
ENDROOT
BRANCH  15  18
HETATM   18  C12 UNL     1      26.313   8.832  50.034  1.00  0.00     0.311 C 
BRANCH  18  19
HETATM   19  N5  UNL     1      27.609   9.004  50.722  1.00  0.00     0.087 N 
HETATM   20  H14 UNL     1      27.508   9.276  51.699  1.00  0.00     0.316 HD
BRANCH  19  21
HETATM   21  C13 UNL     1      28.525   9.745  49.919  1.00  0.00     0.270 C 
BRANCH  21  22
HETATM   22  C14 UNL     1      27.867  10.637  48.877  1.00  0.00     0.030 C 
BRANCH  22  23
HETATM   23  C15 UNL     1      28.631  10.689  47.606  1.00  0.00     0.003 C 
BRANCH  23  24
HETATM   24  C16 UNL     1      29.298  12.017  47.438  1.00  0.00     0.030 C 
BRANCH  24  25
HETATM   25  C17 UNL     1      30.735  11.880  47.018  1.00  0.00     0.267 C 
BRANCH  25  26
HETATM   26  N6  UNL     1      31.620  12.162  48.153  1.00  0.00     0.078 N 
HETATM   27  H25 UNL     1      31.730  13.206  48.277  1.00  0.00     0.312 HD
HETATM   28  H26 UNL     1      32.563  11.730  47.955  1.00  0.00     0.312 HD
ENDBRANCH  25  26
ENDBRANCH  24  25
ENDBRANCH  23  24
ENDBRANCH  22  23
ENDBRANCH  21  22
ENDBRANCH  19  21
ENDBRANCH  18  19
ENDBRANCH  15  18
TORSDOF 8
ENDMDL
