MODEL 1
REMARK VINA RESULT:      -8.3      0.000      0.000
REMARK  5 active torsions:
REMARK  status: ('A' for Active; 'I' for Inactive)
REMARK    1  A    between atoms: O1_2  and  C2_3 
REMARK    2  A    between atoms: C4_5  and  C5_6 
REMARK    3  A    between atoms: C6_7  and  C7_8 
REMARK    4  A    between atoms: C16_21  and  O4_22 
REMARK    5  A    between atoms: C18_24  and  O5_25 
ROOT
HETATM    1  C5  UNL     1      22.093  -0.232  53.293  1.00  0.00     0.059 A 
HETATM    2  C6  UNL     1      20.961   0.060  52.728  1.00  0.00     0.060 A 
HETATM    3  C13 UNL     1      19.905  -0.605  53.475  1.00  0.00     0.260 A 
HETATM    4  O2  UNL     1      18.631  -0.662  53.358  1.00  0.00    -0.267 OA
HETATM    5  N2  UNL     1      20.432  -1.346  54.563  1.00  0.00    -0.289 N 
HETATM    6  C14 UNL     1      21.845  -1.118  54.465  1.00  0.00     0.260 A 
HETATM    7  O3  UNL     1      22.616  -1.671  55.333  1.00  0.00    -0.267 OA
HETATM    8  H13 UNL     1      19.947  -1.929  55.285  1.00  0.00     0.172 HD
ENDROOT
BRANCH   1   9
HETATM    9  C4  UNL     1      23.503   0.040  53.139  1.00  0.00    -0.014 A 
HETATM   10  C3  UNL     1      24.655  -0.696  53.406  1.00  0.00     0.052 A 
HETATM   11  C2  UNL     1      25.941  -0.283  53.218  1.00  0.00     0.105 A 
HETATM   12  C18 UNL     1      26.161   0.974  52.718  1.00  0.00     0.135 A 
HETATM   13  C16 UNL     1      25.127   1.825  52.403  1.00  0.00     0.105 A 
HETATM   14  C15 UNL     1      23.859   1.308  52.631  1.00  0.00     0.052 A 
BRANCH  11  15
HETATM   15  O1  UNL     1      26.950  -1.164  53.546  1.00  0.00    -0.353 OA
HETATM   16  C1  UNL     1      27.369  -2.221  52.738  1.00  0.00     0.210 C 
ENDBRANCH  11  15
BRANCH  12  17
HETATM   17  O5  UNL     1      27.453   1.387  52.530  1.00  0.00    -0.351 OA
HETATM   18  C19 UNL     1      28.145   2.145  53.514  1.00  0.00     0.210 C 
ENDBRANCH  12  17
BRANCH  13  19
HETATM   19  O4  UNL     1      25.310   3.096  51.898  1.00  0.00    -0.353 OA
HETATM   20  C17 UNL     1      24.973   3.362  50.550  1.00  0.00     0.210 C 
ENDBRANCH  13  19
ENDBRANCH   1   9
BRANCH   2  21
HETATM   21  C7  UNL     1      20.705   0.881  51.561  1.00  0.00    -0.005 C 
HETATM   22  C8  UNL     1      20.124   2.060  51.635  1.00  0.00     0.095 C 
HETATM   23  N1  UNL     1      19.761   3.049  50.660  1.00  0.00    -0.398 N 
HETATM   24  C9  UNL     1      20.296   3.214  49.336  1.00  0.00     0.122 C 
HETATM   25  H6  UNL     1      19.025   3.738  50.926  1.00  0.00     0.158 HD
HETATM   26  C10 UNL     1      21.551   2.488  49.029  1.00  0.00     0.047 C 
HETATM   27  C11 UNL     1      21.479   1.020  49.179  1.00  0.00    -0.024 C 
HETATM   28  C12 UNL     1      21.112   0.338  50.278  1.00  0.00     0.010 C 
ENDBRANCH   2  21
TORSDOF 5
ENDMDL
MODEL 2
REMARK VINA RESULT:      -8.3      2.699      5.852
REMARK  5 active torsions:
REMARK  status: ('A' for Active; 'I' for Inactive)
REMARK    1  A    between atoms: O1_2  and  C2_3 
REMARK    2  A    between atoms: C4_5  and  C5_6 
REMARK    3  A    between atoms: C6_7  and  C7_8 
REMARK    4  A    between atoms: C16_21  and  O4_22 
REMARK    5  A    between atoms: C18_24  and  O5_25 
ROOT
HETATM    1  C5  UNL     1      23.420   0.518  53.137  1.00  0.00     0.059 A 
HETATM    2  C6  UNL     1      24.521   0.187  53.742  1.00  0.00     0.060 A 
HETATM    3  C13 UNL     1      24.199  -0.839  54.722  1.00  0.00     0.260 A 
HETATM    4  O2  UNL     1      24.886  -1.503  55.575  1.00  0.00    -0.267 OA
HETATM    5  N2  UNL     1      22.815  -1.148  54.709  1.00  0.00    -0.289 N 
HETATM    6  C14 UNL     1      22.293  -0.284  53.691  1.00  0.00     0.260 A 
HETATM    7  O3  UNL     1      21.033  -0.330  53.437  1.00  0.00    -0.267 OA
HETATM    8  H13 UNL     1      22.268  -1.833  55.283  1.00  0.00     0.172 HD
ENDROOT
BRANCH   1   9
HETATM    9  C4  UNL     1      22.960   1.412  52.101  1.00  0.00    -0.014 A 
HETATM   10  C3  UNL     1      22.505   1.215  50.799  1.00  0.00     0.052 A 
HETATM   11  C2  UNL     1      22.116   2.183  49.922  1.00  0.00     0.105 A 
HETATM   12  C18 UNL     1      22.163   3.492  50.326  1.00  0.00     0.135 A 
HETATM   13  C16 UNL     1      22.588   3.853  51.584  1.00  0.00     0.105 A 
HETATM   14  C15 UNL     1      22.961   2.791  52.397  1.00  0.00     0.052 A 
BRANCH  11  15
HETATM   15  O1  UNL     1      21.697   1.784  48.671  1.00  0.00    -0.353 OA
HETATM   16  C1  UNL     1      22.461   1.895  47.509  1.00  0.00     0.210 C 
ENDBRANCH  11  15
BRANCH  12  17
HETATM   17  O5  UNL     1      21.772   4.464  49.444  1.00  0.00    -0.351 OA
HETATM   18  C19 UNL     1      20.428   4.924  49.388  1.00  0.00     0.210 C 
ENDBRANCH  12  17
BRANCH  13  19
HETATM   19  O4  UNL     1      22.648   5.159  52.026  1.00  0.00    -0.353 OA
HETATM   20  C17 UNL     1      23.774   5.950  51.700  1.00  0.00     0.210 C 
ENDBRANCH  13  19
ENDBRANCH   1   9
BRANCH   2  21
HETATM   21  C7  UNL     1      25.863   0.698  53.545  1.00  0.00    -0.005 C 
HETATM   22  C8  UNL     1      26.224   1.908  53.917  1.00  0.00     0.095 C 
HETATM   23  N1  UNL     1      27.456   2.641  53.840  1.00  0.00    -0.398 N 
HETATM   24  C9  UNL     1      28.784   2.114  53.687  1.00  0.00     0.122 C 
HETATM   25  H6  UNL     1      27.399   3.681  53.901  1.00  0.00     0.158 HD
HETATM   26  C10 UNL     1      28.956   0.661  53.922  1.00  0.00     0.047 C 
HETATM   27  C11 UNL     1      28.146  -0.216  53.051  1.00  0.00    -0.024 C 
HETATM   28  C12 UNL     1      26.810  -0.189  52.896  1.00  0.00     0.010 C 
ENDBRANCH   2  21
TORSDOF 5
ENDMDL
MODEL 3
REMARK VINA RESULT:      -8.1      2.557      4.865
REMARK  5 active torsions:
REMARK  status: ('A' for Active; 'I' for Inactive)
REMARK    1  A    between atoms: O1_2  and  C2_3 
REMARK    2  A    between atoms: C4_5  and  C5_6 
REMARK    3  A    between atoms: C6_7  and  C7_8 
REMARK    4  A    between atoms: C16_21  and  O4_22 
REMARK    5  A    between atoms: C18_24  and  O5_25 
ROOT
HETATM    1  C5  UNL     1      25.120   1.003  53.463  1.00  0.00     0.059 A 
HETATM    2  C6  UNL     1      24.383   0.070  53.988  1.00  0.00     0.060 A 
HETATM    3  C13 UNL     1      25.184  -0.621  54.986  1.00  0.00     0.260 A 
HETATM    4  O2  UNL     1      24.965  -1.599  55.783  1.00  0.00    -0.267 OA
HETATM    5  N2  UNL     1      26.488  -0.070  55.072  1.00  0.00    -0.289 N 
HETATM    6  C14 UNL     1      26.468   0.981  54.097  1.00  0.00     0.260 A 
HETATM    7  O3  UNL     1      27.532   1.684  53.933  1.00  0.00    -0.267 OA
HETATM    8  H13 UNL     1      27.297  -0.334  55.683  1.00  0.00     0.172 HD
ENDROOT
BRANCH   1   9
HETATM    9  C4  UNL     1      25.031   2.046  52.468  1.00  0.00    -0.014 A 
HETATM   10  C3  UNL     1      25.713   2.295  51.279  1.00  0.00     0.052 A 
HETATM   11  C2  UNL     1      25.522   3.355  50.443  1.00  0.00     0.105 A 
HETATM   12  C18 UNL     1      24.572   4.287  50.772  1.00  0.00     0.135 A 
HETATM   13  C16 UNL     1      23.812   4.183  51.914  1.00  0.00     0.105 A 
HETATM   14  C15 UNL     1      24.086   3.068  52.694  1.00  0.00     0.052 A 
BRANCH  11  15
HETATM   15  O1  UNL     1      26.303   3.425  49.309  1.00  0.00    -0.353 OA
HETATM   16  C1  UNL     1      27.248   4.421  49.062  1.00  0.00     0.210 C 
ENDBRANCH  11  15
BRANCH  12  17
HETATM   17  O5  UNL     1      24.381   5.351  49.931  1.00  0.00    -0.351 OA
HETATM   18  C19 UNL     1      23.539   5.258  48.789  1.00  0.00     0.210 C 
ENDBRANCH  12  17
BRANCH  13  19
HETATM   19  O4  UNL     1      22.847   5.101  52.276  1.00  0.00    -0.353 OA
HETATM   20  C17 UNL     1      21.506   4.889  51.882  1.00  0.00     0.210 C 
ENDBRANCH  13  19
ENDBRANCH   1   9
BRANCH   2  21
HETATM   21  C7  UNL     1      23.012  -0.291  53.688  1.00  0.00    -0.005 C 
HETATM   22  C8  UNL     1      22.155  -0.661  54.617  1.00  0.00     0.095 C 
HETATM   23  N1  UNL     1      20.777  -1.061  54.590  1.00  0.00    -0.398 N 
HETATM   24  C9  UNL     1      19.802  -0.788  53.570  1.00  0.00     0.122 C 
HETATM   25  H6  UNL     1      20.423  -1.616  55.399  1.00  0.00     0.158 HD
HETATM   26  C10 UNL     1      20.152   0.255  52.576  1.00  0.00     0.047 C 
HETATM   27  C11 UNL     1      21.384  -0.005  51.801  1.00  0.00    -0.024 C 
HETATM   28  C12 UNL     1      22.613  -0.239  52.294  1.00  0.00     0.010 C 
ENDBRANCH   2  21
TORSDOF 5
ENDMDL
MODEL 4
REMARK VINA RESULT:      -8.0      2.401      5.739
REMARK  5 active torsions:
REMARK  status: ('A' for Active; 'I' for Inactive)
REMARK    1  A    between atoms: O1_2  and  C2_3 
REMARK    2  A    between atoms: C4_5  and  C5_6 
REMARK    3  A    between atoms: C6_7  and  C7_8 
REMARK    4  A    between atoms: C16_21  and  O4_22 
REMARK    5  A    between atoms: C18_24  and  O5_25 
ROOT
HETATM    1  C5  UNL     1      22.959   0.660  53.171  1.00  0.00     0.059 A 
HETATM    2  C6  UNL     1      23.641  -0.194  53.872  1.00  0.00     0.060 A 
HETATM    3  C13 UNL     1      22.722  -0.854  54.787  1.00  0.00     0.260 A 
HETATM    4  O2  UNL     1      22.855  -1.757  55.685  1.00  0.00    -0.267 OA
HETATM    5  N2  UNL     1      21.400  -0.368  54.629  1.00  0.00    -0.289 N 
HETATM    6  C14 UNL     1      21.530   0.611  53.589  1.00  0.00     0.260 A 
HETATM    7  O3  UNL     1      20.476   1.244  53.210  1.00  0.00    -0.267 OA
HETATM    8  H13 UNL     1      20.516  -0.631  55.127  1.00  0.00     0.172 HD
ENDROOT
BRANCH   1   9
HETATM    9  C4  UNL     1      23.158   1.629  52.119  1.00  0.00    -0.014 A 
HETATM   10  C3  UNL     1      23.802   2.863  52.063  1.00  0.00     0.052 A 
HETATM   11  C2  UNL     1      23.889   3.683  50.977  1.00  0.00     0.105 A 
HETATM   12  C18 UNL     1      23.296   3.286  49.807  1.00  0.00     0.135 A 
HETATM   13  C16 UNL     1      22.621   2.092  49.698  1.00  0.00     0.105 A 
HETATM   14  C15 UNL     1      22.592   1.334  50.861  1.00  0.00     0.052 A 
BRANCH  11  15
HETATM   15  O1  UNL     1      24.573   4.870  51.125  1.00  0.00    -0.353 OA
HETATM   16  C1  UNL     1      23.998   6.064  51.560  1.00  0.00     0.210 C 
ENDBRANCH  11  15
BRANCH  12  17
HETATM   17  O5  UNL     1      23.384   4.110  48.717  1.00  0.00    -0.351 OA
HETATM   18  C19 UNL     1      22.394   5.093  48.442  1.00  0.00     0.210 C 
ENDBRANCH  12  17
BRANCH  13  19
HETATM   19  O4  UNL     1      22.013   1.661  48.537  1.00  0.00    -0.353 OA
HETATM   20  C17 UNL     1      20.635   1.911  48.342  1.00  0.00     0.210 C 
ENDBRANCH  13  19
ENDBRANCH   1   9
BRANCH   2  21
HETATM   21  C7  UNL     1      25.058  -0.494  53.824  1.00  0.00    -0.005 C 
HETATM   22  C8  UNL     1      25.610  -1.159  52.831  1.00  0.00     0.095 C 
HETATM   23  N1  UNL     1      26.953  -1.580  52.546  1.00  0.00    -0.398 N 
HETATM   24  C9  UNL     1      28.174  -1.043  53.081  1.00  0.00     0.122 C 
HETATM   25  H6  UNL     1      27.076  -2.367  51.872  1.00  0.00     0.158 HD
HETATM   26  C10 UNL     1      28.080   0.264  53.773  1.00  0.00     0.047 C 
HETATM   27  C11 UNL     1      27.165   0.295  54.933  1.00  0.00    -0.024 C 
HETATM   28  C12 UNL     1      25.861  -0.036  54.942  1.00  0.00     0.010 C 
ENDBRANCH   2  21
TORSDOF 5
ENDMDL
MODEL 5
REMARK VINA RESULT:      -7.8      2.419      5.794
REMARK  5 active torsions:
REMARK  status: ('A' for Active; 'I' for Inactive)
REMARK    1  A    between atoms: O1_2  and  C2_3 
REMARK    2  A    between atoms: C4_5  and  C5_6 
REMARK    3  A    between atoms: C6_7  and  C7_8 
REMARK    4  A    between atoms: C16_21  and  O4_22 
REMARK    5  A    between atoms: C18_24  and  O5_25 
ROOT
HETATM    1  C5  UNL     1      22.765  -0.361  53.750  1.00  0.00     0.059 A 
HETATM    2  C6  UNL     1      24.014  -0.018  53.848  1.00  0.00     0.060 A 
HETATM    3  C13 UNL     1      24.594  -0.763  54.955  1.00  0.00     0.260 A 
HETATM    4  O2  UNL     1      25.760  -0.811  55.483  1.00  0.00    -0.267 OA
HETATM    5  N2  UNL     1      23.636  -1.612  55.564  1.00  0.00    -0.289 N 
HETATM    6  C14 UNL     1      22.446  -1.368  54.800  1.00  0.00     0.260 A 
HETATM    7  O3  UNL     1      21.375  -2.006  55.117  1.00  0.00    -0.267 OA
HETATM    8  H13 UNL     1      23.729  -2.271  56.373  1.00  0.00     0.172 HD
ENDROOT
BRANCH   1   9
HETATM    9  C4  UNL     1      21.605  -0.072  52.940  1.00  0.00    -0.014 A 
HETATM   10  C3  UNL     1      20.254  -0.391  53.054  1.00  0.00     0.052 A 
HETATM   11  C2  UNL     1      19.265  -0.052  52.179  1.00  0.00     0.105 A 
HETATM   12  C18 UNL     1      19.596   0.674  51.064  1.00  0.00     0.135 A 
HETATM   13  C16 UNL     1      20.889   1.068  50.807  1.00  0.00     0.105 A 
HETATM   14  C15 UNL     1      21.817   0.672  51.760  1.00  0.00     0.052 A 
BRANCH  11  15
HETATM   15  O1  UNL     1      17.983  -0.465  52.471  1.00  0.00    -0.353 OA
HETATM   16  C1  UNL     1      17.668  -1.511  53.338  1.00  0.00     0.210 C 
ENDBRANCH  11  15
BRANCH  12  17
HETATM   17  O5  UNL     1      18.602   1.013  50.186  1.00  0.00    -0.351 OA
HETATM   18  C19 UNL     1      17.894   2.241  50.298  1.00  0.00     0.210 C 
ENDBRANCH  12  17
BRANCH  13  19
HETATM   19  O4  UNL     1      21.258   1.799  49.696  1.00  0.00    -0.353 OA
HETATM   20  C17 UNL     1      21.673   1.121  48.527  1.00  0.00     0.210 C 
ENDBRANCH  13  19
ENDBRANCH   1   9
BRANCH   2  21
HETATM   21  C7  UNL     1      24.769   0.928  53.052  1.00  0.00    -0.005 C 
HETATM   22  C8  UNL     1      25.765   0.565  52.271  1.00  0.00     0.095 C 
HETATM   23  N1  UNL     1      26.654   1.282  51.401  1.00  0.00    -0.398 N 
HETATM   24  C9  UNL     1      26.455   2.580  50.818  1.00  0.00     0.122 C 
HETATM   25  H6  UNL     1      27.557   0.821  51.152  1.00  0.00     0.158 HD
HETATM   26  C10 UNL     1      25.080   3.129  50.868  1.00  0.00     0.047 C 
HETATM   27  C11 UNL     1      24.514   3.283  52.225  1.00  0.00    -0.024 C 
HETATM   28  C12 UNL     1      24.386   2.324  53.159  1.00  0.00     0.010 C 
ENDBRANCH   2  21
TORSDOF 5
ENDMDL
MODEL 6
REMARK VINA RESULT:      -7.7      2.626      5.229
REMARK  5 active torsions:
REMARK  status: ('A' for Active; 'I' for Inactive)
REMARK    1  A    between atoms: O1_2  and  C2_3 
REMARK    2  A    between atoms: C4_5  and  C5_6 
REMARK    3  A    between atoms: C6_7  and  C7_8 
REMARK    4  A    between atoms: C16_21  and  O4_22 
REMARK    5  A    between atoms: C18_24  and  O5_25 
ROOT
HETATM    1  C5  UNL     1      25.009   1.439  53.430  1.00  0.00     0.059 A 
HETATM    2  C6  UNL     1      24.429   0.377  53.900  1.00  0.00     0.060 A 
HETATM    3  C13 UNL     1      25.373  -0.293  54.781  1.00  0.00     0.260 A 
HETATM    4  O2  UNL     1      25.329  -1.359  55.490  1.00  0.00    -0.267 OA
HETATM    5  N2  UNL     1      26.603   0.410  54.849  1.00  0.00    -0.289 N 
HETATM    6  C14 UNL     1      26.389   1.534  53.984  1.00  0.00     0.260 A 
HETATM    7  O3  UNL     1      27.346   2.379  53.831  1.00  0.00    -0.267 OA
HETATM    8  H13 UNL     1      27.477   0.198  55.386  1.00  0.00     0.172 HD
ENDROOT
BRANCH   1   9
HETATM    9  C4  UNL     1      24.727   2.548  52.548  1.00  0.00    -0.014 A 
HETATM   10  C3  UNL     1      23.838   3.618  52.609  1.00  0.00     0.052 A 
HETATM   11  C2  UNL     1      23.676   4.591  51.669  1.00  0.00     0.105 A 
HETATM   12  C18 UNL     1      24.448   4.545  50.537  1.00  0.00     0.135 A 
HETATM   13  C16 UNL     1      25.375   3.550  50.326  1.00  0.00     0.105 A 
HETATM   14  C15 UNL     1      25.460   2.611  51.344  1.00  0.00     0.052 A 
BRANCH  11  15
HETATM   15  O1  UNL     1      22.738   5.570  51.915  1.00  0.00    -0.353 OA
HETATM   16  C1  UNL     1      21.465   5.605  51.344  1.00  0.00     0.210 C 
ENDBRANCH  11  15
BRANCH  12  17
HETATM   17  O5  UNL     1      24.284   5.523  49.592  1.00  0.00    -0.351 OA
HETATM   18  C19 UNL     1      24.867   6.811  49.743  1.00  0.00     0.210 C 
ENDBRANCH  12  17
BRANCH  13  19
HETATM   19  O4  UNL     1      26.169   3.472  49.200  1.00  0.00    -0.353 OA
HETATM   20  C17 UNL     1      27.292   4.324  49.083  1.00  0.00     0.210 C 
ENDBRANCH  13  19
ENDBRANCH   1   9
BRANCH   2  21
HETATM   21  C7  UNL     1      23.095  -0.128  53.643  1.00  0.00    -0.005 C 
HETATM   22  C8  UNL     1      22.327  -0.624  54.591  1.00  0.00     0.095 C 
HETATM   23  N1  UNL     1      21.003  -1.177  54.604  1.00  0.00    -0.398 N 
HETATM   24  C9  UNL     1      19.959  -0.984  53.635  1.00  0.00     0.122 C 
HETATM   25  H6  UNL     1      20.749  -1.795  55.406  1.00  0.00     0.158 HD
HETATM   26  C10 UNL     1      20.146   0.123  52.668  1.00  0.00     0.047 C 
HETATM   27  C11 UNL     1      21.363   0.031  51.835  1.00  0.00    -0.024 C 
HETATM   28  C12 UNL     1      22.632  -0.078  52.269  1.00  0.00     0.010 C 
ENDBRANCH   2  21
TORSDOF 5
ENDMDL
MODEL 7
REMARK VINA RESULT:      -7.5      2.611      5.944
REMARK  5 active torsions:
REMARK  status: ('A' for Active; 'I' for Inactive)
REMARK    1  A    between atoms: O1_2  and  C2_3 
REMARK    2  A    between atoms: C4_5  and  C5_6 
REMARK    3  A    between atoms: C6_7  and  C7_8 
REMARK    4  A    between atoms: C16_21  and  O4_22 
REMARK    5  A    between atoms: C18_24  and  O5_25 
ROOT
HETATM    1  C5  UNL     1      25.074   1.544  52.120  1.00  0.00     0.059 A 
HETATM    2  C6  UNL     1      24.834   0.467  52.804  1.00  0.00     0.060 A 
HETATM    3  C13 UNL     1      26.112  -0.119  53.177  1.00  0.00     0.260 A 
HETATM    4  O2  UNL     1      26.455  -1.162  53.836  1.00  0.00    -0.267 OA
HETATM    5  N2  UNL     1      27.195   0.654  52.688  1.00  0.00    -0.289 N 
HETATM    6  C14 UNL     1      26.547   1.735  52.003  1.00  0.00     0.260 A 
HETATM    7  O3  UNL     1      27.281   2.628  51.438  1.00  0.00    -0.267 OA
HETATM    8  H13 UNL     1      28.229   0.510  52.782  1.00  0.00     0.172 HD
ENDROOT
BRANCH   1   9
HETATM    9  C4  UNL     1      24.360   2.606  51.450  1.00  0.00    -0.014 A 
HETATM   10  C3  UNL     1      24.152   3.952  51.741  1.00  0.00     0.052 A 
HETATM   11  C2  UNL     1      23.423   4.836  51.002  1.00  0.00     0.105 A 
HETATM   12  C18 UNL     1      22.821   4.393  49.854  1.00  0.00     0.135 A 
HETATM   13  C16 UNL     1      22.932   3.089  49.428  1.00  0.00     0.105 A 
HETATM   14  C15 UNL     1      23.695   2.272  50.251  1.00  0.00     0.052 A 
BRANCH  11  15
HETATM   15  O1  UNL     1      23.335   6.133  51.461  1.00  0.00    -0.353 OA
HETATM   16  C1  UNL     1      24.243   7.145  51.147  1.00  0.00     0.210 C 
ENDBRANCH  11  15
BRANCH  12  17
HETATM   17  O5  UNL     1      22.089   5.282  49.113  1.00  0.00    -0.351 OA
HETATM   18  C19 UNL     1      22.650   5.966  47.999  1.00  0.00     0.210 C 
ENDBRANCH  12  17
BRANCH  13  19
HETATM   19  O4  UNL     1      22.340   2.607  48.278  1.00  0.00    -0.353 OA
HETATM   20  C17 UNL     1      21.631   1.385  48.323  1.00  0.00     0.210 C 
ENDBRANCH  13  19
ENDBRANCH   1   9
BRANCH   2  21
HETATM   21  C7  UNL     1      23.560  -0.121  53.168  1.00  0.00    -0.005 C 
HETATM   22  C8  UNL     1      23.363  -0.739  54.313  1.00  0.00     0.095 C 
HETATM   23  N1  UNL     1      22.230  -1.393  54.905  1.00  0.00    -0.398 N 
HETATM   24  C9  UNL     1      20.842  -1.215  54.576  1.00  0.00     0.122 C 
HETATM   25  H6  UNL     1      22.418  -2.083  55.665  1.00  0.00     0.158 HD
HETATM   26  C10 UNL     1      20.500  -0.032  53.751  1.00  0.00     0.047 C 
HETATM   27  C11 UNL     1      21.166   0.028  52.433  1.00  0.00    -0.024 C 
HETATM   28  C12 UNL     1      22.489  -0.012  52.194  1.00  0.00     0.010 C 
ENDBRANCH   2  21
TORSDOF 5
ENDMDL
MODEL 8
REMARK VINA RESULT:      -7.3      2.690      5.579
REMARK  5 active torsions:
REMARK  status: ('A' for Active; 'I' for Inactive)
REMARK    1  A    between atoms: O1_2  and  C2_3 
REMARK    2  A    between atoms: C4_5  and  C5_6 
REMARK    3  A    between atoms: C6_7  and  C7_8 
REMARK    4  A    between atoms: C16_21  and  O4_22 
REMARK    5  A    between atoms: C18_24  and  O5_25 
ROOT
HETATM    1  C5  UNL     1      24.537   2.556  51.165  1.00  0.00     0.059 A 
HETATM    2  C6  UNL     1      24.687   3.200  50.047  1.00  0.00     0.060 A 
HETATM    3  C13 UNL     1      26.076   3.626  49.962  1.00  0.00     0.260 A 
HETATM    4  O2  UNL     1      26.755   4.282  49.097  1.00  0.00    -0.267 OA
HETATM    5  N2  UNL     1      26.812   3.213  51.101  1.00  0.00    -0.289 N 
HETATM    6  C14 UNL     1      25.837   2.518  51.891  1.00  0.00     0.260 A 
HETATM    7  O3  UNL     1      26.207   2.013  53.014  1.00  0.00    -0.267 OA
HETATM    8  H13 UNL     1      27.821   3.356  51.345  1.00  0.00     0.172 HD
ENDROOT
BRANCH   1   9
HETATM    9  C4  UNL     1      23.507   1.869  51.909  1.00  0.00    -0.014 A 
HETATM   10  C3  UNL     1      23.450   0.630  52.544  1.00  0.00     0.052 A 
HETATM   11  C2  UNL     1      22.377   0.106  53.202  1.00  0.00     0.105 A 
HETATM   12  C18 UNL     1      21.223   0.843  53.266  1.00  0.00     0.135 A 
HETATM   13  C16 UNL     1      21.119   2.088  52.690  1.00  0.00     0.105 A 
HETATM   14  C15 UNL     1      22.267   2.528  52.045  1.00  0.00     0.052 A 
BRANCH  11  15
HETATM   15  O1  UNL     1      22.520  -1.143  53.767  1.00  0.00    -0.353 OA
HETATM   16  C1  UNL     1      22.807  -1.373  55.113  1.00  0.00     0.210 C 
ENDBRANCH  11  15
BRANCH  12  17
HETATM   17  O5  UNL     1      20.146   0.316  53.928  1.00  0.00    -0.351 OA
HETATM   18  C19 UNL     1      19.222  -0.547  53.279  1.00  0.00     0.210 C 
ENDBRANCH  12  17
BRANCH  13  19
HETATM   19  O4  UNL     1      19.974   2.858  52.734  1.00  0.00    -0.353 OA
HETATM   20  C17 UNL     1      19.239   3.076  51.546  1.00  0.00     0.210 C 
ENDBRANCH  13  19
ENDBRANCH   1   9
BRANCH   2  21
HETATM   21  C7  UNL     1      23.707   3.493  49.020  1.00  0.00    -0.005 C 
HETATM   22  C8  UNL     1      23.047   2.552  48.378  1.00  0.00     0.095 C 
HETATM   23  N1  UNL     1      22.051   2.570  47.345  1.00  0.00    -0.398 N 
HETATM   24  C9  UNL     1      21.182   3.655  46.980  1.00  0.00     0.122 C 
HETATM   25  H6  UNL     1      21.930   1.700  46.781  1.00  0.00     0.158 HD
HETATM   26  C10 UNL     1      21.082   4.780  47.941  1.00  0.00     0.047 C 
HETATM   27  C11 UNL     1      22.358   5.461  48.245  1.00  0.00    -0.024 C 
HETATM   28  C12 UNL     1      23.486   4.893  48.710  1.00  0.00     0.010 C 
ENDBRANCH   2  21
TORSDOF 5
ENDMDL
MODEL 9
REMARK VINA RESULT:      -7.2      2.456      5.248
REMARK  5 active torsions:
REMARK  status: ('A' for Active; 'I' for Inactive)
REMARK    1  A    between atoms: O1_2  and  C2_3 
REMARK    2  A    between atoms: C4_5  and  C5_6 
REMARK    3  A    between atoms: C6_7  and  C7_8 
REMARK    4  A    between atoms: C16_21  and  O4_22 
REMARK    5  A    between atoms: C18_24  and  O5_25 
ROOT
HETATM    1  C5  UNL     1      25.026   2.844  50.793  1.00  0.00     0.059 A 
HETATM    2  C6  UNL     1      24.627   3.684  49.887  1.00  0.00     0.060 A 
HETATM    3  C13 UNL     1      25.778   4.474  49.476  1.00  0.00     0.260 A 
HETATM    4  O2  UNL     1      25.951   5.424  48.635  1.00  0.00    -0.267 OA
HETATM    5  N2  UNL     1      26.947   4.086  50.177  1.00  0.00    -0.289 N 
HETATM    6  C14 UNL     1      26.484   3.032  51.034  1.00  0.00     0.260 A 
HETATM    7  O3  UNL     1      27.332   2.462  51.814  1.00  0.00    -0.267 OA
HETATM    8  H13 UNL     1      27.927   4.450  50.116  1.00  0.00     0.172 HD
ENDROOT
BRANCH   1   9
HETATM    9  C4  UNL     1      24.495   1.790  51.627  1.00  0.00    -0.014 A 
HETATM   10  C3  UNL     1      25.045   0.992  52.627  1.00  0.00     0.052 A 
HETATM   11  C2  UNL     1      24.406   0.008  53.321  1.00  0.00     0.105 A 
HETATM   12  C18 UNL     1      23.090  -0.247  53.035  1.00  0.00     0.135 A 
HETATM   13  C16 UNL     1      22.402   0.456  52.073  1.00  0.00     0.105 A 
HETATM   14  C15 UNL     1      23.145   1.433  51.426  1.00  0.00     0.052 A 
BRANCH  11  15
HETATM   15  O1  UNL     1      25.128  -0.674  54.276  1.00  0.00    -0.353 OA
HETATM   16  C1  UNL     1      26.184  -0.128  55.008  1.00  0.00     0.210 C 
ENDBRANCH  11  15
BRANCH  12  17
HETATM   17  O5  UNL     1      22.448  -1.236  53.733  1.00  0.00    -0.351 OA
HETATM   18  C19 UNL     1      21.736  -0.960  54.933  1.00  0.00     0.210 C 
ENDBRANCH  12  17
BRANCH  13  19
HETATM   19  O4  UNL     1      21.078   0.226  51.758  1.00  0.00    -0.353 OA
HETATM   20  C17 UNL     1      20.085   1.102  52.256  1.00  0.00     0.210 C 
ENDBRANCH  13  19
ENDBRANCH   1   9
BRANCH   2  21
HETATM   21  C7  UNL     1      23.301   3.875  49.335  1.00  0.00    -0.005 C 
HETATM   22  C8  UNL     1      22.480   4.810  49.763  1.00  0.00     0.095 C 
HETATM   23  N1  UNL     1      21.147   5.201  49.399  1.00  0.00    -0.398 N 
HETATM   24  C9  UNL     1      20.458   4.932  48.167  1.00  0.00     0.122 C 
HETATM   25  H6  UNL     1      20.599   5.746  50.100  1.00  0.00     0.158 HD
HETATM   26  C10 UNL     1      21.284   4.458  47.032  1.00  0.00     0.047 C 
HETATM   27  C11 UNL     1      22.030   3.206  47.278  1.00  0.00    -0.024 C 
HETATM   28  C12 UNL     1      22.898   2.966  48.277  1.00  0.00     0.010 C 
ENDBRANCH   2  21
TORSDOF 5
ENDMDL
