MODEL 1
REMARK VINA RESULT:      -8.1      0.000      0.000
REMARK  10 active torsions:
REMARK  status: ('A' for Active; 'I' for Inactive)
REMARK    1  A    between atoms: O1_2  and  C2_3 
REMARK    2  A    between atoms: C2_3  and  C3_4 
REMARK    3  A    between atoms: C3_4  and  O2_5 
REMARK    4  A    between atoms: O2_5  and  C4_6 
REMARK    5  A    between atoms: C9_11  and  O3_12 
REMARK    6  A    between atoms: O3_12  and  C10_13 
REMARK    7  A    between atoms: C10_13  and  O4_14 
REMARK    8  A    between atoms: O4_14  and  C11_15 
REMARK    9  A    between atoms: C11_15  and  N1_16 
REMARK   10  A    between atoms: N2_18  and  C13_19 
ROOT
HETATM    1  C4  UNL     1      24.241   0.019  53.331  1.00  0.00     0.102 A 
HETATM    2  C5  UNL     1      23.745   1.147  52.726  1.00  0.00     0.048 A 
HETATM    3  C6  UNL     1      24.402   1.979  51.875  1.00  0.00    -0.033 A 
HETATM    4  C7  UNL     1      25.711   1.679  51.574  1.00  0.00    -0.029 A 
HETATM    5  C8  UNL     1      26.304   0.566  52.132  1.00  0.00     0.049 A 
HETATM    6  C9  UNL     1      25.577  -0.253  52.999  1.00  0.00     0.105 A 
HETATM    7  C12 UNL     1      26.480   2.552  50.650  1.00  0.00     0.182 C 
HETATM    8  N2  UNL     1      25.588   3.467  49.980  1.00  0.00    -0.308 N 
HETATM    9  N3  UNL     1      24.187   3.310  49.947  1.00  0.00    -0.233 NA
HETATM   10  C20 UNL     1      23.687   3.155  51.321  1.00  0.00     0.149 C 
HETATM   11  H25 UNL     1      24.007   2.414  49.413  1.00  0.00     0.147 HD
ENDROOT
BRANCH   6  12
HETATM   12  O3  UNL     1      26.297  -1.334  53.485  1.00  0.00    -0.323 OA
BRANCH  12  13
HETATM   13  C10 UNL     1      27.115  -2.106  52.664  1.00  0.00     0.347 C 
BRANCH  13  14
HETATM   14  O4  UNL     1      28.302  -2.468  53.259  1.00  0.00    -0.338 OA
BRANCH  14  15
HETATM   15  C11 UNL     1      29.216  -1.441  53.389  1.00  0.00     0.436 C 
BRANCH  15  16
HETATM   16  N1  UNL     1      28.924  -0.572  54.505  1.00  0.00     0.101 N 
HETATM   17  H14 UNL     1      28.433  -1.098  55.252  1.00  0.00     0.315 HD
HETATM   18  H15 UNL     1      28.371   0.258  54.203  1.00  0.00     0.315 HD
ENDBRANCH  15  16
ENDBRANCH  14  15
ENDBRANCH  13  14
ENDBRANCH  12  13
ENDBRANCH   6  12
BRANCH   1  19
HETATM   19  O2  UNL     1      23.760  -0.912  54.178  1.00  0.00    -0.346 OA
BRANCH  19  20
HETATM   20  C3  UNL     1      22.580  -1.024  54.878  1.00  0.00     0.201 C 
BRANCH  20  21
HETATM   21  C2  UNL     1      21.572  -1.853  54.127  1.00  0.00     0.193 C 
BRANCH  21  22
HETATM   22  O1  UNL     1      20.293  -1.323  54.117  1.00  0.00    -0.394 OA
HETATM   23  C1  UNL     1      20.247  -0.132  53.439  1.00  0.00     0.201 C 
ENDBRANCH  21  22
ENDBRANCH  20  21
ENDBRANCH  19  20
ENDBRANCH   1  19
BRANCH   8  24
HETATM   24  C13 UNL     1      26.151   4.589  49.319  1.00  0.00     0.046 A 
HETATM   25  C14 UNL     1      25.391   5.675  48.985  1.00  0.00     0.031 A 
HETATM   26  C15 UNL     1      25.900   6.794  48.338  1.00  0.00     0.003 A 
HETATM   27  C16 UNL     1      27.251   6.824  48.006  1.00  0.00     0.007 A 
HETATM   28  C17 UNL     1      28.037   5.730  48.337  1.00  0.00    -0.060 A 
HETATM   29  C18 UNL     1      29.474   5.714  48.008  1.00  0.00     0.048 C 
HETATM   30  C19 UNL     1      27.488   4.640  48.981  1.00  0.00     0.037 A 
ENDBRANCH   8  24
TORSDOF 10
ENDMDL
MODEL 2
REMARK VINA RESULT:      -7.4      2.931      7.514
REMARK  10 active torsions:
REMARK  status: ('A' for Active; 'I' for Inactive)
REMARK    1  A    between atoms: O1_2  and  C2_3 
REMARK    2  A    between atoms: C2_3  and  C3_4 
REMARK    3  A    between atoms: C3_4  and  O2_5 
REMARK    4  A    between atoms: O2_5  and  C4_6 
REMARK    5  A    between atoms: C9_11  and  O3_12 
REMARK    6  A    between atoms: O3_12  and  C10_13 
REMARK    7  A    between atoms: C10_13  and  O4_14 
REMARK    8  A    between atoms: O4_14  and  C11_15 
REMARK    9  A    between atoms: C11_15  and  N1_16 
REMARK   10  A    between atoms: N2_18  and  C13_19 
ROOT
HETATM    1  C4  UNL     1      26.581   1.720  52.902  1.00  0.00     0.102 A 
HETATM    2  C5  UNL     1      25.637   0.961  53.551  1.00  0.00     0.048 A 
HETATM    3  C6  UNL     1      24.356   0.735  53.160  1.00  0.00    -0.033 A 
HETATM    4  C7  UNL     1      23.932   1.323  51.989  1.00  0.00    -0.029 A 
HETATM    5  C8  UNL     1      24.804   2.107  51.263  1.00  0.00     0.049 A 
HETATM    6  C9  UNL     1      26.112   2.302  51.715  1.00  0.00     0.105 A 
HETATM    7  C12 UNL     1      22.542   1.112  51.512  1.00  0.00     0.182 C 
HETATM    8  N2  UNL     1      21.920   0.048  52.262  1.00  0.00    -0.308 N 
HETATM    9  N3  UNL     1      22.635  -0.867  53.062  1.00  0.00    -0.233 NA
HETATM   10  C20 UNL     1      23.485  -0.122  54.002  1.00  0.00     0.149 C 
HETATM   11  H25 UNL     1      23.253  -1.413  52.398  1.00  0.00     0.147 HD
ENDROOT
BRANCH   6  12
HETATM   12  O3  UNL     1      26.876   3.111  50.888  1.00  0.00    -0.323 OA
BRANCH  12  13
HETATM   13  C10 UNL     1      26.541   3.330  49.554  1.00  0.00     0.347 C 
BRANCH  13  14
HETATM   14  O4  UNL     1      27.079   4.486  49.037  1.00  0.00    -0.338 OA
BRANCH  14  15
HETATM   15  C11 UNL     1      26.214   5.562  49.016  1.00  0.00     0.436 C 
BRANCH  15  16
HETATM   16  N1  UNL     1      25.714   5.903  50.328  1.00  0.00     0.101 N 
HETATM   17  H14 UNL     1      26.494   6.207  50.942  1.00  0.00     0.315 HD
HETATM   18  H15 UNL     1      25.190   5.109  50.751  1.00  0.00     0.315 HD
ENDBRANCH  15  16
ENDBRANCH  14  15
ENDBRANCH  13  14
ENDBRANCH  12  13
ENDBRANCH   6  12
BRANCH   1  19
HETATM   19  O2  UNL     1      27.867   2.053  53.122  1.00  0.00    -0.346 OA
BRANCH  19  20
HETATM   20  C3  UNL     1      28.986   1.317  53.443  1.00  0.00     0.201 C 
BRANCH  20  21
HETATM   21  C2  UNL     1      28.781   0.529  54.710  1.00  0.00     0.193 C 
BRANCH  21  22
HETATM   22  O1  UNL     1      28.661  -0.836  54.518  1.00  0.00    -0.394 OA
HETATM   23  C1  UNL     1      29.343  -1.250  53.402  1.00  0.00     0.201 C 
ENDBRANCH  21  22
ENDBRANCH  20  21
ENDBRANCH  19  20
ENDBRANCH   1  19
BRANCH   8  24
HETATM   24  C13 UNL     1      20.509  -0.085  52.192  1.00  0.00     0.046 A 
HETATM   25  C14 UNL     1      19.801  -0.707  53.183  1.00  0.00     0.031 A 
HETATM   26  C15 UNL     1      18.421  -0.860  53.157  1.00  0.00     0.003 A 
HETATM   27  C16 UNL     1      17.709  -0.359  52.072  1.00  0.00     0.007 A 
HETATM   28  C17 UNL     1      18.410   0.276  51.057  1.00  0.00    -0.060 A 
HETATM   29  C18 UNL     1      17.701   0.825  49.886  1.00  0.00     0.048 C 
HETATM   30  C19 UNL     1      19.782   0.405  51.126  1.00  0.00     0.037 A 
ENDBRANCH   8  24
TORSDOF 10
ENDMDL
MODEL 3
REMARK VINA RESULT:      -7.0      3.089      7.849
REMARK  10 active torsions:
REMARK  status: ('A' for Active; 'I' for Inactive)
REMARK    1  A    between atoms: O1_2  and  C2_3 
REMARK    2  A    between atoms: C2_3  and  C3_4 
REMARK    3  A    between atoms: C3_4  and  O2_5 
REMARK    4  A    between atoms: O2_5  and  C4_6 
REMARK    5  A    between atoms: C9_11  and  O3_12 
REMARK    6  A    between atoms: O3_12  and  C10_13 
REMARK    7  A    between atoms: C10_13  and  O4_14 
REMARK    8  A    between atoms: O4_14  and  C11_15 
REMARK    9  A    between atoms: C11_15  and  N1_16 
REMARK   10  A    between atoms: N2_18  and  C13_19 
ROOT
HETATM    1  C4  UNL     1      24.805   1.492  52.497  1.00  0.00     0.102 A 
HETATM    2  C5  UNL     1      23.515   1.791  52.133  1.00  0.00     0.048 A 
HETATM    3  C6  UNL     1      22.399   1.062  52.396  1.00  0.00    -0.033 A 
HETATM    4  C7  UNL     1      22.554  -0.110  53.102  1.00  0.00    -0.029 A 
HETATM    5  C8  UNL     1      23.811  -0.501  53.512  1.00  0.00     0.049 A 
HETATM    6  C9  UNL     1      24.922   0.292  53.213  1.00  0.00     0.105 A 
HETATM    7  C12 UNL     1      21.370  -0.949  53.419  1.00  0.00     0.182 C 
HETATM    8  N2  UNL     1      20.158  -0.213  53.150  1.00  0.00    -0.308 N 
HETATM    9  N3  UNL     1      20.118   1.183  52.960  1.00  0.00    -0.233 NA
HETATM   10  C20 UNL     1      21.085   1.556  51.917  1.00  0.00     0.149 C 
HETATM   11  H25 UNL     1      20.422   1.611  53.879  1.00  0.00     0.147 HD
ENDROOT
BRANCH   6  12
HETATM   12  O3  UNL     1      26.121  -0.222  53.686  1.00  0.00    -0.323 OA
BRANCH  12  13
HETATM   13  C10 UNL     1      26.538  -0.034  55.001  1.00  0.00     0.347 C 
BRANCH  13  14
HETATM   14  O4  UNL     1      27.900  -0.143  55.164  1.00  0.00    -0.338 OA
BRANCH  14  15
HETATM   15  C11 UNL     1      28.647   0.529  54.218  1.00  0.00     0.436 C 
BRANCH  15  16
HETATM   16  N1  UNL     1      28.485   1.963  54.294  1.00  0.00     0.101 N 
HETATM   17  H14 UNL     1      28.447   2.268  55.285  1.00  0.00     0.315 HD
HETATM   18  H15 UNL     1      27.641   2.276  53.770  1.00  0.00     0.315 HD
ENDBRANCH  15  16
ENDBRANCH  14  15
ENDBRANCH  13  14
ENDBRANCH  12  13
ENDBRANCH   6  12
BRANCH   1  19
HETATM   19  O2  UNL     1      26.011   2.072  52.337  1.00  0.00    -0.346 OA
BRANCH  19  20
HETATM   20  C3  UNL     1      26.815   2.280  51.238  1.00  0.00     0.201 C 
BRANCH  20  21
HETATM   21  C2  UNL     1      26.476   3.573  50.545  1.00  0.00     0.193 C 
BRANCH  21  22
HETATM   22  O1  UNL     1      25.929   3.417  49.283  1.00  0.00    -0.394 OA
HETATM   23  C1  UNL     1      24.566   3.569  49.303  1.00  0.00     0.201 C 
ENDBRANCH  21  22
ENDBRANCH  20  21
ENDBRANCH  19  20
ENDBRANCH   1  19
BRANCH   8  24
HETATM   24  C13 UNL     1      18.939  -0.935  53.070  1.00  0.00     0.046 A 
HETATM   25  C14 UNL     1      18.764  -2.113  53.742  1.00  0.00     0.031 A 
HETATM   26  C15 UNL     1      17.589  -2.853  53.694  1.00  0.00     0.003 A 
HETATM   27  C16 UNL     1      16.529  -2.382  52.926  1.00  0.00     0.007 A 
HETATM   28  C17 UNL     1      16.689  -1.189  52.238  1.00  0.00    -0.060 A 
HETATM   29  C18 UNL     1      15.594  -0.647  51.410  1.00  0.00     0.048 C 
HETATM   30  C19 UNL     1      17.875  -0.487  52.316  1.00  0.00     0.037 A 
ENDBRANCH   8  24
TORSDOF 10
ENDMDL
MODEL 4
REMARK VINA RESULT:      -6.9      5.168      9.130
REMARK  10 active torsions:
REMARK  status: ('A' for Active; 'I' for Inactive)
REMARK    1  A    between atoms: O1_2  and  C2_3 
REMARK    2  A    between atoms: C2_3  and  C3_4 
REMARK    3  A    between atoms: C3_4  and  O2_5 
REMARK    4  A    between atoms: O2_5  and  C4_6 
REMARK    5  A    between atoms: C9_11  and  O3_12 
REMARK    6  A    between atoms: O3_12  and  C10_13 
REMARK    7  A    between atoms: C10_13  and  O4_14 
REMARK    8  A    between atoms: O4_14  and  C11_15 
REMARK    9  A    between atoms: C11_15  and  N1_16 
REMARK   10  A    between atoms: N2_18  and  C13_19 
ROOT
HETATM    1  C4  UNL     1      27.850   7.418  48.379  1.00  0.00     0.102 A 
HETATM    2  C5  UNL     1      26.645   7.320  49.032  1.00  0.00     0.048 A 
HETATM    3  C6  UNL     1      26.027   6.184  49.447  1.00  0.00    -0.033 A 
HETATM    4  C7  UNL     1      26.658   4.986  49.197  1.00  0.00    -0.029 A 
HETATM    5  C8  UNL     1      27.873   4.977  48.544  1.00  0.00     0.049 A 
HETATM    6  C9  UNL     1      28.461   6.179  48.142  1.00  0.00     0.105 A 
HETATM    7  C12 UNL     1      26.031   3.710  49.627  1.00  0.00     0.182 C 
HETATM    8  N2  UNL     1      24.933   3.980  50.524  1.00  0.00    -0.308 N 
HETATM    9  N3  UNL     1      24.728   5.222  51.158  1.00  0.00    -0.233 NA
HETATM   10  C20 UNL     1      24.720   6.285  50.142  1.00  0.00     0.149 C 
HETATM   11  H25 UNL     1      25.559   5.364  51.797  1.00  0.00     0.147 HD
ENDROOT
BRANCH   6  12
HETATM   12  O3  UNL     1      29.679   6.019  47.499  1.00  0.00    -0.323 OA
BRANCH  12  13
HETATM   13  C10 UNL     1      30.726   5.297  48.066  1.00  0.00     0.347 C 
BRANCH  13  14
HETATM   14  O4  UNL     1      31.842   6.060  48.322  1.00  0.00    -0.338 OA
BRANCH  14  15
HETATM   15  C11 UNL     1      31.898   6.584  49.598  1.00  0.00     0.436 C 
BRANCH  15  16
HETATM   16  N1  UNL     1      31.155   7.816  49.729  1.00  0.00     0.101 N 
HETATM   17  H14 UNL     1      30.589   7.987  48.876  1.00  0.00     0.315 HD
HETATM   18  H15 UNL     1      31.787   8.620  49.929  1.00  0.00     0.315 HD
ENDBRANCH  15  16
ENDBRANCH  14  15
ENDBRANCH  13  14
ENDBRANCH  12  13
ENDBRANCH   6  12
BRANCH   1  19
HETATM   19  O2  UNL     1      28.608   8.424  47.901  1.00  0.00    -0.346 OA
BRANCH  19  20
HETATM   20  C3  UNL     1      28.396   9.778  47.766  1.00  0.00     0.201 C 
BRANCH  20  21
HETATM   21  C2  UNL     1      28.765  10.521  49.023  1.00  0.00     0.193 C 
BRANCH  21  22
HETATM   22  O1  UNL     1      30.127  10.659  49.223  1.00  0.00    -0.394 OA
HETATM   23  C1  UNL     1      30.732  11.278  48.160  1.00  0.00     0.201 C 
ENDBRANCH  21  22
ENDBRANCH  20  21
ENDBRANCH  19  20
ENDBRANCH   1  19
BRANCH   8  24
HETATM   24  C13 UNL     1      24.007   2.936  50.783  1.00  0.00     0.046 A 
HETATM   25  C14 UNL     1      23.946   2.324  52.004  1.00  0.00     0.031 A 
HETATM   26  C15 UNL     1      23.057   1.299  52.302  1.00  0.00     0.003 A 
HETATM   27  C16 UNL     1      22.178   0.864  51.316  1.00  0.00     0.007 A 
HETATM   28  C17 UNL     1      22.225   1.473  50.071  1.00  0.00    -0.060 A 
HETATM   29  C18 UNL     1      21.313   1.048  48.993  1.00  0.00     0.048 C 
HETATM   30  C19 UNL     1      23.126   2.489  49.821  1.00  0.00     0.037 A 
ENDBRANCH   8  24
TORSDOF 10
ENDMDL
MODEL 5
REMARK VINA RESULT:      -6.9      2.230      4.636
REMARK  10 active torsions:
REMARK  status: ('A' for Active; 'I' for Inactive)
REMARK    1  A    between atoms: O1_2  and  C2_3 
REMARK    2  A    between atoms: C2_3  and  C3_4 
REMARK    3  A    between atoms: C3_4  and  O2_5 
REMARK    4  A    between atoms: O2_5  and  C4_6 
REMARK    5  A    between atoms: C9_11  and  O3_12 
REMARK    6  A    between atoms: O3_12  and  C10_13 
REMARK    7  A    between atoms: C10_13  and  O4_14 
REMARK    8  A    between atoms: O4_14  and  C11_15 
REMARK    9  A    between atoms: C11_15  and  N1_16 
REMARK   10  A    between atoms: N2_18  and  C13_19 
ROOT
HETATM    1  C4  UNL     1      25.637   0.853  52.504  1.00  0.00     0.102 A 
HETATM    2  C5  UNL     1      26.300   1.727  51.678  1.00  0.00     0.048 A 
HETATM    3  C6  UNL     1      25.755   2.721  50.929  1.00  0.00    -0.033 A 
HETATM    4  C7  UNL     1      24.390   2.889  50.987  1.00  0.00    -0.029 A 
HETATM    5  C8  UNL     1      23.633   2.060  51.787  1.00  0.00     0.049 A 
HETATM    6  C9  UNL     1      24.250   1.055  52.536  1.00  0.00     0.105 A 
HETATM    7  C12 UNL     1      23.738   3.960  50.190  1.00  0.00     0.182 C 
HETATM    8  N2  UNL     1      24.736   4.863  49.670  1.00  0.00    -0.308 N 
HETATM    9  N3  UNL     1      26.063   4.917  50.140  1.00  0.00    -0.233 NA
HETATM   10  C20 UNL     1      26.645   3.567  50.095  1.00  0.00     0.149 C 
HETATM   11  H25 UNL     1      26.003   5.231  51.148  1.00  0.00     0.147 HD
ENDROOT
BRANCH   6  12
HETATM   12  O3  UNL     1      23.368   0.299  53.294  1.00  0.00    -0.323 OA
BRANCH  12  13
HETATM   13  C10 UNL     1      22.532  -0.656  52.721  1.00  0.00     0.347 C 
BRANCH  13  14
HETATM   14  O4  UNL     1      21.873  -1.432  53.646  1.00  0.00    -0.338 OA
BRANCH  14  15
HETATM   15  C11 UNL     1      21.736  -0.850  54.890  1.00  0.00     0.436 C 
BRANCH  15  16
HETATM   16  N1  UNL     1      20.733   0.189  54.914  1.00  0.00     0.101 N 
HETATM   17  H14 UNL     1      19.793  -0.221  55.070  1.00  0.00     0.315 HD
HETATM   18  H15 UNL     1      20.757   0.757  54.040  1.00  0.00     0.315 HD
ENDBRANCH  15  16
ENDBRANCH  14  15
ENDBRANCH  13  14
ENDBRANCH  12  13
ENDBRANCH   6  12
BRANCH   1  19
HETATM   19  O2  UNL     1      25.990  -0.169  53.308  1.00  0.00    -0.346 OA
BRANCH  19  20
HETATM   20  C3  UNL     1      26.478  -0.227  54.594  1.00  0.00     0.201 C 
BRANCH  20  21
HETATM   21  C2  UNL     1      27.875   0.328  54.678  1.00  0.00     0.193 C 
BRANCH  21  22
HETATM   22  O1  UNL     1      28.870  -0.634  54.693  1.00  0.00    -0.394 OA
HETATM   23  C1  UNL     1      29.453  -0.775  53.460  1.00  0.00     0.201 C 
ENDBRANCH  21  22
ENDBRANCH  20  21
ENDBRANCH  19  20
ENDBRANCH   1  19
BRANCH   8  24
HETATM   24  C13 UNL     1      24.359   5.747  48.625  1.00  0.00     0.046 A 
HETATM   25  C14 UNL     1      23.183   5.588  47.946  1.00  0.00     0.031 A 
HETATM   26  C15 UNL     1      22.775   6.428  46.918  1.00  0.00     0.003 A 
HETATM   27  C16 UNL     1      23.595   7.490  46.550  1.00  0.00     0.007 A 
HETATM   28  C17 UNL     1      24.791   7.666  47.229  1.00  0.00    -0.060 A 
HETATM   29  C18 UNL     1      25.695   8.778  46.877  1.00  0.00     0.048 C 
HETATM   30  C19 UNL     1      25.156   6.807  48.244  1.00  0.00     0.037 A 
ENDBRANCH   8  24
TORSDOF 10
ENDMDL
MODEL 6
REMARK VINA RESULT:      -6.8      3.892      6.769
REMARK  10 active torsions:
REMARK  status: ('A' for Active; 'I' for Inactive)
REMARK    1  A    between atoms: O1_2  and  C2_3 
REMARK    2  A    between atoms: C2_3  and  C3_4 
REMARK    3  A    between atoms: C3_4  and  O2_5 
REMARK    4  A    between atoms: O2_5  and  C4_6 
REMARK    5  A    between atoms: C9_11  and  O3_12 
REMARK    6  A    between atoms: O3_12  and  C10_13 
REMARK    7  A    between atoms: C10_13  and  O4_14 
REMARK    8  A    between atoms: O4_14  and  C11_15 
REMARK    9  A    between atoms: C11_15  and  N1_16 
REMARK   10  A    between atoms: N2_18  and  C13_19 
ROOT
HETATM    1  C4  UNL     1      20.969   2.679  52.480  1.00  0.00     0.102 A 
HETATM    2  C5  UNL     1      22.249   3.127  52.268  1.00  0.00     0.048 A 
HETATM    3  C6  UNL     1      23.402   2.430  52.445  1.00  0.00    -0.033 A 
HETATM    4  C7  UNL     1      23.301   1.129  52.886  1.00  0.00    -0.029 A 
HETATM    5  C8  UNL     1      22.058   0.585  53.131  1.00  0.00     0.049 A 
HETATM    6  C9  UNL     1      20.907   1.351  52.929  1.00  0.00     0.105 A 
HETATM    7  C12 UNL     1      24.527   0.319  53.098  1.00  0.00     0.182 C 
HETATM    8  N2  UNL     1      25.666   0.986  52.514  1.00  0.00    -0.308 N 
HETATM    9  N3  UNL     1      25.562   2.047  51.592  1.00  0.00    -0.233 NA
HETATM   10  C20 UNL     1      24.698   3.094  52.158  1.00  0.00     0.149 C 
HETATM   11  H25 UNL     1      25.094   1.642  50.733  1.00  0.00     0.147 HD
ENDROOT
BRANCH   6  12
HETATM   12  O3  UNL     1      19.729   0.677  53.215  1.00  0.00    -0.323 OA
BRANCH  12  13
HETATM   13  C10 UNL     1      19.605  -0.699  53.046  1.00  0.00     0.347 C 
BRANCH  13  14
HETATM   14  O4  UNL     1      18.534  -1.240  53.721  1.00  0.00    -0.338 OA
BRANCH  14  15
HETATM   15  C11 UNL     1      17.401  -1.417  52.953  1.00  0.00     0.436 C 
BRANCH  15  16
HETATM   16  N1  UNL     1      17.443  -0.672  51.716  1.00  0.00     0.101 N 
HETATM   17  H14 UNL     1      17.893   0.251  51.867  1.00  0.00     0.315 HD
HETATM   18  H15 UNL     1      16.491  -0.564  51.307  1.00  0.00     0.315 HD
ENDBRANCH  15  16
ENDBRANCH  14  15
ENDBRANCH  13  14
ENDBRANCH  12  13
ENDBRANCH   6  12
BRANCH   1  19
HETATM   19  O2  UNL     1      19.732   3.201  52.363  1.00  0.00    -0.346 OA
BRANCH  19  20
HETATM   20  C3  UNL     1      19.094   3.886  51.353  1.00  0.00     0.201 C 
BRANCH  20  21
HETATM   21  C2  UNL     1      17.688   3.387  51.153  1.00  0.00     0.193 C 
BRANCH  21  22
HETATM   22  O1  UNL     1      17.607   2.088  50.682  1.00  0.00    -0.394 OA
HETATM   23  C1  UNL     1      17.672   2.044  49.313  1.00  0.00     0.201 C 
ENDBRANCH  21  22
ENDBRANCH  20  21
ENDBRANCH  19  20
ENDBRANCH   1  19
BRANCH   8  24
HETATM   24  C13 UNL     1      26.963   0.549  52.889  1.00  0.00     0.046 A 
HETATM   25  C14 UNL     1      27.920   1.434  53.303  1.00  0.00     0.031 A 
HETATM   26  C15 UNL     1      29.202   1.053  53.679  1.00  0.00     0.003 A 
HETATM   27  C16 UNL     1      29.542  -0.296  53.638  1.00  0.00     0.007 A 
HETATM   28  C17 UNL     1      28.584  -1.207  53.220  1.00  0.00    -0.060 A 
HETATM   29  C18 UNL     1      28.895  -2.648  53.159  1.00  0.00     0.048 C 
HETATM   30  C19 UNL     1      27.322  -0.782  52.856  1.00  0.00     0.037 A 
ENDBRANCH   8  24
TORSDOF 10
ENDMDL
MODEL 7
REMARK VINA RESULT:      -6.8      1.294      1.769
REMARK  10 active torsions:
REMARK  status: ('A' for Active; 'I' for Inactive)
REMARK    1  A    between atoms: O1_2  and  C2_3 
REMARK    2  A    between atoms: C2_3  and  C3_4 
REMARK    3  A    between atoms: C3_4  and  O2_5 
REMARK    4  A    between atoms: O2_5  and  C4_6 
REMARK    5  A    between atoms: C9_11  and  O3_12 
REMARK    6  A    between atoms: O3_12  and  C10_13 
REMARK    7  A    between atoms: C10_13  and  O4_14 
REMARK    8  A    between atoms: O4_14  and  C11_15 
REMARK    9  A    between atoms: C11_15  and  N1_16 
REMARK   10  A    between atoms: N2_18  and  C13_19 
ROOT
HETATM    1  C4  UNL     1      23.522   1.347  52.248  1.00  0.00     0.102 A 
HETATM    2  C5  UNL     1      23.302   2.477  51.498  1.00  0.00     0.048 A 
HETATM    3  C6  UNL     1      24.226   3.200  50.814  1.00  0.00    -0.033 A 
HETATM    4  C7  UNL     1      25.535   2.775  50.864  1.00  0.00    -0.029 A 
HETATM    5  C8  UNL     1      25.860   1.650  51.593  1.00  0.00     0.049 A 
HETATM    6  C9  UNL     1      24.865   0.946  52.276  1.00  0.00     0.105 A 
HETATM    7  C12 UNL     1      26.589   3.526  50.136  1.00  0.00     0.182 C 
HETATM    8  N2  UNL     1      25.983   4.472  49.230  1.00  0.00    -0.308 N 
HETATM    9  N3  UNL     1      24.627   4.431  48.849  1.00  0.00    -0.233 NA
HETATM   10  C20 UNL     1      23.787   4.398  50.056  1.00  0.00     0.149 C 
HETATM   11  H25 UNL     1      24.501   3.524  48.318  1.00  0.00     0.147 HD
ENDROOT
BRANCH   6  12
HETATM   12  O3  UNL     1      25.336  -0.161  52.965  1.00  0.00    -0.323 OA
BRANCH  12  13
HETATM   13  C10 UNL     1      26.092  -0.042  54.129  1.00  0.00     0.347 C 
BRANCH  13  14
HETATM   14  O4  UNL     1      27.077  -0.996  54.242  1.00  0.00    -0.338 OA
BRANCH  14  15
HETATM   15  C11 UNL     1      27.859  -1.149  53.115  1.00  0.00     0.436 C 
BRANCH  15  16
HETATM   16  N1  UNL     1      29.114  -1.810  53.391  1.00  0.00     0.101 N 
HETATM   17  H14 UNL     1      29.599  -2.045  52.505  1.00  0.00     0.315 HD
HETATM   18  H15 UNL     1      28.973  -2.658  53.980  1.00  0.00     0.315 HD
ENDBRANCH  15  16
ENDBRANCH  14  15
ENDBRANCH  13  14
ENDBRANCH  12  13
ENDBRANCH   6  12
BRANCH   1  19
HETATM   19  O2  UNL     1      22.759   0.511  52.978  1.00  0.00    -0.346 OA
BRANCH  19  20
HETATM   20  C3  UNL     1      21.457   0.574  53.423  1.00  0.00     0.201 C 
BRANCH  20  21
HETATM   21  C2  UNL     1      21.095  -0.638  54.240  1.00  0.00     0.193 C 
BRANCH  21  22
HETATM   22  O1  UNL     1      21.726  -0.705  55.470  1.00  0.00    -0.394 OA
HETATM   23  C1  UNL     1      22.787  -1.573  55.445  1.00  0.00     0.201 C 
ENDBRANCH  21  22
ENDBRANCH  20  21
ENDBRANCH  19  20
ENDBRANCH   1  19
BRANCH   8  24
HETATM   24  C13 UNL     1      26.798   5.502  48.694  1.00  0.00     0.046 A 
HETATM   25  C14 UNL     1      26.276   6.720  48.355  1.00  0.00     0.031 A 
HETATM   26  C15 UNL     1      27.036   7.757  47.828  1.00  0.00     0.003 A 
HETATM   27  C16 UNL     1      28.398   7.560  47.629  1.00  0.00     0.007 A 
HETATM   28  C17 UNL     1      28.945   6.331  47.968  1.00  0.00    -0.060 A 
HETATM   29  C18 UNL     1      30.384   6.072  47.777  1.00  0.00     0.048 C 
HETATM   30  C19 UNL     1      28.151   5.329  48.489  1.00  0.00     0.037 A 
ENDBRANCH   8  24
TORSDOF 10
ENDMDL
MODEL 8
REMARK VINA RESULT:      -6.5      4.377      6.819
REMARK  10 active torsions:
REMARK  status: ('A' for Active; 'I' for Inactive)
REMARK    1  A    between atoms: O1_2  and  C2_3 
REMARK    2  A    between atoms: C2_3  and  C3_4 
REMARK    3  A    between atoms: C3_4  and  O2_5 
REMARK    4  A    between atoms: O2_5  and  C4_6 
REMARK    5  A    between atoms: C9_11  and  O3_12 
REMARK    6  A    between atoms: O3_12  and  C10_13 
REMARK    7  A    between atoms: C10_13  and  O4_14 
REMARK    8  A    between atoms: O4_14  and  C11_15 
REMARK    9  A    between atoms: C11_15  and  N1_16 
REMARK   10  A    between atoms: N2_18  and  C13_19 
ROOT
HETATM    1  C4  UNL     1      20.666   1.471  52.425  1.00  0.00     0.102 A 
HETATM    2  C5  UNL     1      21.500   0.450  52.810  1.00  0.00     0.048 A 
HETATM    3  C6  UNL     1      22.846   0.512  52.988  1.00  0.00    -0.033 A 
HETATM    4  C7  UNL     1      23.464   1.721  52.761  1.00  0.00    -0.029 A 
HETATM    5  C8  UNL     1      22.714   2.810  52.369  1.00  0.00     0.049 A 
HETATM    6  C9  UNL     1      21.332   2.685  52.204  1.00  0.00     0.105 A 
HETATM    7  C12 UNL     1      24.933   1.850  52.939  1.00  0.00     0.182 C 
HETATM    8  N2  UNL     1      25.451   0.687  53.617  1.00  0.00    -0.308 N 
HETATM    9  N3  UNL     1      24.643  -0.241  54.307  1.00  0.00    -0.233 NA
HETATM   10  C20 UNL     1      23.575  -0.709  53.411  1.00  0.00     0.149 C 
HETATM   11  H25 UNL     1      24.208   0.293  55.110  1.00  0.00     0.147 HD
ENDROOT
BRANCH   6  12
HETATM   12  O3  UNL     1      20.707   3.858  51.807  1.00  0.00    -0.323 OA
BRANCH  12  13
HETATM   13  C10 UNL     1      20.695   4.277  50.479  1.00  0.00     0.347 C 
BRANCH  13  14
HETATM   14  O4  UNL     1      21.625   5.253  50.204  1.00  0.00    -0.338 OA
BRANCH  14  15
HETATM   15  C11 UNL     1      21.686   6.267  51.139  1.00  0.00     0.436 C 
BRANCH  15  16
HETATM   16  N1  UNL     1      23.039   6.578  51.538  1.00  0.00     0.101 N 
HETATM   17  H14 UNL     1      23.460   5.774  52.039  1.00  0.00     0.315 HD
HETATM   18  H15 UNL     1      23.072   7.443  52.118  1.00  0.00     0.315 HD
ENDBRANCH  15  16
ENDBRANCH  14  15
ENDBRANCH  13  14
ENDBRANCH  12  13
ENDBRANCH   6  12
BRANCH   1  19
HETATM   19  O2  UNL     1      19.344   1.604  52.203  1.00  0.00    -0.346 OA
BRANCH  19  20
HETATM   20  C3  UNL     1      18.454   0.928  51.398  1.00  0.00     0.201 C 
BRANCH  20  21
HETATM   21  C2  UNL     1      17.204   1.734  51.163  1.00  0.00     0.193 C 
BRANCH  21  22
HETATM   22  O1  UNL     1      17.433   3.067  50.871  1.00  0.00    -0.394 OA
HETATM   23  C1  UNL     1      16.734   3.894  51.713  1.00  0.00     0.201 C 
ENDBRANCH  21  22
ENDBRANCH  20  21
ENDBRANCH  19  20
ENDBRANCH   1  19
BRANCH   8  24
HETATM   24  C13 UNL     1      26.852   0.462  53.588  1.00  0.00     0.046 A 
HETATM   25  C14 UNL     1      27.741   1.491  53.731  1.00  0.00     0.031 A 
HETATM   26  C15 UNL     1      29.119   1.318  53.709  1.00  0.00     0.003 A 
HETATM   27  C16 UNL     1      29.634   0.037  53.534  1.00  0.00     0.007 A 
HETATM   28  C17 UNL     1      28.747  -1.018  53.388  1.00  0.00    -0.060 A 
HETATM   29  C18 UNL     1      29.243  -2.395  53.201  1.00  0.00     0.048 C 
HETATM   30  C19 UNL     1      27.384  -0.799  53.417  1.00  0.00     0.037 A 
ENDBRANCH   8  24
TORSDOF 10
ENDMDL
MODEL 9
REMARK VINA RESULT:      -6.5      2.158      3.293
REMARK  10 active torsions:
REMARK  status: ('A' for Active; 'I' for Inactive)
REMARK    1  A    between atoms: O1_2  and  C2_3 
REMARK    2  A    between atoms: C2_3  and  C3_4 
REMARK    3  A    between atoms: C3_4  and  O2_5 
REMARK    4  A    between atoms: O2_5  and  C4_6 
REMARK    5  A    between atoms: C9_11  and  O3_12 
REMARK    6  A    between atoms: O3_12  and  C10_13 
REMARK    7  A    between atoms: C10_13  and  O4_14 
REMARK    8  A    between atoms: O4_14  and  C11_15 
REMARK    9  A    between atoms: C11_15  and  N1_16 
REMARK   10  A    between atoms: N2_18  and  C13_19 
ROOT
HETATM    1  C4  UNL     1      23.338   3.410  51.766  1.00  0.00     0.102 A 
HETATM    2  C5  UNL     1      23.668   4.635  51.239  1.00  0.00     0.048 A 
HETATM    3  C6  UNL     1      24.754   4.936  50.481  1.00  0.00    -0.033 A 
HETATM    4  C7  UNL     1      25.637   3.918  50.197  1.00  0.00    -0.029 A 
HETATM    5  C8  UNL     1      25.396   2.650  50.682  1.00  0.00     0.049 A 
HETATM    6  C9  UNL     1      24.260   2.400  51.456  1.00  0.00     0.105 A 
HETATM    7  C12 UNL     1      26.842   4.188  49.373  1.00  0.00     0.182 C 
HETATM    8  N2  UNL     1      26.734   5.486  48.751  1.00  0.00    -0.308 N 
HETATM    9  N3  UNL     1      25.529   6.211  48.661  1.00  0.00    -0.233 NA
HETATM   10  C20 UNL     1      24.935   6.329  50.001  1.00  0.00     0.149 C 
HETATM   11  H25 UNL     1      24.886   5.633  48.050  1.00  0.00     0.147 HD
ENDROOT
BRANCH   6  12
HETATM   12  O3  UNL     1      24.146   1.083  51.875  1.00  0.00    -0.323 OA
BRANCH  12  13
HETATM   13  C10 UNL     1      25.175   0.429  52.548  1.00  0.00     0.347 C 
BRANCH  13  14
HETATM   14  O4  UNL     1      25.435   0.955  53.793  1.00  0.00    -0.338 OA
BRANCH  14  15
HETATM   15  C11 UNL     1      26.770   1.189  54.050  1.00  0.00     0.436 C 
BRANCH  15  16
HETATM   16  N1  UNL     1      27.129   2.582  53.919  1.00  0.00     0.101 N 
HETATM   17  H14 UNL     1      26.587   3.023  53.153  1.00  0.00     0.315 HD
HETATM   18  H15 UNL     1      28.154   2.696  53.770  1.00  0.00     0.315 HD
ENDBRANCH  15  16
ENDBRANCH  14  15
ENDBRANCH  13  14
ENDBRANCH  12  13
ENDBRANCH   6  12
BRANCH   1  19
HETATM   19  O2  UNL     1      22.332   2.924  52.519  1.00  0.00    -0.346 OA
BRANCH  19  20
HETATM   20  C3  UNL     1      20.962   2.944  52.383  1.00  0.00     0.201 C 
BRANCH  20  21
HETATM   21  C2  UNL     1      20.397   1.552  52.290  1.00  0.00     0.193 C 
BRANCH  21  22
HETATM   22  O1  UNL     1      21.140   0.591  52.954  1.00  0.00    -0.394 OA
HETATM   23  C1  UNL     1      20.679   0.392  54.230  1.00  0.00     0.201 C 
ENDBRANCH  21  22
ENDBRANCH  20  21
ENDBRANCH  19  20
ENDBRANCH   1  19
BRANCH   8  24
HETATM   24  C13 UNL     1      27.907   6.065  48.201  1.00  0.00     0.046 A 
HETATM   25  C14 UNL     1      27.872   7.273  47.561  1.00  0.00     0.031 A 
HETATM   26  C15 UNL     1      28.993   7.877  47.007  1.00  0.00     0.003 A 
HETATM   27  C16 UNL     1      30.222   7.232  47.103  1.00  0.00     0.007 A 
HETATM   28  C17 UNL     1      30.276   6.006  47.750  1.00  0.00    -0.060 A 
HETATM   29  C18 UNL     1      31.555   5.282  47.878  1.00  0.00     0.048 C 
HETATM   30  C19 UNL     1      29.135   5.443  48.285  1.00  0.00     0.037 A 
ENDBRANCH   8  24
TORSDOF 10
ENDMDL
