MODEL 1
REMARK VINA RESULT:      -9.2      0.000      0.000
REMARK  1 active torsions:
REMARK  status: ('A' for Active; 'I' for Inactive)
REMARK    1  A    between atoms: C4_5  and  C5_6 
ROOT
HETATM    1  C5  UNL     1      26.595   0.697  52.307  1.00  0.00     0.097 A 
HETATM    2  N1  UNL     1      27.134   1.717  51.576  1.00  0.00    -0.239 NA
HETATM    3  C6  UNL     1      26.439   2.806  51.234  1.00  0.00     0.236 A 
HETATM    4  N2  UNL     1      25.158   2.993  51.578  1.00  0.00    -0.215 NA
HETATM    5  C7  UNL     1      24.526   2.029  52.314  1.00  0.00     0.200 A 
HETATM    6  C8  UNL     1      25.280   0.908  52.655  1.00  0.00     0.112 A 
HETATM    7  N3  UNL     1      24.817  -0.145  53.503  1.00  0.00    -0.380 N 
HETATM    8  C9  UNL     1      23.538  -0.817  53.517  1.00  0.00     0.161 C 
HETATM    9  C10 UNL     1      22.409   0.040  53.212  1.00  0.00    -0.005 A 
HETATM   10  C11 UNL     1      21.272  -0.761  53.375  1.00  0.00     0.030 A 
HETATM   11  C12 UNL     1      19.994  -0.234  53.157  1.00  0.00     0.011 A 
HETATM   12 BR1  UNL     1      18.421  -1.299  53.371  1.00  0.00    -0.051 Br
HETATM   13  C13 UNL     1      19.819   1.082  52.777  1.00  0.00     0.022 A 
HETATM   14  C14 UNL     1      20.941   1.897  52.608  1.00  0.00     0.039 A 
HETATM   15  C15 UNL     1      22.193   1.364  52.828  1.00  0.00     0.086 A 
HETATM   16  O1  UNL     1      23.195   2.333  52.609  1.00  0.00    -0.289 OA
HETATM   17  H4  UNL     1      25.632  -0.346  54.185  1.00  0.00     0.160 HD
ENDROOT
BRANCH   1  18
HETATM   18  C4  UNL     1      27.385  -0.474  52.639  1.00  0.00    -0.002 A 
HETATM   19  C3  UNL     1      27.366  -1.766  52.563  1.00  0.00     0.014 A 
HETATM   20  C2  UNL     1      28.492  -2.484  53.092  1.00  0.00     0.040 A 
HETATM   21  C1  UNL     1      29.310  -1.561  53.552  1.00  0.00     0.116 A 
HETATM   22  F1  UNL     1      30.505  -1.675  54.147  1.00  0.00    -0.209 F 
HETATM   23  C16 UNL     1      28.712  -0.258  53.327  1.00  0.00     0.179 A 
HETATM   24 CL1  UNL     1      28.462   0.511  54.912  1.00  0.00    -0.112 Cl
ENDBRANCH   1  18
TORSDOF 1
ENDMDL
MODEL 2
REMARK VINA RESULT:      -8.7      2.317      3.468
REMARK  1 active torsions:
REMARK  status: ('A' for Active; 'I' for Inactive)
REMARK    1  A    between atoms: C4_5  and  C5_6 
ROOT
HETATM    1  C5  UNL     1      25.541  -0.071  54.343  1.00  0.00     0.097 A 
HETATM    2  N1  UNL     1      25.407  -0.737  55.527  1.00  0.00    -0.239 NA
HETATM    3  C6  UNL     1      24.279  -1.361  55.881  1.00  0.00     0.236 A 
HETATM    4  N2  UNL     1      23.186  -1.390  55.107  1.00  0.00    -0.215 NA
HETATM    5  C7  UNL     1      23.219  -0.754  53.897  1.00  0.00     0.200 A 
HETATM    6  C8  UNL     1      24.410  -0.115  53.558  1.00  0.00     0.112 A 
HETATM    7  N3  UNL     1      24.658   0.509  52.297  1.00  0.00    -0.380 N 
HETATM    8  C9  UNL     1      23.801   1.369  51.514  1.00  0.00     0.161 C 
HETATM    9  C10 UNL     1      22.393   1.025  51.573  1.00  0.00    -0.005 A 
HETATM   10  C11 UNL     1      21.754   1.896  50.683  1.00  0.00     0.030 A 
HETATM   11  C12 UNL     1      20.368   1.831  50.497  1.00  0.00     0.011 A 
HETATM   12 BR1  UNL     1      19.463   3.005  49.289  1.00  0.00    -0.051 Br
HETATM   13  C13 UNL     1      19.598   0.912  51.180  1.00  0.00     0.022 A 
HETATM   14  C14 UNL     1      20.217   0.034  52.073  1.00  0.00     0.039 A 
HETATM   15  C15 UNL     1      21.583   0.110  52.246  1.00  0.00     0.086 A 
HETATM   16  O1  UNL     1      22.023  -0.850  53.181  1.00  0.00    -0.289 OA
HETATM   17  H4  UNL     1      25.648   0.186  52.005  1.00  0.00     0.160 HD
ENDROOT
BRANCH   1  18
HETATM   18  C4  UNL     1      26.780   0.607  54.010  1.00  0.00    -0.002 A 
HETATM   19  C3  UNL     1      27.238   1.759  53.638  1.00  0.00     0.014 A 
HETATM   20  C2  UNL     1      28.654   1.880  53.432  1.00  0.00     0.040 A 
HETATM   21  C1  UNL     1      29.150   0.690  53.699  1.00  0.00     0.116 A 
HETATM   22  F1  UNL     1      30.414   0.246  53.668  1.00  0.00    -0.209 F 
HETATM   23  C16 UNL     1      28.059  -0.194  54.066  1.00  0.00     0.179 A 
HETATM   24 CL1  UNL     1      28.005  -1.519  52.880  1.00  0.00    -0.112 Cl
ENDBRANCH   1  18
TORSDOF 1
ENDMDL
MODEL 3
REMARK VINA RESULT:      -8.5      4.858      7.163
REMARK  1 active torsions:
REMARK  status: ('A' for Active; 'I' for Inactive)
REMARK    1  A    between atoms: C4_5  and  C5_6 
ROOT
HETATM    1  C5  UNL     1      22.979   3.005  51.801  1.00  0.00     0.097 A 
HETATM    2  N1  UNL     1      21.891   3.695  52.253  1.00  0.00    -0.239 NA
HETATM    3  C6  UNL     1      21.556   4.901  51.784  1.00  0.00     0.236 A 
HETATM    4  N2  UNL     1      22.254   5.535  50.833  1.00  0.00    -0.215 NA
HETATM    5  C7  UNL     1      23.362   4.926  50.313  1.00  0.00     0.200 A 
HETATM    6  C8  UNL     1      23.682   3.669  50.822  1.00  0.00     0.112 A 
HETATM    7  N3  UNL     1      24.740   2.845  50.326  1.00  0.00    -0.380 N 
HETATM    8  C9  UNL     1      26.091   3.206  49.963  1.00  0.00     0.161 C 
HETATM    9  C10 UNL     1      26.216   4.513  49.347  1.00  0.00    -0.005 A 
HETATM   10  C11 UNL     1      27.563   4.631  48.982  1.00  0.00     0.030 A 
HETATM   11  C12 UNL     1      28.029   5.790  48.352  1.00  0.00     0.011 A 
HETATM   12 BR1  UNL     1      29.861   5.984  47.839  1.00  0.00    -0.051 Br
HETATM   13  C13 UNL     1      27.181   6.843  48.074  1.00  0.00     0.022 A 
HETATM   14  C14 UNL     1      25.834   6.745  48.431  1.00  0.00     0.039 A 
HETATM   15  C15 UNL     1      25.389   5.597  49.051  1.00  0.00     0.086 A 
HETATM   16  O1  UNL     1      24.009   5.683  49.332  1.00  0.00    -0.289 OA
HETATM   17  H4  UNL     1      24.318   1.853  50.245  1.00  0.00     0.160 HD
ENDROOT
BRANCH   1  18
HETATM   18  C4  UNL     1      23.313   1.704  52.354  1.00  0.00    -0.002 A 
HETATM   19  C3  UNL     1      24.319   1.010  52.777  1.00  0.00     0.014 A 
HETATM   20  C2  UNL     1      24.062  -0.324  53.244  1.00  0.00     0.040 A 
HETATM   21  C1  UNL     1      22.765  -0.499  53.106  1.00  0.00     0.116 A 
HETATM   22  F1  UNL     1      21.994  -1.558  53.388  1.00  0.00    -0.209 F 
HETATM   23  C16 UNL     1      22.192   0.712  52.546  1.00  0.00     0.179 A 
HETATM   24 CL1  UNL     1      21.464   0.297  50.976  1.00  0.00    -0.112 Cl
ENDBRANCH   1  18
TORSDOF 1
ENDMDL
MODEL 4
REMARK VINA RESULT:      -8.4      3.158      4.356
REMARK  1 active torsions:
REMARK  status: ('A' for Active; 'I' for Inactive)
REMARK    1  A    between atoms: C4_5  and  C5_6 
ROOT
HETATM    1  C5  UNL     1      24.335  -0.098  53.314  1.00  0.00     0.097 A 
HETATM    2  N1  UNL     1      23.480  -0.792  54.121  1.00  0.00    -0.239 NA
HETATM    3  C6  UNL     1      22.192  -0.464  54.259  1.00  0.00     0.236 A 
HETATM    4  N2  UNL     1      21.628   0.570  53.620  1.00  0.00    -0.215 NA
HETATM    5  C7  UNL     1      22.401   1.329  52.786  1.00  0.00     0.200 A 
HETATM    6  C8  UNL     1      23.739   0.958  52.663  1.00  0.00     0.112 A 
HETATM    7  N3  UNL     1      24.664   1.570  51.762  1.00  0.00    -0.380 N 
HETATM    8  C9  UNL     1      24.871   2.970  51.469  1.00  0.00     0.161 C 
HETATM    9  C10 UNL     1      23.660   3.768  51.476  1.00  0.00    -0.005 A 
HETATM   10  C11 UNL     1      24.051   5.051  51.076  1.00  0.00     0.030 A 
HETATM   11  C12 UNL     1      23.110   6.082  50.975  1.00  0.00     0.011 A 
HETATM   12 BR1  UNL     1      23.609   7.845  50.431  1.00  0.00    -0.051 Br
HETATM   13  C13 UNL     1      21.778   5.864  51.265  1.00  0.00     0.022 A 
HETATM   14  C14 UNL     1      21.368   4.590  51.667  1.00  0.00     0.039 A 
HETATM   15  C15 UNL     1      22.306   3.585  51.761  1.00  0.00     0.086 A 
HETATM   16  O1  UNL     1      21.707   2.378  52.179  1.00  0.00    -0.289 OA
HETATM   17  H4  UNL     1      25.196   0.752  51.295  1.00  0.00     0.160 HD
ENDROOT
BRANCH   1  18
HETATM   18  C4  UNL     1      25.731  -0.482  53.210  1.00  0.00    -0.002 A 
HETATM   19  C3  UNL     1      26.512  -1.309  52.592  1.00  0.00     0.014 A 
HETATM   20  C2  UNL     1      27.915  -1.257  52.897  1.00  0.00     0.040 A 
HETATM   21  C1  UNL     1      28.043  -0.306  53.797  1.00  0.00     0.116 A 
HETATM   22  F1  UNL     1      29.131   0.160  54.424  1.00  0.00    -0.209 F 
HETATM   23  C16 UNL     1      26.730   0.247  54.076  1.00  0.00     0.179 A 
HETATM   24 CL1  UNL     1      26.371  -0.034  55.796  1.00  0.00    -0.112 Cl
ENDBRANCH   1  18
TORSDOF 1
ENDMDL
MODEL 5
REMARK VINA RESULT:      -8.2      3.616      5.281
REMARK  1 active torsions:
REMARK  status: ('A' for Active; 'I' for Inactive)
REMARK    1  A    between atoms: C4_5  and  C5_6 
ROOT
HETATM    1  C5  UNL     1      24.965   0.737  52.464  1.00  0.00     0.097 A 
HETATM    2  N1  UNL     1      23.843   0.519  53.212  1.00  0.00    -0.239 NA
HETATM    3  C6  UNL     1      22.704   1.188  53.016  1.00  0.00     0.236 A 
HETATM    4  N2  UNL     1      22.561   2.127  52.071  1.00  0.00    -0.215 NA
HETATM    5  C7  UNL     1      23.626   2.418  51.265  1.00  0.00     0.200 A 
HETATM    6  C8  UNL     1      24.799   1.701  51.496  1.00  0.00     0.112 A 
HETATM    7  N3  UNL     1      25.974   1.799  50.688  1.00  0.00    -0.380 N 
HETATM    8  C9  UNL     1      26.622   2.973  50.150  1.00  0.00     0.161 C 
HETATM    9  C10 UNL     1      25.711   4.025  49.743  1.00  0.00    -0.005 A 
HETATM   10  C11 UNL     1      26.514   5.016  49.164  1.00  0.00     0.030 A 
HETATM   11  C12 UNL     1      25.941   6.188  48.657  1.00  0.00     0.011 A 
HETATM   12 BR1  UNL     1      27.006   7.560  47.859  1.00  0.00    -0.051 Br
HETATM   13  C13 UNL     1      24.578   6.400  48.714  1.00  0.00     0.022 A 
HETATM   14  C14 UNL     1      23.760   5.424  49.289  1.00  0.00     0.039 A 
HETATM   15  C15 UNL     1      24.339   4.274  49.783  1.00  0.00     0.086 A 
HETATM   16  O1  UNL     1      23.360   3.412  50.321  1.00  0.00    -0.289 OA
HETATM   17  H4  UNL     1      26.297   0.780  50.524  1.00  0.00     0.160 HD
ENDROOT
BRANCH   1  18
HETATM   18  C4  UNL     1      26.185  -0.003  52.727  1.00  0.00    -0.002 A 
HETATM   19  C3  UNL     1      26.838  -1.053  52.343  1.00  0.00     0.014 A 
HETATM   20  C2  UNL     1      28.085  -1.341  52.995  1.00  0.00     0.040 A 
HETATM   21  C1  UNL     1      28.244  -0.382  53.883  1.00  0.00     0.116 A 
HETATM   22  F1  UNL     1      29.233  -0.163  54.761  1.00  0.00    -0.209 F 
HETATM   23  C16 UNL     1      27.104   0.513  53.808  1.00  0.00     0.179 A 
HETATM   24 CL1  UNL     1      26.277   0.480  55.383  1.00  0.00    -0.112 Cl
ENDBRANCH   1  18
TORSDOF 1
ENDMDL
MODEL 6
REMARK VINA RESULT:      -8.1      1.769      2.055
REMARK  1 active torsions:
REMARK  status: ('A' for Active; 'I' for Inactive)
REMARK    1  A    between atoms: C4_5  and  C5_6 
ROOT
HETATM    1  C5  UNL     1      26.014   1.757  51.452  1.00  0.00     0.097 A 
HETATM    2  N1  UNL     1      26.741   2.656  50.725  1.00  0.00    -0.239 NA
HETATM    3  C6  UNL     1      26.181   3.685  50.083  1.00  0.00     0.236 A 
HETATM    4  N2  UNL     1      24.863   3.926  50.096  1.00  0.00    -0.215 NA
HETATM    5  C7  UNL     1      24.047   3.084  50.799  1.00  0.00     0.200 A 
HETATM    6  C8  UNL     1      24.663   2.022  51.458  1.00  0.00     0.112 A 
HETATM    7  N3  UNL     1      23.984   1.107  52.320  1.00  0.00    -0.380 N 
HETATM    8  C9  UNL     1      22.709   0.449  52.139  1.00  0.00     0.161 C 
HETATM    9  C10 UNL     1      21.710   1.257  51.467  1.00  0.00    -0.005 A 
HETATM   10  C11 UNL     1      20.537   0.493  51.480  1.00  0.00     0.030 A 
HETATM   11  C12 UNL     1      19.361   0.987  50.904  1.00  0.00     0.011 A 
HETATM   12 BR1  UNL     1      17.741  -0.029  50.905  1.00  0.00    -0.051 Br
HETATM   13  C13 UNL     1      19.324   2.233  50.311  1.00  0.00     0.022 A 
HETATM   14  C14 UNL     1      20.485   3.010  50.288  1.00  0.00     0.039 A 
HETATM   15  C15 UNL     1      21.636   2.510  50.859  1.00  0.00     0.086 A 
HETATM   16  O1  UNL     1      22.696   3.433  50.738  1.00  0.00    -0.289 OA
HETATM   17  H4  UNL     1      24.617   1.005  53.191  1.00  0.00     0.160 HD
ENDROOT
BRANCH   1  18
HETATM   18  C4  UNL     1      26.666   0.644  52.118  1.00  0.00    -0.002 A 
HETATM   19  C3  UNL     1      26.797  -0.642  52.053  1.00  0.00     0.014 A 
HETATM   20  C2  UNL     1      27.616  -1.282  53.044  1.00  0.00     0.040 A 
HETATM   21  C1  UNL     1      28.050  -0.311  53.819  1.00  0.00     0.116 A 
HETATM   22  F1  UNL     1      28.847  -0.345  54.895  1.00  0.00    -0.209 F 
HETATM   23  C16 UNL     1      27.508   0.946  53.334  1.00  0.00     0.179 A 
HETATM   24 CL1  UNL     1      26.497   1.639  54.624  1.00  0.00    -0.112 Cl
ENDBRANCH   1  18
TORSDOF 1
ENDMDL
MODEL 7
REMARK VINA RESULT:      -7.8      8.205     10.597
REMARK  1 active torsions:
REMARK  status: ('A' for Active; 'I' for Inactive)
REMARK    1  A    between atoms: C4_5  and  C5_6 
ROOT
HETATM    1  C5  UNL     1      31.326   7.985  48.450  1.00  0.00     0.097 A 
HETATM    2  N1  UNL     1      32.438   7.313  48.870  1.00  0.00    -0.239 NA
HETATM    3  C6  UNL     1      32.433   6.003  49.132  1.00  0.00     0.236 A 
HETATM    4  N2  UNL     1      31.342   5.236  49.005  1.00  0.00    -0.215 NA
HETATM    5  C7  UNL     1      30.176   5.814  48.587  1.00  0.00     0.200 A 
HETATM    6  C8  UNL     1      30.216   7.182  48.321  1.00  0.00     0.112 A 
HETATM    7  N3  UNL     1      29.125   7.928  47.778  1.00  0.00    -0.380 N 
HETATM    8  C9  UNL     1      27.722   7.886  48.125  1.00  0.00     0.161 C 
HETATM    9  C10 UNL     1      27.232   6.567  48.473  1.00  0.00    -0.005 A 
HETATM   10  C11 UNL     1      25.854   6.717  48.673  1.00  0.00     0.030 A 
HETATM   11  C12 UNL     1      25.063   5.618  49.026  1.00  0.00     0.011 A 
HETATM   12 BR1  UNL     1      23.179   5.787  49.305  1.00  0.00    -0.051 Br
HETATM   13  C13 UNL     1      25.615   4.363  49.187  1.00  0.00     0.022 A 
HETATM   14  C14 UNL     1      26.988   4.193  48.993  1.00  0.00     0.039 A 
HETATM   15  C15 UNL     1      27.754   5.285  48.645  1.00  0.00     0.086 A 
HETATM   16  O1  UNL     1      29.108   4.918  48.494  1.00  0.00    -0.289 OA
HETATM   17  H4  UNL     1      29.556   8.549  47.005  1.00  0.00     0.160 HD
ENDROOT
BRANCH   1  18
HETATM   18  C4  UNL     1      31.376   9.413  48.195  1.00  0.00    -0.002 A 
HETATM   19  C3  UNL     1      30.909  10.539  48.629  1.00  0.00     0.014 A 
HETATM   20  C2  UNL     1      31.313  11.738  47.950  1.00  0.00     0.040 A 
HETATM   21  C1  UNL     1      32.117  11.340  46.987  1.00  0.00     0.116 A 
HETATM   22  F1  UNL     1      32.776  12.044  46.056  1.00  0.00    -0.209 F 
HETATM   23  C16 UNL     1      32.224   9.894  47.041  1.00  0.00     0.179 A 
HETATM   24 CL1  UNL     1      31.600   9.241  45.508  1.00  0.00    -0.112 Cl
ENDBRANCH   1  18
TORSDOF 1
ENDMDL
MODEL 8
REMARK VINA RESULT:      -7.8      4.541      6.704
REMARK  1 active torsions:
REMARK  status: ('A' for Active; 'I' for Inactive)
REMARK    1  A    between atoms: C4_5  and  C5_6 
ROOT
HETATM    1  C5  UNL     1      24.800   2.818  51.893  1.00  0.00     0.097 A 
HETATM    2  N1  UNL     1      23.788   3.197  52.727  1.00  0.00    -0.239 NA
HETATM    3  C6  UNL     1      23.111   4.338  52.567  1.00  0.00     0.236 A 
HETATM    4  N2  UNL     1      23.363   5.206  51.578  1.00  0.00    -0.215 NA
HETATM    5  C7  UNL     1      24.357   4.916  50.686  1.00  0.00     0.200 A 
HETATM    6  C8  UNL     1      25.042   3.718  50.880  1.00  0.00     0.112 A 
HETATM    7  N3  UNL     1      26.037   3.206  49.990  1.00  0.00    -0.380 N 
HETATM    8  C9  UNL     1      27.127   3.895  49.337  1.00  0.00     0.161 C 
HETATM    9  C10 UNL     1      26.817   5.252  48.929  1.00  0.00    -0.005 A 
HETATM   10  C11 UNL     1      27.946   5.705  48.237  1.00  0.00     0.030 A 
HETATM   11  C12 UNL     1      27.980   6.996  47.699  1.00  0.00     0.011 A 
HETATM   12 BR1  UNL     1      29.506   7.647  46.748  1.00  0.00    -0.051 Br
HETATM   13  C13 UNL     1      26.908   7.855  47.835  1.00  0.00     0.022 A 
HETATM   14  C14 UNL     1      25.771   7.422  48.523  1.00  0.00     0.039 A 
HETATM   15  C15 UNL     1      25.753   6.147  49.047  1.00  0.00     0.086 A 
HETATM   16  O1  UNL     1      24.530   5.893  49.702  1.00  0.00    -0.289 OA
HETATM   17  H4  UNL     1      25.802   2.158  49.868  1.00  0.00     0.160 HD
ENDROOT
BRANCH   1  18
HETATM   18  C4  UNL     1      25.518   1.576  52.117  1.00  0.00    -0.002 A 
HETATM   19  C3  UNL     1      25.349   0.293  52.127  1.00  0.00     0.014 A 
HETATM   20  C2  UNL     1      26.483  -0.529  52.442  1.00  0.00     0.040 A 
HETATM   21  C1  UNL     1      27.475   0.311  52.655  1.00  0.00     0.116 A 
HETATM   22  F1  UNL     1      28.754   0.083  52.982  1.00  0.00    -0.209 F 
HETATM   23  C16 UNL     1      26.980   1.665  52.485  1.00  0.00     0.179 A 
HETATM   24 CL1  UNL     1      27.171   2.516  54.036  1.00  0.00    -0.112 Cl
ENDBRANCH   1  18
TORSDOF 1
ENDMDL
MODEL 9
REMARK VINA RESULT:      -7.7      2.006      2.828
REMARK  1 active torsions:
REMARK  status: ('A' for Active; 'I' for Inactive)
REMARK    1  A    between atoms: C4_5  and  C5_6 
ROOT
HETATM    1  C5  UNL     1      24.096   1.673  52.622  1.00  0.00     0.097 A 
HETATM    2  N1  UNL     1      24.322   2.611  51.656  1.00  0.00    -0.239 NA
HETATM    3  C6  UNL     1      23.336   3.167  50.946  1.00  0.00     0.236 A 
HETATM    4  N2  UNL     1      22.044   2.856  51.120  1.00  0.00    -0.215 NA
HETATM    5  C7  UNL     1      21.712   1.928  52.068  1.00  0.00     0.200 A 
HETATM    6  C8  UNL     1      22.764   1.369  52.791  1.00  0.00     0.112 A 
HETATM    7  N3  UNL     1      22.597   0.464  53.885  1.00  0.00    -0.380 N 
HETATM    8  C9  UNL     1      21.712  -0.671  54.010  1.00  0.00     0.161 C 
HETATM    9  C10 UNL     1      20.420  -0.495  53.374  1.00  0.00    -0.005 A 
HETATM   10  C11 UNL     1      19.684  -1.643  53.691  1.00  0.00     0.030 A 
HETATM   11  C12 UNL     1      18.373  -1.796  53.227  1.00  0.00     0.011 A 
HETATM   12 BR1  UNL     1      17.339  -3.351  53.641  1.00  0.00    -0.051 Br
HETATM   13  C13 UNL     1      17.771  -0.827  52.450  1.00  0.00     0.022 A 
HETATM   14  C14 UNL     1      18.489   0.326  52.123  1.00  0.00     0.039 A 
HETATM   15  C15 UNL     1      19.780   0.463  52.587  1.00  0.00     0.086 A 
HETATM   16  O1  UNL     1      20.339   1.685  52.157  1.00  0.00    -0.289 OA
HETATM   17  H4  UNL     1      23.273   0.813  54.653  1.00  0.00     0.160 HD
ENDROOT
BRANCH   1  18
HETATM   18  C4  UNL     1      25.202   1.084  53.355  1.00  0.00    -0.002 A 
HETATM   19  C3  UNL     1      25.851   1.189  54.470  1.00  0.00     0.014 A 
HETATM   20  C2  UNL     1      26.945   0.286  54.695  1.00  0.00     0.040 A 
HETATM   21  C1  UNL     1      27.002  -0.469  53.618  1.00  0.00     0.116 A 
HETATM   22  F1  UNL     1      27.832  -1.471  53.300  1.00  0.00    -0.209 F 
HETATM   23  C16 UNL     1      25.955  -0.050  52.703  1.00  0.00     0.179 A 
HETATM   24 CL1  UNL     1      26.732   0.512  51.204  1.00  0.00    -0.112 Cl
ENDBRANCH   1  18
TORSDOF 1
ENDMDL
