MODEL 1
REMARK VINA RESULT:      -8.2      0.000      0.000
REMARK  4 active torsions:
REMARK  status: ('A' for Active; 'I' for Inactive)
REMARK    1  A    between atoms: O1_2  and  C2_3 
REMARK    2  A    between atoms: C6_9  and  N3_10 
REMARK    3  A    between atoms: N3_10  and  C8_13 
REMARK    4  A    between atoms: C16_21  and  O3_22 
ROOT
HETATM    1  N3  UNL     1      27.222   1.195  52.658  1.00  0.00    -0.284 N 
HETATM    2  C7  UNL     1      27.901   2.078  53.558  1.00  0.00     0.483 C 
HETATM    3  O2  UNL     1      28.534   2.793  54.377  1.00  0.00    -0.391 OA
ENDROOT
BRANCH   1   4
HETATM    4  C6  UNL     1      26.298   1.843  51.796  1.00  0.00     0.149 A 
HETATM    5  N2  UNL     1      26.871   2.577  50.801  1.00  0.00    -0.223 NA
HETATM    6  C5  UNL     1      26.131   3.250  49.906  1.00  0.00     0.236 A 
HETATM    7  N1  UNL     1      24.782   3.226  49.959  1.00  0.00    -0.241 NA
HETATM    8  C4  UNL     1      24.166   2.525  50.913  1.00  0.00     0.075 A 
HETATM    9  C3  UNL     1      22.793   2.424  51.068  1.00  0.00     0.072 A 
HETATM   10  C14 UNL     1      24.920   1.831  51.835  1.00  0.00     0.042 A 
HETATM   11  C2  UNL     1      22.254   1.674  52.086  1.00  0.00     0.103 A 
HETATM   12  C16 UNL     1      23.011   0.981  53.006  1.00  0.00     0.102 A 
HETATM   13  C15 UNL     1      24.380   1.077  52.857  1.00  0.00     0.057 A 
BRANCH  11  14
HETATM   14  O1  UNL     1      20.873   1.635  52.159  1.00  0.00    -0.353 OA
HETATM   15  C1  UNL     1      20.042   2.750  52.149  1.00  0.00     0.210 C 
ENDBRANCH  11  14
BRANCH  12  16
HETATM   16  O3  UNL     1      22.337   0.268  53.975  1.00  0.00    -0.353 OA
HETATM   17  C17 UNL     1      22.138  -1.105  54.033  1.00  0.00     0.210 C 
ENDBRANCH  12  16
ENDBRANCH   1   4
BRANCH   1  18
HETATM   18  C8  UNL     1      27.530  -0.204  52.722  1.00  0.00     0.042 A 
HETATM   19  C9  UNL     1      28.822  -0.345  53.241  1.00  0.00     0.030 A 
HETATM   20  C10 UNL     1      29.378  -1.619  53.411  1.00  0.00     0.002 A 
HETATM   21  C11 UNL     1      28.630  -2.721  53.060  1.00  0.00     0.000 A 
HETATM   22  C12 UNL     1      27.358  -2.565  52.550  1.00  0.00     0.002 A 
HETATM   23  C13 UNL     1      26.805  -1.325  52.378  1.00  0.00     0.030 A 
ENDBRANCH   1  18
TORSDOF 4
ENDMDL
MODEL 2
REMARK VINA RESULT:      -7.9      2.428      4.142
REMARK  4 active torsions:
REMARK  status: ('A' for Active; 'I' for Inactive)
REMARK    1  A    between atoms: O1_2  and  C2_3 
REMARK    2  A    between atoms: C6_9  and  N3_10 
REMARK    3  A    between atoms: N3_10  and  C8_13 
REMARK    4  A    between atoms: C16_21  and  O3_22 
ROOT
HETATM    1  N3  UNL     1      26.175  -0.619  53.442  1.00  0.00    -0.284 N 
HETATM    2  C7  UNL     1      26.550  -1.773  52.680  1.00  0.00     0.483 C 
HETATM    3  O2  UNL     1      26.948  -2.753  51.999  1.00  0.00    -0.391 OA
ENDROOT
BRANCH   1   4
HETATM    4  C6  UNL     1      24.858  -0.677  53.970  1.00  0.00     0.149 A 
HETATM    5  N2  UNL     1      24.747  -1.363  55.143  1.00  0.00    -0.223 NA
HETATM    6  C5  UNL     1      23.567  -1.506  55.766  1.00  0.00     0.236 A 
HETATM    7  N1  UNL     1      22.438  -0.974  55.251  1.00  0.00    -0.241 NA
HETATM    8  C4  UNL     1      22.486  -0.293  54.105  1.00  0.00     0.075 A 
HETATM    9  C3  UNL     1      21.398   0.298  53.482  1.00  0.00     0.072 A 
HETATM   10  C14 UNL     1      23.695  -0.141  53.459  1.00  0.00     0.042 A 
HETATM   11  C2  UNL     1      21.552   0.981  52.300  1.00  0.00     0.103 A 
HETATM   12  C16 UNL     1      22.763   1.132  51.657  1.00  0.00     0.102 A 
HETATM   13  C15 UNL     1      23.850   0.545  52.273  1.00  0.00     0.057 A 
BRANCH  11  14
HETATM   14  O1  UNL     1      20.408   1.535  51.754  1.00  0.00    -0.353 OA
HETATM   15  C1  UNL     1      19.858   2.757  52.127  1.00  0.00     0.210 C 
ENDBRANCH  11  14
BRANCH  12  16
HETATM   16  O3  UNL     1      22.770   1.843  50.475  1.00  0.00    -0.353 OA
HETATM   17  C17 UNL     1      23.455   3.019  50.199  1.00  0.00     0.210 C 
ENDBRANCH  12  16
ENDBRANCH   1   4
BRANCH   1  18
HETATM   18  C8  UNL     1      27.132   0.439  53.582  1.00  0.00     0.042 A 
HETATM   19  C9  UNL     1      28.213  -0.044  54.328  1.00  0.00     0.030 A 
HETATM   20  C10 UNL     1      29.299   0.792  54.616  1.00  0.00     0.002 A 
HETATM   21  C11 UNL     1      29.279   2.089  54.152  1.00  0.00     0.000 A 
HETATM   22  C12 UNL     1      28.206   2.550  53.419  1.00  0.00     0.002 A 
HETATM   23  C13 UNL     1      27.139   1.742  53.132  1.00  0.00     0.030 A 
ENDBRANCH   1  18
TORSDOF 4
ENDMDL
MODEL 3
REMARK VINA RESULT:      -7.8      2.204      3.635
REMARK  4 active torsions:
REMARK  status: ('A' for Active; 'I' for Inactive)
REMARK    1  A    between atoms: O1_2  and  C2_3 
REMARK    2  A    between atoms: C6_9  and  N3_10 
REMARK    3  A    between atoms: N3_10  and  C8_13 
REMARK    4  A    between atoms: C16_21  and  O3_22 
ROOT
HETATM    1  N3  UNL     1      26.082   0.020  53.991  1.00  0.00    -0.284 N 
HETATM    2  C7  UNL     1      26.233   1.443  54.049  1.00  0.00     0.483 C 
HETATM    3  O2  UNL     1      26.438   2.683  54.081  1.00  0.00    -0.391 OA
ENDROOT
BRANCH   1   4
HETATM    4  C6  UNL     1      24.772  -0.437  54.297  1.00  0.00     0.149 A 
HETATM    5  N2  UNL     1      24.683  -1.178  55.437  1.00  0.00    -0.223 NA
HETATM    6  C5  UNL     1      23.513  -1.682  55.861  1.00  0.00     0.236 A 
HETATM    7  N1  UNL     1      22.373  -1.474  55.167  1.00  0.00    -0.241 NA
HETATM    8  C4  UNL     1      22.400  -0.757  54.042  1.00  0.00     0.075 A 
HETATM    9  C3  UNL     1      21.300  -0.476  53.248  1.00  0.00     0.072 A 
HETATM   10  C14 UNL     1      23.598  -0.235  53.601  1.00  0.00     0.042 A 
HETATM   11  C2  UNL     1      21.432   0.274  52.104  1.00  0.00     0.103 A 
HETATM   12  C16 UNL     1      22.632   0.795  51.668  1.00  0.00     0.102 A 
HETATM   13  C15 UNL     1      23.732   0.519  52.454  1.00  0.00     0.057 A 
BRANCH  11  14
HETATM   14  O1  UNL     1      20.277   0.501  51.378  1.00  0.00    -0.353 OA
HETATM   15  C1  UNL     1      18.995   0.153  51.790  1.00  0.00     0.210 C 
ENDBRANCH  11  14
BRANCH  12  16
HETATM   16  O3  UNL     1      22.618   1.531  50.501  1.00  0.00    -0.353 OA
HETATM   17  C17 UNL     1      22.614   2.913  50.371  1.00  0.00     0.210 C 
ENDBRANCH  12  16
ENDBRANCH   1   4
BRANCH   1  18
HETATM   18  C8  UNL     1      27.229  -0.769  53.649  1.00  0.00     0.042 A 
HETATM   19  C9  UNL     1      28.367  -0.124  54.146  1.00  0.00     0.030 A 
HETATM   20  C10 UNL     1      29.636  -0.684  53.951  1.00  0.00     0.002 A 
HETATM   21  C11 UNL     1      29.737  -1.873  53.265  1.00  0.00     0.000 A 
HETATM   22  C12 UNL     1      28.606  -2.496  52.781  1.00  0.00     0.002 A 
HETATM   23  C13 UNL     1      27.361  -1.958  52.965  1.00  0.00     0.030 A 
ENDBRANCH   1  18
TORSDOF 4
ENDMDL
MODEL 4
REMARK VINA RESULT:      -7.5      2.651      6.597
REMARK  4 active torsions:
REMARK  status: ('A' for Active; 'I' for Inactive)
REMARK    1  A    between atoms: O1_2  and  C2_3 
REMARK    2  A    between atoms: C6_9  and  N3_10 
REMARK    3  A    between atoms: N3_10  and  C8_13 
REMARK    4  A    between atoms: C16_21  and  O3_22 
ROOT
HETATM    1  N3  UNL     1      21.659   1.775  51.809  1.00  0.00    -0.284 N 
HETATM    2  C7  UNL     1      20.584   2.567  52.326  1.00  0.00     0.483 C 
HETATM    3  O2  UNL     1      19.637   3.299  52.713  1.00  0.00    -0.391 OA
ENDROOT
BRANCH   1   4
HETATM    4  C6  UNL     1      22.173   0.823  52.730  1.00  0.00     0.149 A 
HETATM    5  N2  UNL     1      21.223   0.163  53.450  1.00  0.00    -0.223 NA
HETATM    6  C5  UNL     1      21.550  -0.767  54.362  1.00  0.00     0.236 A 
HETATM    7  N1  UNL     1      22.840  -1.083  54.602  1.00  0.00    -0.241 NA
HETATM    8  C4  UNL     1      23.813  -0.468  53.927  1.00  0.00     0.075 A 
HETATM    9  C3  UNL     1      25.169  -0.708  54.085  1.00  0.00     0.072 A 
HETATM   10  C14 UNL     1      23.485   0.487  52.988  1.00  0.00     0.042 A 
HETATM   11  C2  UNL     1      26.095  -0.020  53.339  1.00  0.00     0.103 A 
HETATM   12  C16 UNL     1      25.763   0.934  52.401  1.00  0.00     0.102 A 
HETATM   13  C15 UNL     1      24.414   1.178  52.239  1.00  0.00     0.057 A 
BRANCH  11  14
HETATM   14  O1  UNL     1      27.424  -0.329  53.568  1.00  0.00    -0.353 OA
HETATM   15  C1  UNL     1      28.173   0.125  54.648  1.00  0.00     0.210 C 
ENDBRANCH  11  14
BRANCH  12  16
HETATM   16  O3  UNL     1      26.797   1.547  51.724  1.00  0.00    -0.353 OA
HETATM   17  C17 UNL     1      26.764   2.754  51.039  1.00  0.00     0.210 C 
ENDBRANCH  12  16
ENDBRANCH   1   4
BRANCH   1  18
HETATM   18  C8  UNL     1      22.095   2.020  50.465  1.00  0.00     0.042 A 
HETATM   19  C9  UNL     1      21.470   1.092  49.626  1.00  0.00     0.030 A 
HETATM   20  C10 UNL     1      21.721   1.107  48.248  1.00  0.00     0.002 A 
HETATM   21  C11 UNL     1      22.590   2.048  47.743  1.00  0.00     0.000 A 
HETATM   22  C12 UNL     1      23.198   2.956  48.583  1.00  0.00     0.002 A 
HETATM   23  C13 UNL     1      22.961   2.950  49.932  1.00  0.00     0.030 A 
ENDBRANCH   1  18
TORSDOF 4
ENDMDL
MODEL 5
REMARK VINA RESULT:      -7.5      2.168      3.452
REMARK  4 active torsions:
REMARK  status: ('A' for Active; 'I' for Inactive)
REMARK    1  A    between atoms: O1_2  and  C2_3 
REMARK    2  A    between atoms: C6_9  and  N3_10 
REMARK    3  A    between atoms: N3_10  and  C8_13 
REMARK    4  A    between atoms: C16_21  and  O3_22 
ROOT
HETATM    1  N3  UNL     1      26.434   0.571  53.292  1.00  0.00    -0.284 N 
HETATM    2  C7  UNL     1      26.978   1.808  53.767  1.00  0.00     0.483 C 
HETATM    3  O2  UNL     1      27.523   2.859  54.192  1.00  0.00    -0.391 OA
ENDROOT
BRANCH   1   4
HETATM    4  C6  UNL     1      25.049   0.630  52.978  1.00  0.00     0.149 A 
HETATM    5  N2  UNL     1      24.258  -0.157  53.760  1.00  0.00    -0.223 NA
HETATM    6  C5  UNL     1      22.928  -0.211  53.587  1.00  0.00     0.236 A 
HETATM    7  N1  UNL     1      22.321   0.516  52.625  1.00  0.00    -0.241 NA
HETATM    8  C4  UNL     1      23.046   1.304  51.828  1.00  0.00     0.075 A 
HETATM    9  C3  UNL     1      22.537   2.094  50.810  1.00  0.00     0.072 A 
HETATM   10  C14 UNL     1      24.412   1.365  52.001  1.00  0.00     0.042 A 
HETATM   11  C2  UNL     1      23.369   2.873  50.043  1.00  0.00     0.103 A 
HETATM   12  C16 UNL     1      24.735   2.932  50.219  1.00  0.00     0.102 A 
HETATM   13  C15 UNL     1      25.248   2.147  51.232  1.00  0.00     0.057 A 
BRANCH  11  14
HETATM   14  O1  UNL     1      22.768   3.627  49.051  1.00  0.00    -0.353 OA
HETATM   15  C1  UNL     1      22.305   3.126  47.839  1.00  0.00     0.210 C 
ENDBRANCH  11  14
BRANCH  12  16
HETATM   16  O3  UNL     1      25.449   3.759  49.376  1.00  0.00    -0.353 OA
HETATM   17  C17 UNL     1      26.820   3.977  49.365  1.00  0.00     0.210 C 
ENDBRANCH  12  16
ENDBRANCH   1   4
BRANCH   1  18
HETATM   18  C8  UNL     1      27.309  -0.560  53.193  1.00  0.00     0.042 A 
HETATM   19  C9  UNL     1      28.572  -0.178  53.661  1.00  0.00     0.030 A 
HETATM   20  C10 UNL     1      29.626  -1.100  53.675  1.00  0.00     0.002 A 
HETATM   21  C11 UNL     1      29.394  -2.379  53.221  1.00  0.00     0.000 A 
HETATM   22  C12 UNL     1      28.144  -2.739  52.763  1.00  0.00     0.002 A 
HETATM   23  C13 UNL     1      27.106  -1.846  52.744  1.00  0.00     0.030 A 
ENDBRANCH   1  18
TORSDOF 4
ENDMDL
MODEL 6
REMARK VINA RESULT:      -7.5      2.286      6.337
REMARK  4 active torsions:
REMARK  status: ('A' for Active; 'I' for Inactive)
REMARK    1  A    between atoms: O1_2  and  C2_3 
REMARK    2  A    between atoms: C6_9  and  N3_10 
REMARK    3  A    between atoms: N3_10  and  C8_13 
REMARK    4  A    between atoms: C16_21  and  O3_22 
ROOT
HETATM    1  N3  UNL     1      22.813   2.757  51.884  1.00  0.00    -0.284 N 
HETATM    2  C7  UNL     1      21.532   3.299  52.224  1.00  0.00     0.483 C 
HETATM    3  O2  UNL     1      20.424   3.836  52.482  1.00  0.00    -0.391 OA
ENDROOT
BRANCH   1   4
HETATM    4  C6  UNL     1      23.064   1.472  52.435  1.00  0.00     0.149 A 
HETATM    5  N2  UNL     1      22.050   0.577  52.266  1.00  0.00    -0.223 NA
HETATM    6  C5  UNL     1      22.135  -0.680  52.731  1.00  0.00     0.236 A 
HETATM    7  N1  UNL     1      23.234  -1.106  53.389  1.00  0.00    -0.241 NA
HETATM    8  C4  UNL     1      24.258  -0.273  53.584  1.00  0.00     0.075 A 
HETATM    9  C3  UNL     1      25.434  -0.595  54.242  1.00  0.00     0.072 A 
HETATM   10  C14 UNL     1      24.178   1.019  53.109  1.00  0.00     0.042 A 
HETATM   11  C2  UNL     1      26.433   0.337  54.391  1.00  0.00     0.103 A 
HETATM   12  C16 UNL     1      26.350   1.628  53.913  1.00  0.00     0.102 A 
HETATM   13  C15 UNL     1      25.180   1.955  53.258  1.00  0.00     0.057 A 
BRANCH  11  14
HETATM   14  O1  UNL     1      27.569  -0.078  55.062  1.00  0.00    -0.353 OA
HETATM   15  C1  UNL     1      28.718  -0.573  54.453  1.00  0.00     0.210 C 
ENDBRANCH  11  14
BRANCH  12  16
HETATM   16  O3  UNL     1      27.429   2.459  54.135  1.00  0.00    -0.353 OA
HETATM   17  C17 UNL     1      28.552   2.620  53.335  1.00  0.00     0.210 C 
ENDBRANCH  12  16
ENDBRANCH   1   4
BRANCH   1  18
HETATM   18  C8  UNL     1      23.683   3.543  51.059  1.00  0.00     0.042 A 
HETATM   19  C9  UNL     1      23.639   4.866  51.513  1.00  0.00     0.030 A 
HETATM   20  C10 UNL     1      24.402   5.855  50.878  1.00  0.00     0.002 A 
HETATM   21  C11 UNL     1      25.190   5.497  49.807  1.00  0.00     0.000 A 
HETATM   22  C12 UNL     1      25.222   4.189  49.372  1.00  0.00     0.002 A 
HETATM   23  C13 UNL     1      24.480   3.215  49.984  1.00  0.00     0.030 A 
ENDBRANCH   1  18
TORSDOF 4
ENDMDL
MODEL 7
REMARK VINA RESULT:      -7.4      2.855      5.862
REMARK  4 active torsions:
REMARK  status: ('A' for Active; 'I' for Inactive)
REMARK    1  A    between atoms: O1_2  and  C2_3 
REMARK    2  A    between atoms: C6_9  and  N3_10 
REMARK    3  A    between atoms: N3_10  and  C8_13 
REMARK    4  A    between atoms: C16_21  and  O3_22 
ROOT
HETATM    1  N3  UNL     1      24.562   4.799  50.300  1.00  0.00    -0.284 N 
HETATM    2  C7  UNL     1      23.810   5.917  50.783  1.00  0.00     0.483 C 
HETATM    3  O2  UNL     1      23.202   6.945  51.179  1.00  0.00    -0.391 OA
ENDROOT
BRANCH   1   4
HETATM    4  C6  UNL     1      23.978   3.537  50.591  1.00  0.00     0.149 A 
HETATM    5  N2  UNL     1      22.884   3.233  49.837  1.00  0.00    -0.223 NA
HETATM    6  C5  UNL     1      22.220   2.077  49.994  1.00  0.00     0.236 A 
HETATM    7  N1  UNL     1      22.612   1.167  50.911  1.00  0.00    -0.241 NA
HETATM    8  C4  UNL     1      23.676   1.412  51.679  1.00  0.00     0.075 A 
HETATM    9  C3  UNL     1      24.173   0.557  52.650  1.00  0.00     0.072 A 
HETATM   10  C14 UNL     1      24.364   2.597  51.523  1.00  0.00     0.042 A 
HETATM   11  C2  UNL     1      25.279   0.902  53.389  1.00  0.00     0.103 A 
HETATM   12  C16 UNL     1      25.964   2.087  53.230  1.00  0.00     0.102 A 
HETATM   13  C15 UNL     1      25.474   2.943  52.264  1.00  0.00     0.057 A 
BRANCH  11  14
HETATM   14  O1  UNL     1      25.699  -0.016  54.335  1.00  0.00    -0.353 OA
HETATM   15  C1  UNL     1      24.866  -0.897  55.017  1.00  0.00     0.210 C 
ENDBRANCH  11  14
BRANCH  12  16
HETATM   16  O3  UNL     1      27.058   2.303  54.042  1.00  0.00    -0.353 OA
HETATM   17  C17 UNL     1      28.397   2.312  53.673  1.00  0.00     0.210 C 
ENDBRANCH  12  16
ENDBRANCH   1   4
BRANCH   1  18
HETATM   18  C8  UNL     1      25.788   5.058  49.603  1.00  0.00     0.042 A 
HETATM   19  C9  UNL     1      25.830   6.420  49.285  1.00  0.00     0.030 A 
HETATM   20  C10 UNL     1      26.929   6.949  48.595  1.00  0.00     0.002 A 
HETATM   21  C11 UNL     1      27.958   6.105  48.242  1.00  0.00     0.000 A 
HETATM   22  C12 UNL     1      27.902   4.765  48.563  1.00  0.00     0.002 A 
HETATM   23  C13 UNL     1      26.832   4.237  49.236  1.00  0.00     0.030 A 
ENDBRANCH   1  18
TORSDOF 4
ENDMDL
MODEL 8
REMARK VINA RESULT:      -7.4      2.689      5.337
REMARK  4 active torsions:
REMARK  status: ('A' for Active; 'I' for Inactive)
REMARK    1  A    between atoms: O1_2  and  C2_3 
REMARK    2  A    between atoms: C6_9  and  N3_10 
REMARK    3  A    between atoms: N3_10  and  C8_13 
REMARK    4  A    between atoms: C16_21  and  O3_22 
ROOT
HETATM    1  N3  UNL     1      24.608   0.736  52.632  1.00  0.00    -0.284 N 
HETATM    2  C7  UNL     1      25.859   0.139  52.271  1.00  0.00     0.483 C 
HETATM    3  O2  UNL     1      26.972  -0.324  51.910  1.00  0.00    -0.391 OA
ENDROOT
BRANCH   1   4
HETATM    4  C6  UNL     1      23.830  -0.046  53.528  1.00  0.00     0.149 A 
HETATM    5  N2  UNL     1      24.534  -0.593  54.559  1.00  0.00    -0.223 NA
HETATM    6  C5  UNL     1      23.941  -1.359  55.489  1.00  0.00     0.236 A 
HETATM    7  N1  UNL     1      22.617  -1.618  55.436  1.00  0.00    -0.241 NA
HETATM    8  C4  UNL     1      21.878  -1.109  54.449  1.00  0.00     0.075 A 
HETATM    9  C3  UNL     1      20.515  -1.304  54.291  1.00  0.00     0.072 A 
HETATM   10  C14 UNL     1      22.480  -0.321  53.490  1.00  0.00     0.042 A 
HETATM   11  C2  UNL     1      19.842  -0.734  53.236  1.00  0.00     0.103 A 
HETATM   12  C16 UNL     1      20.448   0.054  52.281  1.00  0.00     0.102 A 
HETATM   13  C15 UNL     1      21.805   0.251  52.432  1.00  0.00     0.057 A 
BRANCH  11  14
HETATM   14  O1  UNL     1      18.484  -0.986  53.163  1.00  0.00    -0.353 OA
HETATM   15  C1  UNL     1      17.869  -2.167  53.565  1.00  0.00     0.210 C 
ENDBRANCH  11  14
BRANCH  12  16
HETATM   16  O3  UNL     1      19.649   0.561  51.276  1.00  0.00    -0.353 OA
HETATM   17  C17 UNL     1      20.056   1.117  50.071  1.00  0.00     0.210 C 
ENDBRANCH  12  16
ENDBRANCH   1   4
BRANCH   1  18
HETATM   18  C8  UNL     1      24.279   2.011  52.067  1.00  0.00     0.042 A 
HETATM   19  C9  UNL     1      24.156   2.934  53.112  1.00  0.00     0.030 A 
HETATM   20  C10 UNL     1      23.835   4.270  52.838  1.00  0.00     0.002 A 
HETATM   21  C11 UNL     1      23.646   4.651  51.528  1.00  0.00     0.000 A 
HETATM   22  C12 UNL     1      23.771   3.729  50.510  1.00  0.00     0.002 A 
HETATM   23  C13 UNL     1      24.083   2.421  50.766  1.00  0.00     0.030 A 
ENDBRANCH   1  18
TORSDOF 4
ENDMDL
MODEL 9
REMARK VINA RESULT:      -7.2      2.024      2.859
REMARK  4 active torsions:
REMARK  status: ('A' for Active; 'I' for Inactive)
REMARK    1  A    between atoms: O1_2  and  C2_3 
REMARK    2  A    between atoms: C6_9  and  N3_10 
REMARK    3  A    between atoms: N3_10  and  C8_13 
REMARK    4  A    between atoms: C16_21  and  O3_22 
ROOT
HETATM    1  N3  UNL     1      25.440   2.540  51.750  1.00  0.00    -0.284 N 
HETATM    2  C7  UNL     1      26.207   3.011  50.636  1.00  0.00     0.483 C 
HETATM    3  O2  UNL     1      26.939   3.383  49.682  1.00  0.00    -0.391 OA
ENDROOT
BRANCH   1   4
HETATM    4  C6  UNL     1      24.127   3.078  51.818  1.00  0.00     0.149 A 
HETATM    5  N2  UNL     1      24.046   4.410  51.540  1.00  0.00    -0.223 NA
HETATM    6  C5  UNL     1      22.874   5.065  51.564  1.00  0.00     0.236 A 
HETATM    7  N1  UNL     1      21.725   4.425  51.868  1.00  0.00    -0.241 NA
HETATM    8  C4  UNL     1      21.744   3.120  52.150  1.00  0.00     0.075 A 
HETATM    9  C3  UNL     1      20.633   2.358  52.474  1.00  0.00     0.072 A 
HETATM   10  C14 UNL     1      22.943   2.441  52.127  1.00  0.00     0.042 A 
HETATM   11  C2  UNL     1      20.757   1.018  52.749  1.00  0.00     0.103 A 
HETATM   12  C16 UNL     1      21.959   0.342  52.723  1.00  0.00     0.102 A 
HETATM   13  C15 UNL     1      23.069   1.095  52.401  1.00  0.00     0.057 A 
BRANCH  11  14
HETATM   14  O1  UNL     1      19.592   0.341  53.062  1.00  0.00    -0.353 OA
HETATM   15  C1  UNL     1      18.650  -0.096  52.137  1.00  0.00     0.210 C 
ENDBRANCH  11  14
BRANCH  12  16
HETATM   16  O3  UNL     1      21.936  -1.005  53.020  1.00  0.00    -0.353 OA
HETATM   17  C17 UNL     1      21.990  -1.597  54.275  1.00  0.00     0.210 C 
ENDBRANCH  12  16
ENDBRANCH   1   4
BRANCH   1  18
HETATM   18  C8  UNL     1      26.056   1.612  52.652  1.00  0.00     0.042 A 
HETATM   19  C9  UNL     1      26.572   0.549  51.901  1.00  0.00     0.030 A 
HETATM   20  C10 UNL     1      27.233  -0.509  52.539  1.00  0.00     0.002 A 
HETATM   21  C11 UNL     1      27.362  -0.479  53.909  1.00  0.00     0.000 A 
HETATM   22  C12 UNL     1      26.848   0.575  54.635  1.00  0.00     0.002 A 
HETATM   23  C13 UNL     1      26.200   1.614  54.022  1.00  0.00     0.030 A 
ENDBRANCH   1  18
TORSDOF 4
ENDMDL
