MODEL 1
REMARK VINA RESULT:      -7.8      0.000      0.000
REMARK  4 active torsions:
REMARK  status: ('A' for Active; 'I' for Inactive)
REMARK    1  A    between atoms: C4_4  and  C5_5 
REMARK    2  A    between atoms: N2_17  and  C13_18 
REMARK    3  A    between atoms: C13_18  and  N3_19 
REMARK    4  A    between atoms: N3_19  and  C14_20 
ROOT
HETATM    1  C1  UNL     1      21.980   1.840  48.075  1.00  0.00     0.044 C 
HETATM    2  C2  UNL     1      23.004   2.553  48.866  1.00  0.00     0.143 C 
HETATM    3  C3  UNL     1      23.252   3.964  48.464  1.00  0.00     0.015 C 
HETATM    4  C4  UNL     1      22.381   4.867  48.845  1.00  0.00    -0.012 C 
HETATM    5  C6  UNL     1      21.125   5.208  49.545  1.00  0.00     0.214 C 
HETATM    6  O2  UNL     1      20.559   4.008  50.064  1.00  0.00    -0.357 OA
HETATM    7  C7  UNL     1      19.439   3.974  50.858  1.00  0.00     0.159 C 
HETATM    8  C8  UNL     1      19.228   3.029  51.752  1.00  0.00     0.161 C 
HETATM    9  O3  UNL     1      19.683   1.903  52.333  1.00  0.00    -0.340 OA
HETATM   10  C9  UNL     1      20.638   1.804  53.381  1.00  0.00     0.323 C 
HETATM   11  N1  UNL     1      20.741   0.494  53.926  1.00  0.00    -0.262 NA
HETATM   12  C10 UNL     1      20.913  -0.376  52.973  1.00  0.00     0.079 C 
HETATM   13  C11 UNL     1      21.887   0.034  52.157  1.00  0.00     0.026 C 
HETATM   14  C12 UNL     1      22.893   0.830  52.873  1.00  0.00     0.150 C 
HETATM   15  N2  UNL     1      23.714   1.724  52.203  1.00  0.00    -0.373 N 
HETATM   16  C20 UNL     1      23.738   1.898  50.857  1.00  0.00     0.290 C 
HETATM   17  O4  UNL     1      22.649   2.490  50.232  1.00  0.00    -0.364 OA
ENDROOT
BRANCH  15  18
HETATM   18  C13 UNL     1      24.587   2.471  53.014  1.00  0.00     0.243 C 
BRANCH  18  19
HETATM   19  N3  UNL     1      25.886   2.719  52.472  1.00  0.00    -0.374 N 
HETATM   20  H18 UNL     1      26.277   3.434  51.812  1.00  0.00     0.161 HD
BRANCH  19  21
HETATM   21  C14 UNL     1      26.940   1.827  52.895  1.00  0.00     0.029 A 
HETATM   22  C15 UNL     1      28.082   2.251  53.545  1.00  0.00     0.029 A 
HETATM   23  C16 UNL     1      29.055   1.318  53.925  1.00  0.00     0.002 A 
HETATM   24  C17 UNL     1      28.919  -0.008  53.675  1.00  0.00     0.000 A 
HETATM   25  C18 UNL     1      27.788  -0.500  53.022  1.00  0.00     0.002 A 
HETATM   26  C19 UNL     1      26.857   0.449  52.666  1.00  0.00     0.029 A 
ENDBRANCH  19  21
ENDBRANCH  18  19
ENDBRANCH  15  18
BRANCH   4  27
HETATM   27  C5  UNL     1      22.803   6.207  48.352  1.00  0.00     0.387 C 
HETATM   28  O1  UNL     1      23.643   6.778  47.615  1.00  0.00    -0.405 OA
ENDBRANCH   4  27
TORSDOF 4
ENDMDL
MODEL 2
REMARK VINA RESULT:      -7.6      2.193      5.243
REMARK  4 active torsions:
REMARK  status: ('A' for Active; 'I' for Inactive)
REMARK    1  A    between atoms: C4_4  and  C5_5 
REMARK    2  A    between atoms: N2_17  and  C13_18 
REMARK    3  A    between atoms: C13_18  and  N3_19 
REMARK    4  A    between atoms: N3_19  and  C14_20 
ROOT
HETATM    1  C1  UNL     1      18.757   2.796  51.575  1.00  0.00     0.044 C 
HETATM    2  C2  UNL     1      20.024   2.883  52.330  1.00  0.00     0.143 C 
HETATM    3  C3  UNL     1      20.428   1.641  53.044  1.00  0.00     0.015 C 
HETATM    4  C4  UNL     1      20.962   0.678  52.332  1.00  0.00    -0.012 C 
HETATM    5  C6  UNL     1      21.395   0.155  51.019  1.00  0.00     0.214 C 
HETATM    6  O2  UNL     1      21.110   1.138  50.027  1.00  0.00    -0.357 OA
HETATM    7  C7  UNL     1      21.476   1.019  48.709  1.00  0.00     0.159 C 
HETATM    8  C8  UNL     1      21.718   2.062  47.941  1.00  0.00     0.161 C 
HETATM    9  O3  UNL     1      21.780   3.404  47.845  1.00  0.00    -0.340 OA
HETATM   10  C9  UNL     1      22.853   4.244  48.246  1.00  0.00     0.323 C 
HETATM   11  N1  UNL     1      22.707   5.590  47.810  1.00  0.00    -0.262 NA
HETATM   12  C10 UNL     1      21.532   6.043  48.140  1.00  0.00     0.079 C 
HETATM   13  C11 UNL     1      21.291   5.780  49.427  1.00  0.00     0.026 C 
HETATM   14  C12 UNL     1      22.530   5.762  50.217  1.00  0.00     0.150 C 
HETATM   15  N2  UNL     1      22.605   5.082  51.422  1.00  0.00    -0.373 N 
HETATM   16  C20 UNL     1      21.566   4.452  52.025  1.00  0.00     0.290 C 
HETATM   17  O4  UNL     1      21.050   3.297  51.452  1.00  0.00    -0.364 OA
ENDROOT
BRANCH  15  18
HETATM   18  C13 UNL     1      23.867   5.089  52.044  1.00  0.00     0.243 C 
BRANCH  18  19
HETATM   19  N3  UNL     1      24.922   4.446  51.326  1.00  0.00    -0.374 N 
HETATM   20  H18 UNL     1      25.561   4.741  50.550  1.00  0.00     0.161 HD
BRANCH  19  21
HETATM   21  C14 UNL     1      25.230   3.089  51.713  1.00  0.00     0.029 A 
HETATM   22  C15 UNL     1      26.278   2.365  51.183  1.00  0.00     0.029 A 
HETATM   23  C16 UNL     1      26.510   1.054  51.618  1.00  0.00     0.002 A 
HETATM   24  C17 UNL     1      25.732   0.456  52.553  1.00  0.00     0.000 A 
HETATM   25  C18 UNL     1      24.657   1.135  53.128  1.00  0.00     0.002 A 
HETATM   26  C19 UNL     1      24.464   2.419  52.674  1.00  0.00     0.029 A 
ENDBRANCH  19  21
ENDBRANCH  18  19
ENDBRANCH  15  18
BRANCH   4  27
HETATM   27  C5  UNL     1      21.299  -0.470  53.219  1.00  0.00     0.387 C 
HETATM   28  O1  UNL     1      20.949  -1.049  54.274  1.00  0.00    -0.405 OA
ENDBRANCH   4  27
TORSDOF 4
ENDMDL
MODEL 3
REMARK VINA RESULT:      -7.5      2.205      5.267
REMARK  4 active torsions:
REMARK  status: ('A' for Active; 'I' for Inactive)
REMARK    1  A    between atoms: C4_4  and  C5_5 
REMARK    2  A    between atoms: N2_17  and  C13_18 
REMARK    3  A    between atoms: C13_18  and  N3_19 
REMARK    4  A    between atoms: N3_19  and  C14_20 
ROOT
HETATM    1  C1  UNL     1      18.912   4.311  50.298  1.00  0.00     0.044 C 
HETATM    2  C2  UNL     1      19.682   3.849  51.471  1.00  0.00     0.143 C 
HETATM    3  C3  UNL     1      19.293   2.516  52.005  1.00  0.00     0.015 C 
HETATM    4  C4  UNL     1      19.713   1.455  51.357  1.00  0.00    -0.012 C 
HETATM    5  C6  UNL     1      20.455   0.868  50.222  1.00  0.00     0.214 C 
HETATM    6  O2  UNL     1      20.974   1.930  49.427  1.00  0.00    -0.357 OA
HETATM    7  C7  UNL     1      21.801   1.740  48.346  1.00  0.00     0.159 C 
HETATM    8  C8  UNL     1      22.687   2.636  47.962  1.00  0.00     0.161 C 
HETATM    9  O3  UNL     1      23.239   3.845  48.181  1.00  0.00    -0.340 OA
HETATM   10  C9  UNL     1      24.255   4.166  49.120  1.00  0.00     0.323 C 
HETATM   11  N1  UNL     1      24.779   5.479  48.955  1.00  0.00    -0.262 NA
HETATM   12  C10 UNL     1      23.809   6.346  48.911  1.00  0.00     0.079 C 
HETATM   13  C11 UNL     1      22.970   6.138  49.929  1.00  0.00     0.026 C 
HETATM   14  C12 UNL     1      23.667   5.589  51.101  1.00  0.00     0.150 C 
HETATM   15  N2  UNL     1      22.984   4.877  52.075  1.00  0.00    -0.373 N 
HETATM   16  C20 UNL     1      21.641   4.685  52.100  1.00  0.00     0.290 C 
HETATM   17  O4  UNL     1      21.058   3.862  51.147  1.00  0.00    -0.364 OA
ENDROOT
BRANCH  15  18
HETATM   18  C13 UNL     1      23.780   4.350  53.109  1.00  0.00     0.243 C 
BRANCH  18  19
HETATM   19  N3  UNL     1      24.725   3.350  52.722  1.00  0.00    -0.374 N 
HETATM   20  H18 UNL     1      25.662   3.375  52.254  1.00  0.00     0.161 HD
BRANCH  19  21
HETATM   21  C14 UNL     1      24.373   1.982  53.023  1.00  0.00     0.029 A 
HETATM   22  C15 UNL     1      23.102   1.469  52.862  1.00  0.00     0.029 A 
HETATM   23  C16 UNL     1      22.846   0.128  53.173  1.00  0.00     0.002 A 
HETATM   24  C17 UNL     1      23.814  -0.702  53.635  1.00  0.00     0.000 A 
HETATM   25  C18 UNL     1      25.119  -0.245  53.818  1.00  0.00     0.002 A 
HETATM   26  C19 UNL     1      25.328   1.077  53.502  1.00  0.00     0.029 A 
ENDBRANCH  19  21
ENDBRANCH  18  19
ENDBRANCH  15  18
BRANCH   4  27
HETATM   27  C5  UNL     1      19.226   0.226  52.043  1.00  0.00     0.387 C 
HETATM   28  O1  UNL     1      19.237  -0.369  53.147  1.00  0.00    -0.405 OA
ENDBRANCH   4  27
TORSDOF 4
ENDMDL
MODEL 4
REMARK VINA RESULT:      -7.5      2.692      6.084
REMARK  4 active torsions:
REMARK  status: ('A' for Active; 'I' for Inactive)
REMARK    1  A    between atoms: C4_4  and  C5_5 
REMARK    2  A    between atoms: N2_17  and  C13_18 
REMARK    3  A    between atoms: C13_18  and  N3_19 
REMARK    4  A    between atoms: N3_19  and  C14_20 
ROOT
HETATM    1  C1  UNL     1      23.921   4.243  53.166  1.00  0.00     0.044 C 
HETATM    2  C2  UNL     1      23.517   3.789  51.819  1.00  0.00     0.143 C 
HETATM    3  C3  UNL     1      24.515   4.024  50.740  1.00  0.00     0.015 C 
HETATM    4  C4  UNL     1      25.537   3.206  50.669  1.00  0.00    -0.012 C 
HETATM    5  C6  UNL     1      26.276   2.043  51.204  1.00  0.00     0.214 C 
HETATM    6  O2  UNL     1      25.575   1.549  52.341  1.00  0.00    -0.357 OA
HETATM    7  C7  UNL     1      25.932   0.410  53.021  1.00  0.00     0.159 C 
HETATM    8  C8  UNL     1      25.059  -0.335  53.670  1.00  0.00     0.161 C 
HETATM    9  O3  UNL     1      23.773  -0.517  54.025  1.00  0.00    -0.340 OA
HETATM   10  C9  UNL     1      22.741  -1.101  53.243  1.00  0.00     0.323 C 
HETATM   11  N1  UNL     1      21.550  -1.351  53.980  1.00  0.00    -0.262 NA
HETATM   12  C10 UNL     1      21.183  -0.278  54.618  1.00  0.00     0.079 C 
HETATM   13  C11 UNL     1      21.188   0.767  53.786  1.00  0.00     0.026 C 
HETATM   14  C12 UNL     1      20.882   0.361  52.407  1.00  0.00     0.150 C 
HETATM   15  N2  UNL     1      21.269   1.138  51.326  1.00  0.00    -0.373 N 
HETATM   16  C20 UNL     1      21.875   2.349  51.416  1.00  0.00     0.290 C 
HETATM   17  O4  UNL     1      23.181   2.418  51.882  1.00  0.00    -0.364 OA
ENDROOT
BRANCH  15  18
HETATM   18  C13 UNL     1      20.973   0.604  50.058  1.00  0.00     0.243 C 
BRANCH  18  19
HETATM   19  N3  UNL     1      20.030   1.338  49.275  1.00  0.00    -0.374 N 
HETATM   20  H18 UNL     1      18.986   1.434  49.290  1.00  0.00     0.161 HD
BRANCH  19  21
HETATM   21  C14 UNL     1      20.573   2.157  48.216  1.00  0.00     0.029 A 
HETATM   22  C15 UNL     1      21.908   2.162  47.865  1.00  0.00     0.029 A 
HETATM   23  C16 UNL     1      22.351   2.984  46.822  1.00  0.00     0.002 A 
HETATM   24  C17 UNL     1      21.508   3.790  46.131  1.00  0.00     0.000 A 
HETATM   25  C18 UNL     1      20.148   3.831  46.437  1.00  0.00     0.002 A 
HETATM   26  C19 UNL     1      19.753   3.010  47.468  1.00  0.00     0.029 A 
ENDBRANCH  19  21
ENDBRANCH  18  19
ENDBRANCH  15  18
BRANCH   4  27
HETATM   27  C5  UNL     1      26.415   3.601  49.533  1.00  0.00     0.387 C 
HETATM   28  O1  UNL     1      27.474   4.213  49.259  1.00  0.00    -0.405 OA
ENDBRANCH   4  27
TORSDOF 4
ENDMDL
MODEL 5
REMARK VINA RESULT:      -7.4      2.156      5.929
REMARK  4 active torsions:
REMARK  status: ('A' for Active; 'I' for Inactive)
REMARK    1  A    between atoms: C4_4  and  C5_5 
REMARK    2  A    between atoms: N2_17  and  C13_18 
REMARK    3  A    between atoms: C13_18  and  N3_19 
REMARK    4  A    between atoms: N3_19  and  C14_20 
ROOT
HETATM    1  C1  UNL     1      23.374   5.552  52.564  1.00  0.00     0.044 C 
HETATM    2  C2  UNL     1      22.583   4.330  52.312  1.00  0.00     0.143 C 
HETATM    3  C3  UNL     1      21.603   4.424  51.195  1.00  0.00     0.015 C 
HETATM    4  C4  UNL     1      22.066   4.332  49.972  1.00  0.00    -0.012 C 
HETATM    5  C6  UNL     1      23.213   4.180  49.052  1.00  0.00     0.214 C 
HETATM    6  O2  UNL     1      24.403   4.087  49.831  1.00  0.00    -0.357 OA
HETATM    7  C7  UNL     1      25.645   3.838  49.298  1.00  0.00     0.159 C 
HETATM    8  C8  UNL     1      26.600   3.230  49.973  1.00  0.00     0.161 C 
HETATM    9  O3  UNL     1      26.971   2.650  51.130  1.00  0.00    -0.340 OA
HETATM   10  C9  UNL     1      26.695   1.322  51.551  1.00  0.00     0.323 C 
HETATM   11  N1  UNL     1      27.411   0.942  52.720  1.00  0.00    -0.262 NA
HETATM   12  C10 UNL     1      27.251   1.834  53.654  1.00  0.00     0.079 C 
HETATM   13  C11 UNL     1      25.953   2.119  53.789  1.00  0.00     0.026 C 
HETATM   14  C12 UNL     1      25.108   0.962  53.460  1.00  0.00     0.150 C 
HETATM   15  N2  UNL     1      23.784   1.122  53.082  1.00  0.00    -0.373 N 
HETATM   16  C20 UNL     1      23.123   2.307  53.051  1.00  0.00     0.290 C 
HETATM   17  O4  UNL     1      23.469   3.251  52.094  1.00  0.00    -0.364 OA
ENDROOT
BRANCH  15  18
HETATM   18  C13 UNL     1      23.107  -0.060  52.730  1.00  0.00     0.243 C 
BRANCH  18  19
HETATM   19  N3  UNL     1      21.972  -0.391  53.533  1.00  0.00    -0.374 N 
HETATM   20  H18 UNL     1      21.844  -0.685  54.530  1.00  0.00     0.161 HD
BRANCH  19  21
HETATM   21  C14 UNL     1      20.683  -0.317  52.885  1.00  0.00     0.029 A 
HETATM   22  C15 UNL     1      20.476   0.299  51.667  1.00  0.00     0.029 A 
HETATM   23  C16 UNL     1      19.194   0.322  51.106  1.00  0.00     0.002 A 
HETATM   24  C17 UNL     1      18.127  -0.246  51.721  1.00  0.00     0.000 A 
HETATM   25  C18 UNL     1      18.270  -0.885  52.952  1.00  0.00     0.002 A 
HETATM   26  C19 UNL     1      19.545  -0.885  53.469  1.00  0.00     0.029 A 
ENDBRANCH  19  21
ENDBRANCH  18  19
ENDBRANCH  15  18
BRANCH   4  27
HETATM   27  C5  UNL     1      20.940   4.445  49.003  1.00  0.00     0.387 C 
HETATM   28  O1  UNL     1      20.615   4.187  47.820  1.00  0.00    -0.405 OA
ENDBRANCH   4  27
TORSDOF 4
ENDMDL
MODEL 6
REMARK VINA RESULT:      -7.3      1.880      2.579
REMARK  4 active torsions:
REMARK  status: ('A' for Active; 'I' for Inactive)
REMARK    1  A    between atoms: C4_4  and  C5_5 
REMARK    2  A    between atoms: N2_17  and  C13_18 
REMARK    3  A    between atoms: C13_18  and  N3_19 
REMARK    4  A    between atoms: N3_19  and  C14_20 
ROOT
HETATM    1  C1  UNL     1      22.351   2.916  47.499  1.00  0.00     0.044 C 
HETATM    2  C2  UNL     1      23.032   2.609  48.774  1.00  0.00     0.143 C 
HETATM    3  C3  UNL     1      24.127   3.543  49.154  1.00  0.00     0.015 C 
HETATM    4  C4  UNL     1      23.787   4.704  49.659  1.00  0.00    -0.012 C 
HETATM    5  C6  UNL     1      22.731   5.655  50.068  1.00  0.00     0.214 C 
HETATM    6  O2  UNL     1      21.464   5.062  49.798  1.00  0.00    -0.357 OA
HETATM    7  C7  UNL     1      20.265   5.632  50.151  1.00  0.00     0.159 C 
HETATM    8  C8  UNL     1      19.187   4.920  50.412  1.00  0.00     0.161 C 
HETATM    9  O3  UNL     1      18.640   3.694  50.505  1.00  0.00    -0.340 OA
HETATM   10  C9  UNL     1      18.730   2.795  51.602  1.00  0.00     0.323 C 
HETATM   11  N1  UNL     1      17.861   1.675  51.484  1.00  0.00    -0.262 NA
HETATM   12  C10 UNL     1      18.016   1.107  50.324  1.00  0.00     0.079 C 
HETATM   13  C11 UNL     1      19.316   0.909  50.087  1.00  0.00     0.026 C 
HETATM   14  C12 UNL     1      20.065   0.688  51.332  1.00  0.00     0.150 C 
HETATM   15  N2  UNL     1      21.430   0.918  51.400  1.00  0.00    -0.373 N 
HETATM   16  C20 UNL     1      22.211   1.278  50.351  1.00  0.00     0.290 C 
HETATM   17  O4  UNL     1      22.066   2.545  49.803  1.00  0.00    -0.364 OA
ENDROOT
BRANCH  15  18
HETATM   18  C13 UNL     1      22.013   0.731  52.667  1.00  0.00     0.243 C 
BRANCH  18  19
HETATM   19  N3  UNL     1      23.146   1.551  52.960  1.00  0.00    -0.374 N 
HETATM   20  H18 UNL     1      23.266   2.527  53.322  1.00  0.00     0.161 HD
BRANCH  19  21
HETATM   21  C14 UNL     1      24.444   0.958  52.738  1.00  0.00     0.029 A 
HETATM   22  C15 UNL     1      25.466   1.593  52.062  1.00  0.00     0.029 A 
HETATM   23  C16 UNL     1      26.697   0.947  51.894  1.00  0.00     0.002 A 
HETATM   24  C17 UNL     1      26.931  -0.298  52.376  1.00  0.00     0.000 A 
HETATM   25  C18 UNL     1      25.939  -0.993  53.070  1.00  0.00     0.002 A 
HETATM   26  C19 UNL     1      24.745  -0.324  53.213  1.00  0.00     0.029 A 
ENDBRANCH  19  21
ENDBRANCH  18  19
ENDBRANCH  15  18
BRANCH   4  27
HETATM   27  C5  UNL     1      25.012   5.489  49.975  1.00  0.00     0.387 C 
HETATM   28  O1  UNL     1      25.399   6.606  50.394  1.00  0.00    -0.405 OA
ENDBRANCH   4  27
TORSDOF 4
ENDMDL
MODEL 7
REMARK VINA RESULT:      -7.1      3.362      5.974
REMARK  4 active torsions:
REMARK  status: ('A' for Active; 'I' for Inactive)
REMARK    1  A    between atoms: C4_4  and  C5_5 
REMARK    2  A    between atoms: N2_17  and  C13_18 
REMARK    3  A    between atoms: C13_18  and  N3_19 
REMARK    4  A    between atoms: N3_19  and  C14_20 
ROOT
HETATM    1  C1  UNL     1      18.875   3.201  51.332  1.00  0.00     0.044 C 
HETATM    2  C2  UNL     1      20.172   3.461  51.990  1.00  0.00     0.143 C 
HETATM    3  C3  UNL     1      20.736   2.321  52.762  1.00  0.00     0.015 C 
HETATM    4  C4  UNL     1      21.314   1.356  52.087  1.00  0.00    -0.012 C 
HETATM    5  C6  UNL     1      21.712   0.772  50.789  1.00  0.00     0.214 C 
HETATM    6  O2  UNL     1      21.274   1.645  49.751  1.00  0.00    -0.357 OA
HETATM    7  C7  UNL     1      21.567   1.456  48.422  1.00  0.00     0.159 C 
HETATM    8  C8  UNL     1      21.661   2.453  47.565  1.00  0.00     0.161 C 
HETATM    9  O3  UNL     1      21.589   3.783  47.368  1.00  0.00    -0.340 OA
HETATM   10  C9  UNL     1      22.601   4.745  47.632  1.00  0.00     0.323 C 
HETATM   11  N1  UNL     1      22.301   6.034  47.110  1.00  0.00    -0.262 NA
HETATM   12  C10 UNL     1      21.111   6.404  47.487  1.00  0.00     0.079 C 
HETATM   13  C11 UNL     1      20.976   6.222  48.804  1.00  0.00     0.026 C 
HETATM   14  C12 UNL     1      22.258   6.378  49.505  1.00  0.00     0.150 C 
HETATM   15  N2  UNL     1      22.472   5.805  50.749  1.00  0.00    -0.373 N 
HETATM   16  C20 UNL     1      21.536   5.133  51.466  1.00  0.00     0.290 C 
HETATM   17  O4  UNL     1      21.098   3.896  51.015  1.00  0.00    -0.364 OA
ENDROOT
BRANCH  15  18
HETATM   18  C13 UNL     1      23.764   5.974  51.280  1.00  0.00     0.243 C 
BRANCH  18  19
HETATM   19  N3  UNL     1      24.724   4.980  50.917  1.00  0.00    -0.374 N 
HETATM   20  H18 UNL     1      24.860   3.972  51.167  1.00  0.00     0.161 HD
BRANCH  19  21
HETATM   21  C14 UNL     1      25.760   5.392  49.997  1.00  0.00     0.029 A 
HETATM   22  C15 UNL     1      25.941   6.697  49.589  1.00  0.00     0.029 A 
HETATM   23  C16 UNL     1      26.974   7.012  48.697  1.00  0.00     0.002 A 
HETATM   24  C17 UNL     1      27.817   6.069  48.209  1.00  0.00     0.000 A 
HETATM   25  C18 UNL     1      27.687   4.732  48.583  1.00  0.00     0.002 A 
HETATM   26  C19 UNL     1      26.660   4.465  49.460  1.00  0.00     0.029 A 
ENDBRANCH  19  21
ENDBRANCH  18  19
ENDBRANCH  15  18
BRANCH   4  27
HETATM   27  C5  UNL     1      21.812   0.317  53.030  1.00  0.00     0.387 C 
HETATM   28  O1  UNL     1      22.695  -0.564  53.165  1.00  0.00    -0.405 OA
ENDBRANCH   4  27
TORSDOF 4
ENDMDL
MODEL 8
REMARK VINA RESULT:      -7.1      2.506      5.853
REMARK  4 active torsions:
REMARK  status: ('A' for Active; 'I' for Inactive)
REMARK    1  A    between atoms: C4_4  and  C5_5 
REMARK    2  A    between atoms: N2_17  and  C13_18 
REMARK    3  A    between atoms: C13_18  and  N3_19 
REMARK    4  A    between atoms: N3_19  and  C14_20 
ROOT
HETATM    1  C1  UNL     1      21.559   1.002  48.937  1.00  0.00     0.044 C 
HETATM    2  C2  UNL     1      21.210   2.229  49.682  1.00  0.00     0.143 C 
HETATM    3  C3  UNL     1      19.803   2.307  50.159  1.00  0.00     0.015 C 
HETATM    4  C4  UNL     1      19.483   1.614  51.226  1.00  0.00    -0.012 C 
HETATM    5  C6  UNL     1      19.875   0.675  52.298  1.00  0.00     0.214 C 
HETATM    6  O2  UNL     1      21.248   0.338  52.121  1.00  0.00    -0.357 OA
HETATM    7  C7  UNL     1      21.963  -0.437  53.002  1.00  0.00     0.159 C 
HETATM    8  C8  UNL     1      23.265  -0.313  53.165  1.00  0.00     0.161 C 
HETATM    9  O3  UNL     1      24.392   0.327  52.802  1.00  0.00    -0.340 OA
HETATM   10  C9  UNL     1      24.850   1.587  53.271  1.00  0.00     0.323 C 
HETATM   11  N1  UNL     1      26.181   1.888  52.867  1.00  0.00    -0.262 NA
HETATM   12  C10 UNL     1      26.306   1.727  51.581  1.00  0.00     0.079 C 
HETATM   13  C11 UNL     1      25.310   2.353  50.948  1.00  0.00     0.026 C 
HETATM   14  C12 UNL     1      24.856   3.537  51.692  1.00  0.00     0.150 C 
HETATM   15  N2  UNL     1      23.588   4.063  51.501  1.00  0.00    -0.373 N 
HETATM   16  C20 UNL     1      22.690   3.616  50.587  1.00  0.00     0.290 C 
HETATM   17  O4  UNL     1      22.103   2.372  50.769  1.00  0.00    -0.364 OA
ENDROOT
BRANCH  15  18
HETATM   18  C13 UNL     1      23.256   5.156  52.323  1.00  0.00     0.243 C 
BRANCH  18  19
HETATM   19  N3  UNL     1      24.182   6.244  52.321  1.00  0.00    -0.374 N 
HETATM   20  H18 UNL     1      24.873   6.615  53.017  1.00  0.00     0.161 HD
BRANCH  19  21
HETATM   21  C14 UNL     1      24.232   7.044  51.120  1.00  0.00     0.029 A 
HETATM   22  C15 UNL     1      23.143   7.722  50.611  1.00  0.00     0.029 A 
HETATM   23  C16 UNL     1      23.278   8.480  49.441  1.00  0.00     0.002 A 
HETATM   24  C17 UNL     1      24.456   8.577  48.777  1.00  0.00     0.000 A 
HETATM   25  C18 UNL     1      25.594   7.916  49.240  1.00  0.00     0.002 A 
HETATM   26  C19 UNL     1      25.419   7.182  50.391  1.00  0.00     0.029 A 
ENDBRANCH  19  21
ENDBRANCH  18  19
ENDBRANCH  15  18
BRANCH   4  27
HETATM   27  C5  UNL     1      18.044   1.823  51.544  1.00  0.00     0.387 C 
HETATM   28  O1  UNL     1      17.109   2.651  51.430  1.00  0.00    -0.405 OA
ENDBRANCH   4  27
TORSDOF 4
ENDMDL
MODEL 9
REMARK VINA RESULT:      -7.0      2.948      5.982
REMARK  4 active torsions:
REMARK  status: ('A' for Active; 'I' for Inactive)
REMARK    1  A    between atoms: C4_4  and  C5_5 
REMARK    2  A    between atoms: N2_17  and  C13_18 
REMARK    3  A    between atoms: C13_18  and  N3_19 
REMARK    4  A    between atoms: N3_19  and  C14_20 
ROOT
HETATM    1  C1  UNL     1      25.640   4.576  49.345  1.00  0.00     0.044 C 
HETATM    2  C2  UNL     1      24.856   3.367  49.671  1.00  0.00     0.143 C 
HETATM    3  C3  UNL     1      25.090   2.801  51.027  1.00  0.00     0.015 C 
HETATM    4  C4  UNL     1      24.518   3.400  52.043  1.00  0.00    -0.012 C 
HETATM    5  C6  UNL     1      23.671   4.494  52.564  1.00  0.00     0.214 C 
HETATM    6  O2  UNL     1      23.266   5.310  51.467  1.00  0.00    -0.357 OA
HETATM    7  C7  UNL     1      22.387   6.359  51.582  1.00  0.00     0.159 C 
HETATM    8  C8  UNL     1      21.609   6.748  50.591  1.00  0.00     0.161 C 
HETATM    9  O3  UNL     1      21.223   6.553  49.317  1.00  0.00    -0.340 OA
HETATM   10  C9  UNL     1      20.286   5.597  48.841  1.00  0.00     0.323 C 
HETATM   11  N1  UNL     1      19.928   5.791  47.477  1.00  0.00    -0.262 NA
HETATM   12  C10 UNL     1      20.998   5.891  46.743  1.00  0.00     0.079 C 
HETATM   13  C11 UNL     1      21.836   4.890  47.027  1.00  0.00     0.026 C 
HETATM   14  C12 UNL     1      21.114   3.682  47.448  1.00  0.00     0.150 C 
HETATM   15  N2  UNL     1      21.732   2.704  48.212  1.00  0.00    -0.373 N 
HETATM   16  C20 UNL     1      23.040   2.711  48.573  1.00  0.00     0.290 C 
HETATM   17  O4  UNL     1      23.483   3.652  49.492  1.00  0.00    -0.364 OA
ENDROOT
BRANCH  15  18
HETATM   18  C13 UNL     1      20.910   1.631  48.603  1.00  0.00     0.243 C 
BRANCH  18  19
HETATM   19  N3  UNL     1      21.540   0.612  49.381  1.00  0.00    -0.374 N 
HETATM   20  H18 UNL     1      22.251  -0.130  49.173  1.00  0.00     0.161 HD
BRANCH  19  21
HETATM   21  C14 UNL     1      21.164   0.541  50.774  1.00  0.00     0.029 A 
HETATM   22  C15 UNL     1      19.857   0.441  51.206  1.00  0.00     0.029 A 
HETATM   23  C16 UNL     1      19.579   0.373  52.577  1.00  0.00     0.002 A 
HETATM   24  C17 UNL     1      20.559   0.401  53.513  1.00  0.00     0.000 A 
HETATM   25  C18 UNL     1      21.900   0.500  53.142  1.00  0.00     0.002 A 
HETATM   26  C19 UNL     1      22.130   0.566  51.787  1.00  0.00     0.029 A 
ENDBRANCH  19  21
ENDBRANCH  18  19
ENDBRANCH  15  18
BRANCH   4  27
HETATM   27  C5  UNL     1      24.867   2.689  53.303  1.00  0.00     0.387 C 
HETATM   28  O1  UNL     1      25.837   2.219  53.946  1.00  0.00    -0.405 OA
ENDBRANCH   4  27
TORSDOF 4
ENDMDL
