MODEL 1
REMARK VINA RESULT:      -8.4      0.000      0.000
REMARK  5 active torsions:
REMARK  status: ('A' for Active; 'I' for Inactive)
REMARK    1  A    between atoms: C11_16  and  O2_17 
REMARK    2  A    between atoms: O2_17  and  C12_18 
REMARK    3  A    between atoms: C12_18  and  C13_19 
REMARK    4  A    between atoms: C13_19  and  C14_20 
REMARK    5  A    between atoms: C15_21  and  C16_22 
ROOT
HETATM    1  C1  UNL     1      24.338  -1.263  55.409  1.00  0.00     0.071 C 
HETATM    2  C2  UNL     1      23.107  -0.777  54.623  1.00  0.00     0.047 A 
HETATM    3  N1  UNL     1      21.912  -0.791  55.204  1.00  0.00    -0.234 NA
HETATM    4  C3  UNL     1      20.803  -0.399  54.587  1.00  0.00     0.301 A 
HETATM    5  N2  UNL     1      21.328  -0.099  53.493  1.00  0.00    -0.386 NA
HETATM    6  C4  UNL     1      22.140   0.090  52.584  1.00  0.00     0.172 A 
HETATM    7  C5  UNL     1      23.241  -0.337  53.309  1.00  0.00     0.042 A 
HETATM    8  C6  UNL     1      24.600  -0.396  52.868  1.00  0.00     0.030 C 
HETATM    9  C7  UNL     1      25.147   0.725  52.562  1.00  0.00     0.014 C 
HETATM   10  C8  UNL     1      26.583   0.749  52.082  1.00  0.00     0.065 C 
HETATM   11  C9  UNL     1      26.739   2.035  51.271  1.00  0.00     0.145 C 
HETATM   12  N3  UNL     1      25.979   3.101  51.786  1.00  0.00    -0.325 N 
HETATM   13  N4  UNL     1      24.599   3.016  51.618  1.00  0.00    -0.202 N 
HETATM   14  C10 UNL     1      24.539   2.038  52.629  1.00  0.00     0.274 C 
HETATM   15  O1  UNL     1      23.848   2.947  53.224  1.00  0.00    -0.266 OA
HETATM   16  C11 UNL     1      24.614   3.990  50.603  1.00  0.00     0.166 C 
HETATM   17  C17 UNL     1      23.672   3.591  49.742  1.00  0.00     0.059 C 
HETATM   18  C18 UNL     1      22.729   2.500  49.621  1.00  0.00     0.016 C 
HETATM   19  C19 UNL     1      22.272   1.401  50.195  1.00  0.00     0.065 C 
HETATM   20  N5  UNL     1      22.320   0.503  51.265  1.00  0.00    -0.243 NA
HETATM   21  H10 UNL     1      26.334   3.687  52.521  1.00  0.00     0.180 HD
HETATM   22  H22 UNL     1      21.945   1.435  51.664  1.00  0.00     0.135 HD
ENDROOT
BRANCH  16  23
HETATM   23  O2  UNL     1      25.351   5.140  50.393  1.00  0.00    -0.334 OA
BRANCH  23  24
HETATM   24  C12 UNL     1      25.850   5.555  49.149  1.00  0.00     0.181 C 
BRANCH  24  25
HETATM   25  C13 UNL     1      27.139   4.797  48.887  1.00  0.00     0.053 C 
BRANCH  25  26
HETATM   26  C14 UNL     1      28.184   5.734  48.386  1.00  0.00    -0.026 C 
HETATM   27  C15 UNL     1      29.455   5.466  48.083  1.00  0.00     0.000 C 
BRANCH  27  28
HETATM   28  C16 UNL     1      30.619   6.228  47.585  1.00  0.00     0.249 C 
HETATM   29  F1  UNL     1      30.236   7.263  46.753  1.00  0.00    -0.251 F 
ENDBRANCH  27  28
ENDBRANCH  25  26
ENDBRANCH  24  25
ENDBRANCH  23  24
ENDBRANCH  16  23
TORSDOF 5
ENDMDL
MODEL 2
REMARK VINA RESULT:      -8.3      1.385      1.720
REMARK  5 active torsions:
REMARK  status: ('A' for Active; 'I' for Inactive)
REMARK    1  A    between atoms: C11_16  and  O2_17 
REMARK    2  A    between atoms: O2_17  and  C12_18 
REMARK    3  A    between atoms: C12_18  and  C13_19 
REMARK    4  A    between atoms: C13_19  and  C14_20 
REMARK    5  A    between atoms: C15_21  and  C16_22 
ROOT
HETATM    1  C1  UNL     1      21.549  -0.866  54.697  1.00  0.00     0.071 C 
HETATM    2  C2  UNL     1      20.801  -0.417  53.430  1.00  0.00     0.047 A 
HETATM    3  N1  UNL     1      19.473  -0.402  53.425  1.00  0.00    -0.234 NA
HETATM    4  C3  UNL     1      18.758  -0.040  52.365  1.00  0.00     0.301 A 
HETATM    5  N2  UNL     1      19.717   0.208  51.603  1.00  0.00    -0.386 NA
HETATM    6  C4  UNL     1      20.850   0.352  51.138  1.00  0.00     0.172 A 
HETATM    7  C5  UNL     1      21.510  -0.040  52.292  1.00  0.00     0.042 A 
HETATM    8  C6  UNL     1      22.922  -0.121  52.499  1.00  0.00     0.030 C 
HETATM    9  C7  UNL     1      23.573   0.984  52.417  1.00  0.00     0.014 C 
HETATM   10  C8  UNL     1      25.073   0.984  52.620  1.00  0.00     0.065 C 
HETATM   11  C9  UNL     1      25.599   2.229  51.906  1.00  0.00     0.145 C 
HETATM   12  N3  UNL     1      24.712   3.319  51.987  1.00  0.00    -0.325 N 
HETATM   13  N4  UNL     1      23.546   3.227  51.232  1.00  0.00    -0.202 N 
HETATM   14  C10 UNL     1      23.026   2.299  52.153  1.00  0.00     0.274 C 
HETATM   15  O1  UNL     1      22.164   3.236  52.344  1.00  0.00    -0.266 OA
HETATM   16  C11 UNL     1      24.027   4.152  50.287  1.00  0.00     0.166 C 
HETATM   17  C17 UNL     1      23.553   3.712  49.117  1.00  0.00     0.059 C 
HETATM   18  C18 UNL     1      22.736   2.618  48.639  1.00  0.00     0.016 C 
HETATM   19  C19 UNL     1      22.049   1.547  48.999  1.00  0.00     0.065 C 
HETATM   20  N5  UNL     1      21.601   0.702  50.017  1.00  0.00    -0.243 NA
HETATM   21  H10 UNL     1      24.720   3.940  52.778  1.00  0.00     0.180 HD
HETATM   22  H22 UNL     1      21.109   1.652  50.170  1.00  0.00     0.135 HD
ENDROOT
BRANCH  16  23
HETATM   23  O2  UNL     1      24.807   5.290  50.375  1.00  0.00    -0.334 OA
BRANCH  23  24
HETATM   24  C12 UNL     1      25.765   5.679  49.427  1.00  0.00     0.181 C 
BRANCH  24  25
HETATM   25  C13 UNL     1      26.748   4.533  49.260  1.00  0.00     0.053 C 
BRANCH  25  26
HETATM   26  C14 UNL     1      27.969   5.012  48.555  1.00  0.00    -0.026 C 
HETATM   27  C15 UNL     1      28.270   6.256  48.180  1.00  0.00     0.000 C 
BRANCH  27  28
HETATM   28  C16 UNL     1      29.395   6.922  47.491  1.00  0.00     0.249 C 
HETATM   29  F1  UNL     1      30.409   6.034  47.186  1.00  0.00    -0.251 F 
ENDBRANCH  27  28
ENDBRANCH  25  26
ENDBRANCH  24  25
ENDBRANCH  23  24
ENDBRANCH  16  23
TORSDOF 5
ENDMDL
MODEL 3
REMARK VINA RESULT:      -8.0      2.917      3.956
REMARK  5 active torsions:
REMARK  status: ('A' for Active; 'I' for Inactive)
REMARK    1  A    between atoms: C11_16  and  O2_17 
REMARK    2  A    between atoms: O2_17  and  C12_18 
REMARK    3  A    between atoms: C12_18  and  C13_19 
REMARK    4  A    between atoms: C13_19  and  C14_20 
REMARK    5  A    between atoms: C15_21  and  C16_22 
ROOT
HETATM    1  C1  UNL     1      27.988   0.068  53.774  1.00  0.00     0.071 C 
HETATM    2  C2  UNL     1      26.489  -0.183  54.016  1.00  0.00     0.047 A 
HETATM    3  N1  UNL     1      26.097  -0.763  55.145  1.00  0.00    -0.234 NA
HETATM    4  C3  UNL     1      24.824  -1.023  55.420  1.00  0.00     0.301 A 
HETATM    5  N2  UNL     1      24.337  -0.567  54.364  1.00  0.00    -0.386 NA
HETATM    6  C4  UNL     1      24.200  -0.050  53.253  1.00  0.00     0.172 A 
HETATM    7  C5  UNL     1      25.551   0.183  53.055  1.00  0.00     0.042 A 
HETATM    8  C6  UNL     1      26.169   0.791  51.918  1.00  0.00     0.030 C 
HETATM    9  C7  UNL     1      25.851   2.014  51.685  1.00  0.00     0.014 C 
HETATM   10  C8  UNL     1      26.459   2.731  50.498  1.00  0.00     0.065 C 
HETATM   11  C9  UNL     1      25.498   3.867  50.149  1.00  0.00     0.145 C 
HETATM   12  N3  UNL     1      24.887   4.432  51.283  1.00  0.00    -0.325 N 
HETATM   13  N4  UNL     1      23.927   3.652  51.924  1.00  0.00    -0.202 N 
HETATM   14  C10 UNL     1      24.948   2.842  52.457  1.00  0.00     0.274 C 
HETATM   15  O1  UNL     1      24.499   3.312  53.569  1.00  0.00    -0.266 OA
HETATM   16  C11 UNL     1      22.878   4.436  51.412  1.00  0.00     0.166 C 
HETATM   17  C17 UNL     1      21.891   3.563  51.180  1.00  0.00     0.059 C 
HETATM   18  C18 UNL     1      21.668   2.141  51.321  1.00  0.00     0.016 C 
HETATM   19  C19 UNL     1      22.205   0.999  51.714  1.00  0.00     0.065 C 
HETATM   20  N5  UNL     1      23.299   0.316  52.254  1.00  0.00    -0.243 NA
HETATM   21  H10 UNL     1      25.336   5.161  51.809  1.00  0.00     0.180 HD
HETATM   22  H22 UNL     1      22.917   0.953  53.039  1.00  0.00     0.135 HD
ENDROOT
BRANCH  16  23
HETATM   23  O2  UNL     1      22.731   5.785  51.151  1.00  0.00    -0.334 OA
BRANCH  23  24
HETATM   24  C12 UNL     1      22.033   6.319  50.058  1.00  0.00     0.181 C 
BRANCH  24  25
HETATM   25  C13 UNL     1      23.011   6.461  48.905  1.00  0.00     0.053 C 
BRANCH  25  26
HETATM   26  C14 UNL     1      22.608   5.564  47.786  1.00  0.00    -0.026 C 
HETATM   27  C15 UNL     1      22.507   4.234  47.792  1.00  0.00     0.000 C 
BRANCH  27  28
HETATM   28  C16 UNL     1      22.135   3.186  46.819  1.00  0.00     0.249 C 
HETATM   29  F1  UNL     1      22.591   1.940  47.206  1.00  0.00    -0.251 F 
ENDBRANCH  27  28
ENDBRANCH  25  26
ENDBRANCH  24  25
ENDBRANCH  23  24
ENDBRANCH  16  23
TORSDOF 5
ENDMDL
MODEL 4
REMARK VINA RESULT:      -8.0      3.457      5.757
REMARK  5 active torsions:
REMARK  status: ('A' for Active; 'I' for Inactive)
REMARK    1  A    between atoms: C11_16  and  O2_17 
REMARK    2  A    between atoms: O2_17  and  C12_18 
REMARK    3  A    between atoms: C12_18  and  C13_19 
REMARK    4  A    between atoms: C13_19  and  C14_20 
REMARK    5  A    between atoms: C15_21  and  C16_22 
ROOT
HETATM    1  C1  UNL     1      19.416   2.665  51.943  1.00  0.00     0.071 C 
HETATM    2  C2  UNL     1      20.391   3.531  51.125  1.00  0.00     0.047 A 
HETATM    3  N1  UNL     1      20.029   4.756  50.760  1.00  0.00    -0.234 NA
HETATM    4  C3  UNL     1      20.810   5.557  50.044  1.00  0.00     0.301 A 
HETATM    5  N2  UNL     1      21.779   4.776  49.932  1.00  0.00    -0.386 NA
HETATM    6  C4  UNL     1      22.521   3.794  50.012  1.00  0.00     0.172 A 
HETATM    7  C5  UNL     1      21.638   3.032  50.760  1.00  0.00     0.042 A 
HETATM    8  C6  UNL     1      21.838   1.702  51.249  1.00  0.00     0.030 C 
HETATM    9  C7  UNL     1      22.798   1.544  52.088  1.00  0.00     0.014 C 
HETATM   10  C8  UNL     1      23.079   0.167  52.651  1.00  0.00     0.065 C 
HETATM   11  C9  UNL     1      24.540   0.179  53.098  1.00  0.00     0.145 C 
HETATM   12  N3  UNL     1      24.942   1.425  53.613  1.00  0.00    -0.325 N 
HETATM   13  N4  UNL     1      25.086   2.460  52.693  1.00  0.00    -0.202 N 
HETATM   14  C10 UNL     1      23.686   2.568  52.600  1.00  0.00     0.274 C 
HETATM   15  O1  UNL     1      23.917   3.732  53.100  1.00  0.00    -0.266 OA
HETATM   16  C11 UNL     1      26.489   2.386  52.756  1.00  0.00     0.166 C 
HETATM   17  C17 UNL     1      26.895   2.649  51.508  1.00  0.00     0.059 C 
HETATM   18  C18 UNL     1      26.289   2.965  50.233  1.00  0.00     0.016 C 
HETATM   19  C19 UNL     1      25.145   3.170  49.604  1.00  0.00     0.065 C 
HETATM   20  N5  UNL     1      23.750   3.244  49.653  1.00  0.00    -0.243 NA
HETATM   21  H10 UNL     1      24.790   1.664  54.578  1.00  0.00     0.180 HD
HETATM   22  H22 UNL     1      24.122   4.073  50.239  1.00  0.00     0.135 HD
ENDROOT
BRANCH  16  23
HETATM   23  O2  UNL     1      27.388   2.123  53.772  1.00  0.00    -0.334 OA
BRANCH  23  24
HETATM   24  C12 UNL     1      28.769   2.359  53.702  1.00  0.00     0.181 C 
BRANCH  24  25
HETATM   25  C13 UNL     1      29.468   1.283  54.514  1.00  0.00     0.053 C 
BRANCH  25  26
HETATM   26  C14 UNL     1      29.652   0.061  53.682  1.00  0.00    -0.026 C 
HETATM   27  C15 UNL     1      28.965  -1.081  53.731  1.00  0.00     0.000 C 
BRANCH  27  28
HETATM   28  C16 UNL     1      28.987  -2.374  53.015  1.00  0.00     0.249 C 
HETATM   29  F1  UNL     1      27.719  -2.774  52.638  1.00  0.00    -0.251 F 
ENDBRANCH  27  28
ENDBRANCH  25  26
ENDBRANCH  24  25
ENDBRANCH  23  24
ENDBRANCH  16  23
TORSDOF 5
ENDMDL
MODEL 5
REMARK VINA RESULT:      -7.8      2.589      3.733
REMARK  5 active torsions:
REMARK  status: ('A' for Active; 'I' for Inactive)
REMARK    1  A    between atoms: C11_16  and  O2_17 
REMARK    2  A    between atoms: O2_17  and  C12_18 
REMARK    3  A    between atoms: C12_18  and  C13_19 
REMARK    4  A    between atoms: C13_19  and  C14_20 
REMARK    5  A    between atoms: C15_21  and  C16_22 
ROOT
HETATM    1  C1  UNL     1      28.328   0.480  53.566  1.00  0.00     0.071 C 
HETATM    2  C2  UNL     1      26.885   0.075  53.914  1.00  0.00     0.047 A 
HETATM    3  N1  UNL     1      26.639  -0.546  55.062  1.00  0.00    -0.234 NA
HETATM    4  C3  UNL     1      25.422  -0.937  55.426  1.00  0.00     0.301 A 
HETATM    5  N2  UNL     1      24.814  -0.529  54.413  1.00  0.00    -0.386 NA
HETATM    6  C4  UNL     1      24.544  -0.024  53.321  1.00  0.00     0.172 A 
HETATM    7  C5  UNL     1      25.846   0.347  53.028  1.00  0.00     0.042 A 
HETATM    8  C6  UNL     1      26.314   1.020  51.856  1.00  0.00     0.030 C 
HETATM    9  C7  UNL     1      25.856   2.204  51.661  1.00  0.00     0.014 C 
HETATM   10  C8  UNL     1      26.299   2.984  50.441  1.00  0.00     0.065 C 
HETATM   11  C9  UNL     1      25.204   4.017  50.175  1.00  0.00     0.145 C 
HETATM   12  N3  UNL     1      24.623   4.512  51.357  1.00  0.00    -0.325 N 
HETATM   13  N4  UNL     1      23.798   3.635  52.058  1.00  0.00    -0.202 N 
HETATM   14  C10 UNL     1      24.932   2.932  52.506  1.00  0.00     0.274 C 
HETATM   15  O1  UNL     1      24.521   3.349  53.653  1.00  0.00    -0.266 OA
HETATM   16  C11 UNL     1      22.639   4.309  51.633  1.00  0.00     0.166 C 
HETATM   17  C17 UNL     1      21.732   3.341  51.463  1.00  0.00     0.059 C 
HETATM   18  C18 UNL     1      21.667   1.903  51.604  1.00  0.00     0.016 C 
HETATM   19  C19 UNL     1      22.345   0.820  51.944  1.00  0.00     0.065 C 
HETATM   20  N5  UNL     1      23.539   0.251  52.395  1.00  0.00    -0.243 NA
HETATM   21  H10 UNL     1      25.033   5.282  51.858  1.00  0.00     0.180 HD
HETATM   22  H22 UNL     1      23.154   0.843  53.213  1.00  0.00     0.135 HD
ENDROOT
BRANCH  16  23
HETATM   23  O2  UNL     1      22.337   5.638  51.399  1.00  0.00    -0.334 OA
BRANCH  23  24
HETATM   24  C12 UNL     1      21.425   6.094  50.436  1.00  0.00     0.181 C 
BRANCH  24  25
HETATM   25  C13 UNL     1      21.698   7.569  50.198  1.00  0.00     0.053 C 
BRANCH  25  26
HETATM   26  C14 UNL     1      23.095   7.897  50.600  1.00  0.00    -0.026 C 
HETATM   27  C15 UNL     1      24.133   8.184  49.814  1.00  0.00     0.000 C 
BRANCH  27  28
HETATM   28  C16 UNL     1      25.557   8.527  50.007  1.00  0.00     0.249 C 
HETATM   29  F1  UNL     1      26.283   7.456  50.492  1.00  0.00    -0.251 F 
ENDBRANCH  27  28
ENDBRANCH  25  26
ENDBRANCH  24  25
ENDBRANCH  23  24
ENDBRANCH  16  23
TORSDOF 5
ENDMDL
MODEL 6
REMARK VINA RESULT:      -7.7      4.591      8.269
REMARK  5 active torsions:
REMARK  status: ('A' for Active; 'I' for Inactive)
REMARK    1  A    between atoms: C11_16  and  O2_17 
REMARK    2  A    between atoms: O2_17  and  C12_18 
REMARK    3  A    between atoms: C12_18  and  C13_19 
REMARK    4  A    between atoms: C13_19  and  C14_20 
REMARK    5  A    between atoms: C15_21  and  C16_22 
ROOT
HETATM    1  C1  UNL     1      26.793   0.614  52.019  1.00  0.00     0.071 C 
HETATM    2  C2  UNL     1      26.142   1.919  51.527  1.00  0.00     0.047 A 
HETATM    3  N1  UNL     1      26.755   2.646  50.599  1.00  0.00    -0.234 NA
HETATM    4  C3  UNL     1      26.262   3.789  50.134  1.00  0.00     0.301 A 
HETATM    5  N2  UNL     1      25.223   3.808  50.828  1.00  0.00    -0.386 NA
HETATM    6  C4  UNL     1      24.336   3.521  51.635  1.00  0.00     0.172 A 
HETATM    7  C5  UNL     1      24.926   2.342  52.057  1.00  0.00     0.042 A 
HETATM    8  C6  UNL     1      24.430   1.425  53.036  1.00  0.00     0.030 C 
HETATM    9  C7  UNL     1      23.314   0.851  52.762  1.00  0.00     0.014 C 
HETATM   10  C8  UNL     1      22.717  -0.131  53.748  1.00  0.00     0.065 C 
HETATM   11  C9  UNL     1      21.218  -0.169  53.457  1.00  0.00     0.145 C 
HETATM   12  N3  UNL     1      20.924  -0.027  52.088  1.00  0.00    -0.325 N 
HETATM   13  N4  UNL     1      21.124   1.236  51.538  1.00  0.00    -0.202 N 
HETATM   14  C10 UNL     1      22.515   1.024  51.566  1.00  0.00     0.274 C 
HETATM   15  O1  UNL     1      22.377   1.104  50.288  1.00  0.00    -0.266 OA
HETATM   16  C11 UNL     1      19.742   1.489  51.492  1.00  0.00     0.166 C 
HETATM   17  C17 UNL     1      19.631   2.794  51.763  1.00  0.00     0.059 C 
HETATM   18  C18 UNL     1      20.513   3.902  52.059  1.00  0.00     0.016 C 
HETATM   19  C19 UNL     1      21.775   4.265  52.212  1.00  0.00     0.065 C 
HETATM   20  N5  UNL     1      23.128   3.914  52.209  1.00  0.00    -0.243 NA
HETATM   21  H10 UNL     1      20.922  -0.821  51.470  1.00  0.00     0.180 HD
HETATM   22  H22 UNL     1      22.784   3.819  51.188  1.00  0.00     0.135 HD
ENDROOT
BRANCH  16  23
HETATM   23  O2  UNL     1      18.633   0.702  51.242  1.00  0.00    -0.334 OA
BRANCH  23  24
HETATM   24  C12 UNL     1      17.306   1.088  51.481  1.00  0.00     0.181 C 
BRANCH  24  25
HETATM   25  C13 UNL     1      16.488  -0.172  51.705  1.00  0.00     0.053 C 
BRANCH  25  26
HETATM   26  C14 UNL     1      17.266  -1.142  52.526  1.00  0.00    -0.026 C 
HETATM   27  C15 UNL     1      16.894  -2.352  52.946  1.00  0.00     0.000 C 
BRANCH  27  28
HETATM   28  C16 UNL     1      17.498  -3.438  53.744  1.00  0.00     0.249 C 
HETATM   29  F1  UNL     1      17.541  -4.628  53.041  1.00  0.00    -0.251 F 
ENDBRANCH  27  28
ENDBRANCH  25  26
ENDBRANCH  24  25
ENDBRANCH  23  24
ENDBRANCH  16  23
TORSDOF 5
ENDMDL
MODEL 7
REMARK VINA RESULT:      -7.6      3.748      8.322
REMARK  5 active torsions:
REMARK  status: ('A' for Active; 'I' for Inactive)
REMARK    1  A    between atoms: C11_16  and  O2_17 
REMARK    2  A    between atoms: O2_17  and  C12_18 
REMARK    3  A    between atoms: C12_18  and  C13_19 
REMARK    4  A    between atoms: C13_19  and  C14_20 
REMARK    5  A    between atoms: C15_21  and  C16_22 
ROOT
HETATM    1  C1  UNL     1      24.821  10.370  48.029  1.00  0.00     0.071 C 
HETATM    2  C2  UNL     1      26.018   9.568  48.569  1.00  0.00     0.047 A 
HETATM    3  N1  UNL     1      26.984  10.199  49.227  1.00  0.00    -0.234 NA
HETATM    4  C3  UNL     1      28.054   9.577  49.712  1.00  0.00     0.301 A 
HETATM    5  N2  UNL     1      27.754   8.425  49.332  1.00  0.00    -0.386 NA
HETATM    6  C4  UNL     1      27.173   7.461  48.828  1.00  0.00     0.172 A 
HETATM    7  C5  UNL     1      26.095   8.194  48.361  1.00  0.00     0.042 A 
HETATM    8  C6  UNL     1      24.962   7.706  47.637  1.00  0.00     0.030 C 
HETATM    9  C7  UNL     1      24.213   6.864  48.256  1.00  0.00     0.014 C 
HETATM   10  C8  UNL     1      22.995   6.296  47.559  1.00  0.00     0.065 C 
HETATM   11  C9  UNL     1      22.687   4.970  48.254  1.00  0.00     0.145 C 
HETATM   12  N3  UNL     1      22.962   5.001  49.634  1.00  0.00    -0.325 N 
HETATM   13  N4  UNL     1      24.305   5.022  49.998  1.00  0.00    -0.202 N 
HETATM   14  C10 UNL     1      24.387   6.371  49.607  1.00  0.00     0.274 C 
HETATM   15  O1  UNL     1      24.622   6.539  50.861  1.00  0.00    -0.266 OA
HETATM   16  C11 UNL     1      24.267   3.675  50.402  1.00  0.00     0.166 C 
HETATM   17  C17 UNL     1      25.466   3.189  50.063  1.00  0.00     0.059 C 
HETATM   18  C18 UNL     1      26.679   3.678  49.443  1.00  0.00     0.016 C 
HETATM   19  C19 UNL     1      27.272   4.736  48.918  1.00  0.00     0.065 C 
HETATM   20  N5  UNL     1      27.217   6.090  48.578  1.00  0.00    -0.243 NA
HETATM   21  H10 UNL     1      22.284   5.344  50.293  1.00  0.00     0.180 HD
HETATM   22  H22 UNL     1      27.201   6.044  49.658  1.00  0.00     0.135 HD
ENDROOT
BRANCH  16  23
HETATM   23  O2  UNL     1      23.310   2.887  51.013  1.00  0.00    -0.334 OA
BRANCH  23  24
HETATM   24  C12 UNL     1      23.418   1.502  51.208  1.00  0.00     0.181 C 
BRANCH  24  25
HETATM   25  C13 UNL     1      23.457   1.243  52.704  1.00  0.00     0.053 C 
BRANCH  25  26
HETATM   26  C14 UNL     1      24.823   0.803  53.105  1.00  0.00    -0.026 C 
HETATM   27  C15 UNL     1      25.748   0.201  52.356  1.00  0.00     0.000 C 
BRANCH  27  28
HETATM   28  C16 UNL     1      27.123  -0.301  52.556  1.00  0.00     0.249 C 
HETATM   29  F1  UNL     1      27.153  -1.676  52.697  1.00  0.00    -0.251 F 
ENDBRANCH  27  28
ENDBRANCH  25  26
ENDBRANCH  24  25
ENDBRANCH  23  24
ENDBRANCH  16  23
TORSDOF 5
ENDMDL
MODEL 8
REMARK VINA RESULT:      -7.1      4.188      9.053
REMARK  5 active torsions:
REMARK  status: ('A' for Active; 'I' for Inactive)
REMARK    1  A    between atoms: C11_16  and  O2_17 
REMARK    2  A    between atoms: O2_17  and  C12_18 
REMARK    3  A    between atoms: C12_18  and  C13_19 
REMARK    4  A    between atoms: C13_19  and  C14_20 
REMARK    5  A    between atoms: C15_21  and  C16_22 
ROOT
HETATM    1  C1  UNL     1      25.664  10.566  47.701  1.00  0.00     0.071 C 
HETATM    2  C2  UNL     1      26.800   9.668  48.223  1.00  0.00     0.047 A 
HETATM    3  N1  UNL     1      27.854  10.222  48.812  1.00  0.00    -0.234 NA
HETATM    4  C3  UNL     1      28.878   9.514  49.275  1.00  0.00     0.301 A 
HETATM    5  N2  UNL     1      28.448   8.385  48.958  1.00  0.00    -0.386 NA
HETATM    6  C4  UNL     1      27.751   7.466  48.520  1.00  0.00     0.172 A 
HETATM    7  C5  UNL     1      26.730   8.286  48.069  1.00  0.00     0.042 A 
HETATM    8  C6  UNL     1      25.522   7.888  47.416  1.00  0.00     0.030 C 
HETATM    9  C7  UNL     1      24.723   7.150  48.101  1.00  0.00     0.014 C 
HETATM   10  C8  UNL     1      23.423   6.682  47.482  1.00  0.00     0.065 C 
HETATM   11  C9  UNL     1      23.018   5.421  48.245  1.00  0.00     0.145 C 
HETATM   12  N3  UNL     1      23.359   5.476  49.609  1.00  0.00    -0.325 N 
HETATM   13  N4  UNL     1      24.714   5.375  49.914  1.00  0.00    -0.202 N 
HETATM   14  C10 UNL     1      24.910   6.693  49.463  1.00  0.00     0.274 C 
HETATM   15  O1  UNL     1      25.220   6.884  50.698  1.00  0.00    -0.266 OA
HETATM   16  C11 UNL     1      24.561   4.055  50.376  1.00  0.00     0.166 C 
HETATM   17  C17 UNL     1      25.689   3.438  50.006  1.00  0.00     0.059 C 
HETATM   18  C18 UNL     1      26.913   3.778  49.315  1.00  0.00     0.016 C 
HETATM   19  C19 UNL     1      27.583   4.750  48.721  1.00  0.00     0.065 C 
HETATM   20  N5  UNL     1      27.647   6.089  48.327  1.00  0.00    -0.243 NA
HETATM   21  H10 UNL     1      22.750   5.910  50.282  1.00  0.00     0.180 HD
HETATM   22  H22 UNL     1      27.677   6.086  49.407  1.00  0.00     0.135 HD
ENDROOT
BRANCH  16  23
HETATM   23  O2  UNL     1      23.560   3.391  51.060  1.00  0.00    -0.334 OA
BRANCH  23  24
HETATM   24  C12 UNL     1      23.261   2.028  50.918  1.00  0.00     0.181 C 
BRANCH  24  25
HETATM   25  C13 UNL     1      23.978   1.275  52.025  1.00  0.00     0.053 C 
BRANCH  25  26
HETATM   26  C14 UNL     1      23.006   0.885  53.084  1.00  0.00    -0.026 C 
HETATM   27  C15 UNL     1      21.808   0.316  52.934  1.00  0.00     0.000 C 
BRANCH  27  28
HETATM   28  C16 UNL     1      20.723  -0.139  53.827  1.00  0.00     0.249 C 
HETATM   29  F1  UNL     1      20.639   0.634  54.970  1.00  0.00    -0.251 F 
ENDBRANCH  27  28
ENDBRANCH  25  26
ENDBRANCH  24  25
ENDBRANCH  23  24
ENDBRANCH  16  23
TORSDOF 5
ENDMDL
MODEL 9
REMARK VINA RESULT:      -7.1      4.558      8.113
REMARK  5 active torsions:
REMARK  status: ('A' for Active; 'I' for Inactive)
REMARK    1  A    between atoms: C11_16  and  O2_17 
REMARK    2  A    between atoms: O2_17  and  C12_18 
REMARK    3  A    between atoms: C12_18  and  C13_19 
REMARK    4  A    between atoms: C13_19  and  C14_20 
REMARK    5  A    between atoms: C15_21  and  C16_22 
ROOT
HETATM    1  C1  UNL     1      26.820   1.677  51.595  1.00  0.00     0.071 C 
HETATM    2  C2  UNL     1      25.890   2.823  51.160  1.00  0.00     0.047 A 
HETATM    3  N1  UNL     1      26.299   3.679  50.229  1.00  0.00    -0.234 NA
HETATM    4  C3  UNL     1      25.559   4.700  49.811  1.00  0.00     0.301 A 
HETATM    5  N2  UNL     1      24.568   4.488  50.542  1.00  0.00    -0.386 NA
HETATM    6  C4  UNL     1      23.793   4.007  51.373  1.00  0.00     0.172 A 
HETATM    7  C5  UNL     1      24.635   2.971  51.744  1.00  0.00     0.042 A 
HETATM    8  C6  UNL     1      24.383   1.954  52.717  1.00  0.00     0.030 C 
HETATM    9  C7  UNL     1      23.401   1.163  52.469  1.00  0.00     0.014 C 
HETATM   10  C8  UNL     1      23.064   0.060  53.451  1.00  0.00     0.065 C 
HETATM   11  C9  UNL     1      21.595  -0.287  53.213  1.00  0.00     0.145 C 
HETATM   12  N3  UNL     1      21.223  -0.187  51.860  1.00  0.00    -0.325 N 
HETATM   13  N4  UNL     1      21.132   1.099  51.335  1.00  0.00    -0.202 N 
HETATM   14  C10 UNL     1      22.537   1.184  51.307  1.00  0.00     0.274 C 
HETATM   15  O1  UNL     1      22.332   1.255  50.038  1.00  0.00    -0.266 OA
HETATM   16  C11 UNL     1      19.726   1.056  51.345  1.00  0.00     0.166 C 
HETATM   17  C17 UNL     1      19.355   2.303  51.652  1.00  0.00     0.059 C 
HETATM   18  C18 UNL     1      19.997   3.567  51.944  1.00  0.00     0.016 C 
HETATM   19  C19 UNL     1      21.159   4.185  52.061  1.00  0.00     0.065 C 
HETATM   20  N5  UNL     1      22.554   4.127  52.000  1.00  0.00    -0.243 NA
HETATM   21  H10 UNL     1      21.363  -0.953  51.222  1.00  0.00     0.180 HD
HETATM   22  H22 UNL     1      22.197   3.979  50.990  1.00  0.00     0.135 HD
ENDROOT
BRANCH  16  23
HETATM   23  O2  UNL     1      18.798   0.057  51.115  1.00  0.00    -0.334 OA
BRANCH  23  24
HETATM   24  C12 UNL     1      17.714  -0.238  51.955  1.00  0.00     0.181 C 
BRANCH  24  25
HETATM   25  C13 UNL     1      16.438  -0.018  51.161  1.00  0.00     0.053 C 
BRANCH  25  26
HETATM   26  C14 UNL     1      15.531   0.901  51.904  1.00  0.00    -0.026 C 
HETATM   27  C15 UNL     1      15.630   2.225  52.039  1.00  0.00     0.000 C 
BRANCH  27  28
HETATM   28  C16 UNL     1      14.860   3.290  52.713  1.00  0.00     0.249 C 
HETATM   29  F1  UNL     1      15.669   4.341  53.103  1.00  0.00    -0.251 F 
ENDBRANCH  27  28
ENDBRANCH  25  26
ENDBRANCH  24  25
ENDBRANCH  23  24
ENDBRANCH  16  23
TORSDOF 5
ENDMDL
