MODEL 1
REMARK VINA RESULT:      -8.5      0.000      0.000
REMARK  5 active torsions:
REMARK  status: ('A' for Active; 'I' for Inactive)
REMARK    1  A    between atoms: C11_11  and  C12_12 
REMARK    2  A    between atoms: C12_12  and  N1_13 
REMARK    3  A    between atoms: N1_13  and  C13_14 
REMARK    4  A    between atoms: N3_24  and  O1_25 
REMARK    5  A    between atoms: N4_26  and  O2_27 
ROOT
HETATM    1  C1  UNL     1      19.797   3.291  48.223  1.00  0.00     0.034 C 
HETATM    2  C2  UNL     1      19.954   3.328  49.744  1.00  0.00     0.032 C 
HETATM    3  C3  UNL     1      18.766   4.105  50.240  1.00  0.00     0.034 C 
HETATM    4  C4  UNL     1      21.255   4.059  49.982  1.00  0.00     0.036 C 
HETATM    5  C5  UNL     1      21.699   4.025  51.406  1.00  0.00     0.047 C 
HETATM    6  C6  UNL     1      21.119   2.899  52.192  1.00  0.00     0.037 C 
HETATM    7  C7  UNL     1      20.780   1.694  51.350  1.00  0.00     0.039 C 
HETATM    8  C8  UNL     1      19.940   0.784  52.226  1.00  0.00     0.035 C 
HETATM    9  C9  UNL     1      22.098   1.065  50.951  1.00  0.00     0.054 C 
HETATM   10  C10 UNL     1      23.237   1.507  51.800  1.00  0.00    -0.016 C 
HETATM   11  C11 UNL     1      23.747   2.731  52.039  1.00  0.00    -0.013 C 
HETATM   12  C19 UNL     1      23.212   3.966  51.431  1.00  0.00     0.182 A 
HETATM   13  N2  UNL     1      23.849   4.254  50.165  1.00  0.00    -0.243 NA
HETATM   14  C20 UNL     1      24.370   5.340  50.588  1.00  0.00     0.233 A 
HETATM   15  N3  UNL     1      23.803   5.186  51.884  1.00  0.00    -0.218 N 
HETATM   16  N4  UNL     1      20.025   1.979  50.181  1.00  0.00    -0.181 NA
ENDROOT
BRANCH  11  17
HETATM   17  C12 UNL     1      24.910   2.837  52.963  1.00  0.00     0.158 C 
BRANCH  17  18
HETATM   18  N1  UNL     1      26.179   2.708  52.269  1.00  0.00    -0.386 N 
HETATM   19  H20 UNL     1      26.527   3.300  51.483  1.00  0.00     0.160 HD
BRANCH  18  20
HETATM   20  C13 UNL     1      27.036   1.669  52.699  1.00  0.00     0.029 A 
HETATM   21  C14 UNL     1      28.209   1.888  53.397  1.00  0.00     0.029 A 
HETATM   22  C15 UNL     1      29.066   0.919  53.833  1.00  0.00     0.004 A 
HETATM   23  C16 UNL     1      28.738  -0.381  53.557  1.00  0.00     0.024 A 
HETATM   24  C17 UNL     1      27.588  -0.714  52.865  1.00  0.00     0.036 A 
HETATM   25 CL1  UNL     1      27.165  -2.367  52.512  1.00  0.00    -0.084 Cl
HETATM   26  C18 UNL     1      26.792   0.328  52.470  1.00  0.00     0.052 A 
ENDBRANCH  18  20
ENDBRANCH  17  18
ENDBRANCH  11  17
BRANCH  15  27
HETATM   27  O1  UNL     1      24.205   6.268  52.627  1.00  0.00    -0.284 OA
HETATM   28  H26 UNL     1      25.158   6.420  52.480  1.00  0.00     0.245 HD
ENDBRANCH  15  27
BRANCH  16  29
HETATM   29  O2  UNL     1      20.445   1.170  49.175  1.00  0.00    -0.312 OA
HETATM   30  H27 UNL     1      20.345   0.215  49.396  1.00  0.00     0.237 HD
ENDBRANCH  16  29
TORSDOF 5
ENDMDL
MODEL 2
REMARK VINA RESULT:      -8.0      1.961      2.356
REMARK  5 active torsions:
REMARK  status: ('A' for Active; 'I' for Inactive)
REMARK    1  A    between atoms: C11_11  and  C12_12 
REMARK    2  A    between atoms: C12_12  and  N1_13 
REMARK    3  A    between atoms: N1_13  and  C13_14 
REMARK    4  A    between atoms: N3_24  and  O1_25 
REMARK    5  A    between atoms: N4_26  and  O2_27 
ROOT
HETATM    1  C1  UNL     1      21.868   5.614  45.819  1.00  0.00     0.034 C 
HETATM    2  C2  UNL     1      21.443   5.247  47.241  1.00  0.00     0.032 C 
HETATM    3  C3  UNL     1      20.196   6.049  47.495  1.00  0.00     0.034 C 
HETATM    4  C4  UNL     1      22.594   5.688  48.116  1.00  0.00     0.036 C 
HETATM    5  C5  UNL     1      22.467   5.234  49.532  1.00  0.00     0.047 C 
HETATM    6  C6  UNL     1      21.579   4.050  49.707  1.00  0.00     0.037 C 
HETATM    7  C7  UNL     1      21.522   3.158  48.492  1.00  0.00     0.039 C 
HETATM    8  C8  UNL     1      20.369   2.200  48.721  1.00  0.00     0.035 C 
HETATM    9  C9  UNL     1      22.859   2.455  48.413  1.00  0.00     0.054 C 
HETATM   10  C10 UNL     1      23.616   2.493  49.693  1.00  0.00    -0.016 C 
HETATM   11  C11 UNL     1      24.059   3.526  50.435  1.00  0.00    -0.013 C 
HETATM   12  C19 UNL     1      23.854   4.940  50.062  1.00  0.00     0.182 A 
HETATM   13  N2  UNL     1      24.935   5.432  49.236  1.00  0.00    -0.243 NA
HETATM   14  C20 UNL     1      25.312   6.287  50.106  1.00  0.00     0.233 A 
HETATM   15  N3  UNL     1      24.292   5.904  51.023  1.00  0.00    -0.218 N 
HETATM   16  N4  UNL     1      21.277   3.838  47.268  1.00  0.00    -0.181 NA
ENDROOT
BRANCH  11  17
HETATM   17  C12 UNL     1      24.793   3.220  51.695  1.00  0.00     0.158 C 
BRANCH  17  18
HETATM   18  N1  UNL     1      26.224   3.094  51.482  1.00  0.00    -0.386 N 
HETATM   19  H20 UNL     1      26.823   3.697  50.877  1.00  0.00     0.160 HD
BRANCH  18  20
HETATM   20  C13 UNL     1      26.878   2.043  52.166  1.00  0.00     0.029 A 
HETATM   21  C14 UNL     1      27.870   2.246  53.107  1.00  0.00     0.029 A 
HETATM   22  C15 UNL     1      28.528   1.265  53.791  1.00  0.00     0.004 A 
HETATM   23  C16 UNL     1      28.178  -0.031  53.523  1.00  0.00     0.024 A 
HETATM   24  C17 UNL     1      27.199  -0.348  52.600  1.00  0.00     0.036 A 
HETATM   25 CL1  UNL     1      26.749  -1.996  52.256  1.00  0.00    -0.084 Cl
HETATM   26  C18 UNL     1      26.596   0.705  51.966  1.00  0.00     0.052 A 
ENDBRANCH  18  20
ENDBRANCH  17  18
ENDBRANCH  11  17
BRANCH  15  27
HETATM   27  O1  UNL     1      24.440   6.692  52.136  1.00  0.00    -0.284 OA
HETATM   28  H26 UNL     1      23.845   7.462  52.063  1.00  0.00     0.245 HD
ENDBRANCH  15  27
BRANCH  16  29
HETATM   29  O2  UNL     1      22.003   3.250  46.284  1.00  0.00    -0.312 OA
HETATM   30  H27 UNL     1      21.566   2.442  45.927  1.00  0.00     0.237 HD
ENDBRANCH  16  29
TORSDOF 5
ENDMDL
MODEL 3
REMARK VINA RESULT:      -7.7      3.497      5.444
REMARK  5 active torsions:
REMARK  status: ('A' for Active; 'I' for Inactive)
REMARK    1  A    between atoms: C11_11  and  C12_12 
REMARK    2  A    between atoms: C12_12  and  N1_13 
REMARK    3  A    between atoms: N1_13  and  C13_14 
REMARK    4  A    between atoms: N3_24  and  O1_25 
REMARK    5  A    between atoms: N4_26  and  O2_27 
ROOT
HETATM    1  C1  UNL     1      21.811  -0.750  54.842  1.00  0.00     0.034 C 
HETATM    2  C2  UNL     1      22.161  -0.430  53.388  1.00  0.00     0.032 C 
HETATM    3  C3  UNL     1      22.378  -1.767  52.736  1.00  0.00     0.034 C 
HETATM    4  C4  UNL     1      23.434   0.382  53.465  1.00  0.00     0.036 C 
HETATM    5  C5  UNL     1      23.838   0.972  52.156  1.00  0.00     0.047 C 
HETATM    6  C6  UNL     1      22.714   1.111  51.185  1.00  0.00     0.037 C 
HETATM    7  C7  UNL     1      21.370   1.282  51.847  1.00  0.00     0.039 C 
HETATM    8  C8  UNL     1      20.332   1.103  50.755  1.00  0.00     0.035 C 
HETATM    9  C9  UNL     1      21.357   2.673  52.441  1.00  0.00     0.054 C 
HETATM   10  C10 UNL     1      22.402   3.564  51.866  1.00  0.00    -0.016 C 
HETATM   11  C11 UNL     1      23.744   3.453  51.829  1.00  0.00    -0.013 C 
HETATM   12  C19 UNL     1      24.481   2.317  52.418  1.00  0.00     0.182 A 
HETATM   13  N2  UNL     1      24.820   2.566  53.803  1.00  0.00    -0.243 NA
HETATM   14  C20 UNL     1      26.076   2.554  53.577  1.00  0.00     0.233 A 
HETATM   15  N3  UNL     1      25.892   2.307  52.187  1.00  0.00    -0.218 N 
HETATM   16  N4  UNL     1      21.085   0.335  52.867  1.00  0.00    -0.181 NA
ENDROOT
BRANCH  11  17
HETATM   17  C12 UNL     1      24.518   4.534  51.159  1.00  0.00     0.158 C 
BRANCH  17  18
HETATM   18  N1  UNL     1      24.844   4.206  49.782  1.00  0.00    -0.386 N 
HETATM   19  H20 UNL     1      24.387   3.483  49.185  1.00  0.00     0.160 HD
BRANCH  18  20
HETATM   20  C13 UNL     1      25.892   4.944  49.184  1.00  0.00     0.029 A 
HETATM   21  C14 UNL     1      27.176   4.456  49.031  1.00  0.00     0.029 A 
HETATM   22  C15 UNL     1      28.219   5.129  48.460  1.00  0.00     0.004 A 
HETATM   23  C16 UNL     1      27.973   6.395  48.001  1.00  0.00     0.024 A 
HETATM   24  C17 UNL     1      26.724   6.981  48.104  1.00  0.00     0.036 A 
HETATM   25 CL1  UNL     1      26.407   8.591  47.520  1.00  0.00    -0.084 Cl
HETATM   26  C18 UNL     1      25.744   6.225  48.691  1.00  0.00     0.052 A 
ENDBRANCH  18  20
ENDBRANCH  17  18
ENDBRANCH  11  17
BRANCH  15  27
HETATM   27  O1  UNL     1      27.142   2.238  51.626  1.00  0.00    -0.284 OA
HETATM   28  H26 UNL     1      27.259   1.362  51.212  1.00  0.00     0.245 HD
ENDBRANCH  15  27
BRANCH  16  29
HETATM   29  O2  UNL     1      20.407   0.953  53.867  1.00  0.00    -0.312 OA
HETATM   30  H27 UNL     1      20.530   0.506  54.736  1.00  0.00     0.237 HD
ENDBRANCH  16  29
TORSDOF 5
ENDMDL
MODEL 4
REMARK VINA RESULT:      -7.7      1.880      3.940
REMARK  5 active torsions:
REMARK  status: ('A' for Active; 'I' for Inactive)
REMARK    1  A    between atoms: C11_11  and  C12_12 
REMARK    2  A    between atoms: C12_12  and  N1_13 
REMARK    3  A    between atoms: N1_13  and  C13_14 
REMARK    4  A    between atoms: N3_24  and  O1_25 
REMARK    5  A    between atoms: N4_26  and  O2_27 
ROOT
HETATM    1  C1  UNL     1      20.560   6.848  49.995  1.00  0.00     0.034 C 
HETATM    2  C2  UNL     1      21.611   5.791  49.651  1.00  0.00     0.032 C 
HETATM    3  C3  UNL     1      21.580   5.684  48.151  1.00  0.00     0.034 C 
HETATM    4  C4  UNL     1      21.124   4.528  50.324  1.00  0.00     0.036 C 
HETATM    5  C5  UNL     1      22.118   3.416  50.280  1.00  0.00     0.047 C 
HETATM    6  C6  UNL     1      23.524   3.872  50.084  1.00  0.00     0.037 C 
HETATM    7  C7  UNL     1      23.783   5.260  50.615  1.00  0.00     0.039 C 
HETATM    8  C8  UNL     1      25.137   5.677  50.073  1.00  0.00     0.035 C 
HETATM    9  C9  UNL     1      23.767   5.152  52.123  1.00  0.00     0.054 C 
HETATM   10  C10 UNL     1      23.937   3.757  52.612  1.00  0.00    -0.016 C 
HETATM   11  C11 UNL     1      23.210   2.643  52.397  1.00  0.00    -0.013 C 
HETATM   12  C19 UNL     1      21.994   2.617  51.561  1.00  0.00     0.182 A 
HETATM   13  N2  UNL     1      20.808   2.903  52.339  1.00  0.00    -0.243 NA
HETATM   14  C20 UNL     1      20.307   1.746  52.141  1.00  0.00     0.233 A 
HETATM   15  N3  UNL     1      21.414   1.327  51.351  1.00  0.00    -0.218 N 
HETATM   16  N4  UNL     1      22.838   6.238  50.205  1.00  0.00    -0.181 NA
ENDROOT
BRANCH  11  17
HETATM   17  C12 UNL     1      23.662   1.377  53.038  1.00  0.00     0.158 C 
BRANCH  17  18
HETATM   18  N1  UNL     1      24.494   0.579  52.156  1.00  0.00    -0.386 N 
HETATM   19  H20 UNL     1      24.214   0.152  51.246  1.00  0.00     0.160 HD
BRANCH  18  20
HETATM   20  C13 UNL     1      25.827   0.353  52.572  1.00  0.00     0.029 A 
HETATM   21  C14 UNL     1      26.401  -0.902  52.642  1.00  0.00     0.029 A 
HETATM   22  C15 UNL     1      27.682  -1.168  53.035  1.00  0.00     0.004 A 
HETATM   23  C16 UNL     1      28.464  -0.103  53.392  1.00  0.00     0.024 A 
HETATM   24  C17 UNL     1      27.990   1.196  53.359  1.00  0.00     0.036 A 
HETATM   25 CL1  UNL     1      28.982   2.555  53.811  1.00  0.00    -0.084 Cl
HETATM   26  C18 UNL     1      26.694   1.360  52.950  1.00  0.00     0.052 A 
ENDBRANCH  18  20
ENDBRANCH  17  18
ENDBRANCH  11  17
BRANCH  15  27
HETATM   27  O1  UNL     1      21.159   0.037  50.960  1.00  0.00    -0.284 OA
HETATM   28  H26 UNL     1      20.476  -0.344  51.542  1.00  0.00     0.245 HD
ENDBRANCH  15  27
BRANCH  16  29
HETATM   29  O2  UNL     1      22.617   7.097  51.233  1.00  0.00    -0.312 OA
HETATM   30  H27 UNL     1      23.363   7.728  51.361  1.00  0.00     0.237 HD
ENDBRANCH  16  29
TORSDOF 5
ENDMDL
MODEL 5
REMARK VINA RESULT:      -7.6      3.043      3.997
REMARK  5 active torsions:
REMARK  status: ('A' for Active; 'I' for Inactive)
REMARK    1  A    between atoms: C11_11  and  C12_12 
REMARK    2  A    between atoms: C12_12  and  N1_13 
REMARK    3  A    between atoms: N1_13  and  C13_14 
REMARK    4  A    between atoms: N3_24  and  O1_25 
REMARK    5  A    between atoms: N4_26  and  O2_27 
ROOT
HETATM    1  C1  UNL     1      22.271   5.950  45.432  1.00  0.00     0.034 C 
HETATM    2  C2  UNL     1      21.690   5.644  46.813  1.00  0.00     0.032 C 
HETATM    3  C3  UNL     1      20.535   6.594  46.970  1.00  0.00     0.034 C 
HETATM    4  C4  UNL     1      22.812   5.943  47.781  1.00  0.00     0.036 C 
HETATM    5  C5  UNL     1      22.516   5.514  49.179  1.00  0.00     0.047 C 
HETATM    6  C6  UNL     1      21.478   4.449  49.275  1.00  0.00     0.037 C 
HETATM    7  C7  UNL     1      21.410   3.566  48.054  1.00  0.00     0.039 C 
HETATM    8  C8  UNL     1      20.134   2.757  48.183  1.00  0.00     0.035 C 
HETATM    9  C9  UNL     1      22.652   2.703  48.078  1.00  0.00     0.054 C 
HETATM   10  C10 UNL     1      23.302   2.653  49.416  1.00  0.00    -0.016 C 
HETATM   11  C11 UNL     1      23.808   3.627  50.198  1.00  0.00    -0.013 C 
HETATM   12  C19 UNL     1      23.809   5.054  49.818  1.00  0.00     0.182 A 
HETATM   13  N2  UNL     1      25.006   5.406  49.085  1.00  0.00    -0.243 NA
HETATM   14  C20 UNL     1      25.413   6.211  49.988  1.00  0.00     0.233 A 
HETATM   15  N3  UNL     1      24.283   5.960  50.816  1.00  0.00    -0.218 N 
HETATM   16  N4  UNL     1      21.351   4.266  46.818  1.00  0.00    -0.181 NA
ENDROOT
BRANCH  11  17
HETATM   17  C12 UNL     1      24.394   3.238  51.510  1.00  0.00     0.158 C 
BRANCH  17  18
HETATM   18  N1  UNL     1      23.379   3.023  52.525  1.00  0.00    -0.386 N 
HETATM   19  H20 UNL     1      22.840   3.755  53.038  1.00  0.00     0.160 HD
BRANCH  18  20
HETATM   20  C13 UNL     1      23.086   1.679  52.858  1.00  0.00     0.029 A 
HETATM   21  C14 UNL     1      24.057   0.728  53.110  1.00  0.00     0.029 A 
HETATM   22  C15 UNL     1      23.823  -0.578  53.434  1.00  0.00     0.004 A 
HETATM   23  C16 UNL     1      22.518  -0.981  53.517  1.00  0.00     0.024 A 
HETATM   24  C17 UNL     1      21.467  -0.111  53.284  1.00  0.00     0.036 A 
HETATM   25 CL1  UNL     1      19.804  -0.619  53.390  1.00  0.00    -0.084 Cl
HETATM   26  C18 UNL     1      21.804   1.177  52.966  1.00  0.00     0.052 A 
ENDBRANCH  18  20
ENDBRANCH  17  18
ENDBRANCH  11  17
BRANCH  15  27
HETATM   27  O1  UNL     1      24.436   6.729  51.943  1.00  0.00    -0.284 OA
HETATM   28  H26 UNL     1      23.694   7.360  52.002  1.00  0.00     0.245 HD
ENDBRANCH  15  27
BRANCH  16  29
HETATM   29  O2  UNL     1      22.076   3.589  45.892  1.00  0.00    -0.312 OA
HETATM   30  H27 UNL     1      22.328   2.687  46.199  1.00  0.00     0.237 HD
ENDBRANCH  16  29
TORSDOF 5
ENDMDL
MODEL 6
REMARK VINA RESULT:      -7.5      1.652      2.132
REMARK  5 active torsions:
REMARK  status: ('A' for Active; 'I' for Inactive)
REMARK    1  A    between atoms: C11_11  and  C12_12 
REMARK    2  A    between atoms: C12_12  and  N1_13 
REMARK    3  A    between atoms: N1_13  and  C13_14 
REMARK    4  A    between atoms: N3_24  and  O1_25 
REMARK    5  A    between atoms: N4_26  and  O2_27 
ROOT
HETATM    1  C1  UNL     1      17.708   3.525  49.184  1.00  0.00     0.034 C 
HETATM    2  C2  UNL     1      18.546   3.215  50.426  1.00  0.00     0.032 C 
HETATM    3  C3  UNL     1      17.658   3.558  51.590  1.00  0.00     0.034 C 
HETATM    4  C4  UNL     1      19.740   4.136  50.327  1.00  0.00     0.036 C 
HETATM    5  C5  UNL     1      20.793   3.850  51.345  1.00  0.00     0.047 C 
HETATM    6  C6  UNL     1      20.742   2.462  51.889  1.00  0.00     0.037 C 
HETATM    7  C7  UNL     1      20.160   1.461  50.923  1.00  0.00     0.039 C 
HETATM    8  C8  UNL     1      19.903   0.198  51.722  1.00  0.00     0.035 C 
HETATM    9  C9  UNL     1      21.193   1.263  49.835  1.00  0.00     0.054 C 
HETATM   10  C10 UNL     1      22.552   1.723  50.229  1.00  0.00    -0.016 C 
HETATM   11  C11 UNL     1      23.006   2.931  50.617  1.00  0.00    -0.013 C 
HETATM   12  C19 UNL     1      22.144   4.126  50.721  1.00  0.00     0.182 A 
HETATM   13  N2  UNL     1      22.097   4.855  49.473  1.00  0.00    -0.243 NA
HETATM   14  C20 UNL     1      22.656   5.890  49.968  1.00  0.00     0.233 A 
HETATM   15  N3  UNL     1      22.769   5.295  51.257  1.00  0.00    -0.218 N 
HETATM   16  N4  UNL     1      18.928   1.852  50.332  1.00  0.00    -0.181 NA
ENDROOT
BRANCH  11  17
HETATM   17  C12 UNL     1      24.450   3.061  50.957  1.00  0.00     0.158 C 
BRANCH  17  18
HETATM   18  N1  UNL     1      24.674   3.133  52.390  1.00  0.00    -0.386 N 
HETATM   19  H20 UNL     1      24.612   3.983  52.993  1.00  0.00     0.160 HD
BRANCH  18  20
HETATM   20  C13 UNL     1      25.014   1.925  53.042  1.00  0.00     0.029 A 
HETATM   21  C14 UNL     1      24.137   0.867  53.192  1.00  0.00     0.029 A 
HETATM   22  C15 UNL     1      24.420  -0.317  53.811  1.00  0.00     0.004 A 
HETATM   23  C16 UNL     1      25.678  -0.471  54.329  1.00  0.00     0.024 A 
HETATM   24  C17 UNL     1      26.634   0.525  54.236  1.00  0.00     0.036 A 
HETATM   25 CL1  UNL     1      28.236   0.334  54.892  1.00  0.00    -0.084 Cl
HETATM   26  C18 UNL     1      26.255   1.674  53.596  1.00  0.00     0.052 A 
ENDBRANCH  18  20
ENDBRANCH  17  18
ENDBRANCH  11  17
BRANCH  15  27
HETATM   27  O1  UNL     1      23.372   6.219  52.072  1.00  0.00    -0.284 OA
HETATM   28  H26 UNL     1      23.822   6.887  51.520  1.00  0.00     0.245 HD
ENDBRANCH  15  27
BRANCH  16  29
HETATM   29  O2  UNL     1      18.905   1.434  49.041  1.00  0.00    -0.312 OA
HETATM   30  H27 UNL     1      18.513   2.107  48.436  1.00  0.00     0.237 HD
ENDBRANCH  16  29
TORSDOF 5
ENDMDL
MODEL 7
REMARK VINA RESULT:      -7.5      3.686      4.642
REMARK  5 active torsions:
REMARK  status: ('A' for Active; 'I' for Inactive)
REMARK    1  A    between atoms: C11_11  and  C12_12 
REMARK    2  A    between atoms: C12_12  and  N1_13 
REMARK    3  A    between atoms: N1_13  and  C13_14 
REMARK    4  A    between atoms: N3_24  and  O1_25 
REMARK    5  A    between atoms: N4_26  and  O2_27 
ROOT
HETATM    1  C1  UNL     1      18.771   4.169  49.239  1.00  0.00     0.034 C 
HETATM    2  C2  UNL     1      19.751   3.691  50.312  1.00  0.00     0.032 C 
HETATM    3  C3  UNL     1      18.942   3.624  51.577  1.00  0.00     0.034 C 
HETATM    4  C4  UNL     1      20.815   4.763  50.370  1.00  0.00     0.036 C 
HETATM    5  C5  UNL     1      21.984   4.389  51.218  1.00  0.00     0.047 C 
HETATM    6  C6  UNL     1      22.147   2.919  51.405  1.00  0.00     0.037 C 
HETATM    7  C7  UNL     1      21.599   2.105  50.259  1.00  0.00     0.039 C 
HETATM    8  C8  UNL     1      21.566   0.666  50.737  1.00  0.00     0.035 C 
HETATM    9  C9  UNL     1      22.543   2.313  49.096  1.00  0.00     0.054 C 
HETATM   10  C10 UNL     1      23.869   2.847  49.507  1.00  0.00    -0.016 C 
HETATM   11  C11 UNL     1      24.212   3.979  50.152  1.00  0.00    -0.013 C 
HETATM   12  C19 UNL     1      23.230   4.986  50.601  1.00  0.00     0.182 A 
HETATM   13  N2  UNL     1      22.982   5.978  49.576  1.00  0.00    -0.243 NA
HETATM   14  C20 UNL     1      23.460   6.931  50.277  1.00  0.00     0.233 A 
HETATM   15  N3  UNL     1      23.761   6.069  51.369  1.00  0.00    -0.218 N 
HETATM   16  N4  UNL     1      20.280   2.454  49.861  1.00  0.00    -0.181 NA
ENDROOT
BRANCH  11  17
HETATM   17  C12 UNL     1      25.656   4.220  50.424  1.00  0.00     0.158 C 
BRANCH  17  18
HETATM   18  N1  UNL     1      26.482   3.999  49.251  1.00  0.00    -0.386 N 
HETATM   19  H20 UNL     1      26.637   3.095  48.753  1.00  0.00     0.160 HD
BRANCH  18  20
HETATM   20  C13 UNL     1      27.151   5.129  48.723  1.00  0.00     0.029 A 
HETATM   21  C14 UNL     1      28.494   5.136  48.396  1.00  0.00     0.029 A 
HETATM   22  C15 UNL     1      29.181   6.199  47.885  1.00  0.00     0.004 A 
HETATM   23  C16 UNL     1      28.482   7.358  47.677  1.00  0.00     0.024 A 
HETATM   24  C17 UNL     1      27.134   7.461  47.969  1.00  0.00     0.036 A 
HETATM   25 CL1  UNL     1      26.240   8.933  47.706  1.00  0.00    -0.084 Cl
HETATM   26  C18 UNL     1      26.534   6.340  48.478  1.00  0.00     0.052 A 
ENDBRANCH  18  20
ENDBRANCH  17  18
ENDBRANCH  11  17
BRANCH  15  27
HETATM   27  O1  UNL     1      24.325   6.847  52.348  1.00  0.00    -0.284 OA
HETATM   28  H26 UNL     1      23.796   7.660  52.454  1.00  0.00     0.245 HD
ENDBRANCH  15  27
BRANCH  16  29
HETATM   29  O2  UNL     1      20.186   2.355  48.510  1.00  0.00    -0.312 OA
HETATM   30  H27 UNL     1      20.949   2.774  48.050  1.00  0.00     0.237 HD
ENDBRANCH  16  29
TORSDOF 5
ENDMDL
MODEL 8
REMARK VINA RESULT:      -7.5      2.372      5.243
REMARK  5 active torsions:
REMARK  status: ('A' for Active; 'I' for Inactive)
REMARK    1  A    between atoms: C11_11  and  C12_12 
REMARK    2  A    between atoms: C12_12  and  N1_13 
REMARK    3  A    between atoms: N1_13  and  C13_14 
REMARK    4  A    between atoms: N3_24  and  O1_25 
REMARK    5  A    between atoms: N4_26  and  O2_27 
ROOT
HETATM    1  C1  UNL     1      25.211   5.987  49.323  1.00  0.00     0.034 C 
HETATM    2  C2  UNL     1      24.988   4.574  49.865  1.00  0.00     0.032 C 
HETATM    3  C3  UNL     1      26.145   3.769  49.344  1.00  0.00     0.034 C 
HETATM    4  C4  UNL     1      23.670   4.135  49.269  1.00  0.00     0.036 C 
HETATM    5  C5  UNL     1      23.164   2.851  49.837  1.00  0.00     0.047 C 
HETATM    6  C6  UNL     1      23.720   2.527  51.183  1.00  0.00     0.037 C 
HETATM    7  C7  UNL     1      24.107   3.748  51.980  1.00  0.00     0.039 C 
HETATM    8  C8  UNL     1      24.917   3.246  53.161  1.00  0.00     0.035 C 
HETATM    9  C9  UNL     1      22.815   4.413  52.400  1.00  0.00     0.054 C 
HETATM   10  C10 UNL     1      21.635   3.512  52.305  1.00  0.00    -0.016 C 
HETATM   11  C11 UNL     1      21.103   2.849  51.259  1.00  0.00    -0.013 C 
HETATM   12  C19 UNL     1      21.653   2.917  49.891  1.00  0.00     0.182 A 
HETATM   13  N2  UNL     1      21.068   4.006  49.138  1.00  0.00    -0.243 NA
HETATM   14  C20 UNL     1      20.520   3.226  48.290  1.00  0.00     0.233 A 
HETATM   15  N3  UNL     1      21.030   2.062  48.930  1.00  0.00    -0.218 N 
HETATM   16  N4  UNL     1      24.910   4.686  51.278  1.00  0.00    -0.181 NA
ENDROOT
BRANCH  11  17
HETATM   17  C12 UNL     1      19.900   2.006  51.503  1.00  0.00     0.158 C 
BRANCH  17  18
HETATM   18  N1  UNL     1      20.212   0.588  51.504  1.00  0.00    -0.386 N 
HETATM   19  H20 UNL     1      19.908  -0.121  50.801  1.00  0.00     0.160 HD
BRANCH  18  20
HETATM   20  C13 UNL     1      21.011   0.113  52.570  1.00  0.00     0.029 A 
HETATM   21  C14 UNL     1      20.518  -0.142  53.836  1.00  0.00     0.029 A 
HETATM   22  C15 UNL     1      21.249  -0.601  54.895  1.00  0.00     0.004 A 
HETATM   23  C16 UNL     1      22.583  -0.827  54.686  1.00  0.00     0.024 A 
HETATM   24  C17 UNL     1      23.180  -0.605  53.458  1.00  0.00     0.036 A 
HETATM   25 CL1  UNL     1      24.876  -0.893  53.188  1.00  0.00    -0.084 Cl
HETATM   26  C18 UNL     1      22.363  -0.146  52.460  1.00  0.00     0.052 A 
ENDBRANCH  18  20
ENDBRANCH  17  18
ENDBRANCH  11  17
BRANCH  15  27
HETATM   27  O1  UNL     1      20.585   0.982  48.208  1.00  0.00    -0.284 OA
HETATM   28  H26 UNL     1      19.760   1.224  47.747  1.00  0.00     0.245 HD
ENDBRANCH  15  27
BRANCH  16  29
HETATM   29  O2  UNL     1      24.543   5.941  51.641  1.00  0.00    -0.312 OA
HETATM   30  H27 UNL     1      23.672   5.958  52.102  1.00  0.00     0.237 HD
ENDBRANCH  16  29
TORSDOF 5
ENDMDL
MODEL 9
REMARK VINA RESULT:      -7.5      2.888      5.352
REMARK  5 active torsions:
REMARK  status: ('A' for Active; 'I' for Inactive)
REMARK    1  A    between atoms: C11_11  and  C12_12 
REMARK    2  A    between atoms: C12_12  and  N1_13 
REMARK    3  A    between atoms: N1_13  and  C13_14 
REMARK    4  A    between atoms: N3_24  and  O1_25 
REMARK    5  A    between atoms: N4_26  and  O2_27 
ROOT
HETATM    1  C1  UNL     1      24.010   8.174  50.031  1.00  0.00     0.034 C 
HETATM    2  C2  UNL     1      24.131   6.855  49.267  1.00  0.00     0.032 C 
HETATM    3  C3  UNL     1      24.313   7.252  47.829  1.00  0.00     0.034 C 
HETATM    4  C4  UNL     1      22.815   6.149  49.504  1.00  0.00     0.036 C 
HETATM    5  C5  UNL     1      22.802   4.742  49.008  1.00  0.00     0.047 C 
HETATM    6  C6  UNL     1      24.159   4.139  48.872  1.00  0.00     0.037 C 
HETATM    7  C7  UNL     1      25.173   4.725  49.823  1.00  0.00     0.039 C 
HETATM    8  C8  UNL     1      26.530   4.234  49.355  1.00  0.00     0.035 C 
HETATM    9  C9  UNL     1      24.812   4.215  51.201  1.00  0.00     0.054 C 
HETATM   10  C10 UNL     1      23.918   3.026  51.170  1.00  0.00    -0.016 C 
HETATM   11  C11 UNL     1      22.690   2.849  50.643  1.00  0.00    -0.013 C 
HETATM   12  C19 UNL     1      21.946   3.915  49.943  1.00  0.00     0.182 A 
HETATM   13  N2  UNL     1      21.135   4.686  50.861  1.00  0.00    -0.243 NA
HETATM   14  C20 UNL     1      20.039   4.321  50.319  1.00  0.00     0.233 A 
HETATM   15  N3  UNL     1      20.707   3.519  49.351  1.00  0.00    -0.218 N 
HETATM   16  N4  UNL     1      25.215   6.145  49.846  1.00  0.00    -0.181 NA
ENDROOT
BRANCH  11  17
HETATM   17  C12 UNL     1      22.057   1.508  50.777  1.00  0.00     0.158 C 
BRANCH  17  18
HETATM   18  N1  UNL     1      21.240   1.402  51.972  1.00  0.00    -0.386 N 
HETATM   19  H20 UNL     1      20.411   1.985  52.220  1.00  0.00     0.160 HD
BRANCH  18  20
HETATM   20  C13 UNL     1      21.605   0.402  52.905  1.00  0.00     0.029 A 
HETATM   21  C14 UNL     1      20.706  -0.496  53.449  1.00  0.00     0.029 A 
HETATM   22  C15 UNL     1      21.011  -1.477  54.350  1.00  0.00     0.004 A 
HETATM   23  C16 UNL     1      22.316  -1.580  54.749  1.00  0.00     0.024 A 
HETATM   24  C17 UNL     1      23.298  -0.732  54.268  1.00  0.00     0.036 A 
HETATM   25 CL1  UNL     1      24.960  -0.859  54.772  1.00  0.00    -0.084 Cl
HETATM   26  C18 UNL     1      22.893   0.218  53.368  1.00  0.00     0.052 A 
ENDBRANCH  18  20
ENDBRANCH  17  18
ENDBRANCH  11  17
BRANCH  15  27
HETATM   27  O1  UNL     1      19.736   2.953  48.563  1.00  0.00    -0.284 OA
HETATM   28  H26 UNL     1      19.882   1.989  48.520  1.00  0.00     0.245 HD
ENDBRANCH  15  27
BRANCH  16  29
HETATM   29  O2  UNL     1      25.437   6.560  51.118  1.00  0.00    -0.312 OA
HETATM   30  H27 UNL     1      24.651   6.429  51.698  1.00  0.00     0.237 HD
ENDBRANCH  16  29
TORSDOF 5
ENDMDL
