MODEL 1
REMARK VINA RESULT:      -8.7      0.000      0.000
REMARK  9 active torsions:
REMARK  status: ('A' for Active; 'I' for Inactive)
REMARK    1  A    between atoms: C7_8  and  O1_9 
REMARK    2  A    between atoms: O1_9  and  C8_10 
REMARK    3  A    between atoms: C11_13  and  C12_14 
REMARK    4  A    between atoms: C13_15  and  C14_16 
REMARK       I    between atoms: C14_16  and  N1_18 
REMARK    5  A    between atoms: N1_18  and  C15_19 
REMARK    6  A    between atoms: C15_19  and  C16_20 
REMARK    7  A    between atoms: C16_20  and  N2_21 
REMARK    8  A    between atoms: C21_27  and  C22_28 
REMARK    9  A    between atoms: C22_28  and  N3_29 
ROOT
HETATM    1  C8  UNL     1      30.776   6.435  47.134  1.00  0.00     0.166 C 
HETATM    2  C9  UNL     1      30.132   5.429  47.748  1.00  0.00     0.059 C 
HETATM    3  C10 UNL     1      28.773   5.162  48.270  1.00  0.00     0.018 C 
HETATM    4  C11 UNL     1      27.755   5.938  48.606  1.00  0.00    -0.009 C 
HETATM    5  C21 UNL     1      27.560   7.378  48.597  1.00  0.00     0.073 C 
HETATM    6  N4  UNL     1      28.173   8.345  47.982  1.00  0.00    -0.244 NA
HETATM    7  C23 UNL     1      29.249   8.435  47.090  1.00  0.00     0.236 C 
HETATM    8  N5  UNL     1      30.250   7.699  46.764  1.00  0.00    -0.218 NA
ENDROOT
BRANCH   4   9
HETATM    9  C12 UNL     1      26.587   5.260  49.079  1.00  0.00     0.019 C 
HETATM   10  C13 UNL     1      26.126   4.134  49.526  1.00  0.00     0.075 C 
BRANCH  10  11
HETATM   11  C14 UNL     1      24.921   3.475  50.001  1.00  0.00     0.241 C 
HETATM   12  O2  UNL     1      23.844   3.642  49.378  1.00  0.00    -0.269 OA
HETATM   13  N1  UNL     1      24.834   2.631  51.138  1.00  0.00    -0.356 N 
HETATM   14  H13 UNL     1      25.753   2.498  51.659  1.00  0.00     0.162 HD
BRANCH  13  15
HETATM   15  C15 UNL     1      23.632   1.977  51.608  1.00  0.00     0.142 C 
BRANCH  15  16
HETATM   16  C16 UNL     1      23.812   1.338  52.950  1.00  0.00     0.136 C 
BRANCH  16  17
HETATM   17  N2  UNL     1      25.051   0.689  53.176  1.00  0.00    -0.407 N 
HETATM   18  C17 UNL     1      25.005  -0.728  53.316  1.00  0.00     0.143 C 
HETATM   19  C18 UNL     1      24.938  -1.004  54.825  1.00  0.00     0.187 C 
HETATM   20  O3  UNL     1      25.949  -0.389  55.525  1.00  0.00    -0.388 OA
HETATM   21  C19 UNL     1      26.822   0.344  54.743  1.00  0.00     0.187 C 
HETATM   22  C20 UNL     1      25.999   1.373  53.993  1.00  0.00     0.143 C 
ENDBRANCH  16  17
ENDBRANCH  15  16
ENDBRANCH  13  15
ENDBRANCH  10  11
ENDBRANCH   4   9
BRANCH   5  23
HETATM   23  C22 UNL     1      26.441   7.905  49.443  1.00  0.00     0.326 C 
BRANCH  23  24
HETATM   24  N3  UNL     1      27.000   8.557  50.591  1.00  0.00     0.083 N 
HETATM   25  H28 UNL     1      26.281   8.692  51.338  1.00  0.00     0.313 HD
HETATM   26  H29 UNL     1      27.797   8.051  51.031  1.00  0.00     0.313 HD
ENDBRANCH  23  24
ENDBRANCH   5  23
BRANCH   1  27
HETATM   27  O1  UNL     1      32.069   6.029  46.915  1.00  0.00    -0.321 OA
BRANCH  27  28
HETATM   28  C7  UNL     1      32.493   4.780  47.428  1.00  0.00     0.196 A 
HETATM   29  C2  UNL     1      32.765   3.805  46.306  1.00  0.00     0.147 A 
HETATM   30  C1  UNL     1      31.838   2.639  46.446  1.00  0.00     0.059 C 
HETATM   31  F1  UNL     1      32.455   4.429  45.111  1.00  0.00    -0.236 F 
HETATM   32  C3  UNL     1      34.160   3.368  46.370  1.00  0.00     0.019 A 
HETATM   33  C4  UNL     1      35.203   3.605  47.135  1.00  0.00    -0.001 A 
HETATM   34  C5  UNL     1      34.935   4.547  48.208  1.00  0.00    -0.002 A 
HETATM   35  C6  UNL     1      33.699   5.017  48.259  1.00  0.00     0.009 A 
ENDBRANCH  27  28
ENDBRANCH   1  27
TORSDOF 9
ENDMDL
MODEL 2
REMARK VINA RESULT:      -8.5      6.775     10.297
REMARK  9 active torsions:
REMARK  status: ('A' for Active; 'I' for Inactive)
REMARK    1  A    between atoms: C7_8  and  O1_9 
REMARK    2  A    between atoms: O1_9  and  C8_10 
REMARK    3  A    between atoms: C11_13  and  C12_14 
REMARK    4  A    between atoms: C13_15  and  C14_16 
REMARK       I    between atoms: C14_16  and  N1_18 
REMARK    5  A    between atoms: N1_18  and  C15_19 
REMARK    6  A    between atoms: C15_19  and  C16_20 
REMARK    7  A    between atoms: C16_20  and  N2_21 
REMARK    8  A    between atoms: C21_27  and  C22_28 
REMARK    9  A    between atoms: C22_28  and  N3_29 
ROOT
HETATM    1  C8  UNL     1      24.762   0.068  53.011  1.00  0.00     0.166 C 
HETATM    2  C9  UNL     1      23.688  -0.539  53.544  1.00  0.00     0.059 C 
HETATM    3  C10 UNL     1      22.215  -0.444  53.435  1.00  0.00     0.018 C 
HETATM    4  C11 UNL     1      21.391   0.494  52.998  1.00  0.00    -0.009 C 
HETATM    5  C21 UNL     1      21.602   1.820  52.442  1.00  0.00     0.073 C 
HETATM    6  N4  UNL     1      22.637   2.395  51.907  1.00  0.00    -0.244 NA
HETATM    7  C23 UNL     1      23.958   2.017  51.635  1.00  0.00     0.236 C 
HETATM    8  N5  UNL     1      24.774   1.121  52.061  1.00  0.00    -0.218 NA
ENDROOT
BRANCH   4   9
HETATM    9  C12 UNL     1      19.997   0.177  53.068  1.00  0.00     0.019 C 
HETATM   10  C13 UNL     1      19.117  -0.764  52.920  1.00  0.00     0.075 C 
BRANCH  10  11
HETATM   11  C14 UNL     1      17.695  -1.052  53.000  1.00  0.00     0.241 C 
HETATM   12  O2  UNL     1      17.318  -2.159  53.457  1.00  0.00    -0.269 OA
HETATM   13  N1  UNL     1      16.651  -0.179  52.601  1.00  0.00    -0.356 N 
HETATM   14  H13 UNL     1      16.983   0.756  52.215  1.00  0.00     0.162 HD
BRANCH  13  15
HETATM   15  C15 UNL     1      15.236  -0.470  52.683  1.00  0.00     0.142 C 
BRANCH  15  16
HETATM   16  C16 UNL     1      14.388   0.665  52.200  1.00  0.00     0.136 C 
BRANCH  16  17
HETATM   17  N2  UNL     1      14.047   1.650  53.160  1.00  0.00    -0.407 N 
HETATM   18  C17 UNL     1      12.810   1.466  53.841  1.00  0.00     0.143 C 
HETATM   19  C18 UNL     1      11.774   2.300  53.074  1.00  0.00     0.187 C 
HETATM   20  O3  UNL     1      12.155   3.612  52.918  1.00  0.00    -0.388 OA
HETATM   21  C19 UNL     1      13.380   3.921  53.482  1.00  0.00     0.187 C 
HETATM   22  C20 UNL     1      14.408   2.996  52.861  1.00  0.00     0.143 C 
ENDBRANCH  16  17
ENDBRANCH  15  16
ENDBRANCH  13  15
ENDBRANCH  10  11
ENDBRANCH   4   9
BRANCH   5  23
HETATM   23  C22 UNL     1      20.424   2.746  52.460  1.00  0.00     0.326 C 
BRANCH  23  24
HETATM   24  N3  UNL     1      20.845   4.035  51.995  1.00  0.00     0.083 N 
HETATM   25  H28 UNL     1      21.887   4.092  51.927  1.00  0.00     0.313 HD
HETATM   26  H29 UNL     1      20.470   4.303  51.060  1.00  0.00     0.313 HD
ENDBRANCH  23  24
ENDBRANCH   5  23
BRANCH   1  27
HETATM   27  O1  UNL     1      25.881  -0.512  53.555  1.00  0.00    -0.321 OA
BRANCH  27  28
HETATM   28  C7  UNL     1      27.144  -0.236  52.981  1.00  0.00     0.196 A 
HETATM   29  C2  UNL     1      27.978   0.619  53.906  1.00  0.00     0.147 A 
HETATM   30  C1  UNL     1      28.282   1.915  53.221  1.00  0.00     0.059 C 
HETATM   31  F1  UNL     1      27.211   0.919  55.018  1.00  0.00    -0.236 F 
HETATM   32  C3  UNL     1      29.211  -0.090  54.244  1.00  0.00     0.019 A 
HETATM   33  C4  UNL     1      29.759  -1.250  53.954  1.00  0.00    -0.001 A 
HETATM   34  C5  UNL     1      28.950  -2.069  53.067  1.00  0.00    -0.002 A 
HETATM   35  C6  UNL     1      27.802  -1.533  52.686  1.00  0.00     0.009 A 
ENDBRANCH  27  28
ENDBRANCH   1  27
TORSDOF 9
ENDMDL
MODEL 3
REMARK VINA RESULT:      -8.5      5.507      9.617
REMARK  9 active torsions:
REMARK  status: ('A' for Active; 'I' for Inactive)
REMARK    1  A    between atoms: C7_8  and  O1_9 
REMARK    2  A    between atoms: O1_9  and  C8_10 
REMARK    3  A    between atoms: C11_13  and  C12_14 
REMARK    4  A    between atoms: C13_15  and  C14_16 
REMARK       I    between atoms: C14_16  and  N1_18 
REMARK    5  A    between atoms: N1_18  and  C15_19 
REMARK    6  A    between atoms: C15_19  and  C16_20 
REMARK    7  A    between atoms: C16_20  and  N2_21 
REMARK    8  A    between atoms: C21_27  and  C22_28 
REMARK    9  A    between atoms: C22_28  and  N3_29 
ROOT
HETATM    1  C8  UNL     1      24.716  -0.504  54.230  1.00  0.00     0.166 C 
HETATM    2  C9  UNL     1      24.793   0.556  53.408  1.00  0.00     0.059 C 
HETATM    3  C10 UNL     1      23.862   1.527  52.791  1.00  0.00     0.018 C 
HETATM    4  C11 UNL     1      22.557   1.528  52.571  1.00  0.00    -0.009 C 
HETATM    5  C21 UNL     1      21.503   0.567  52.850  1.00  0.00     0.073 C 
HETATM    6  N4  UNL     1      21.426  -0.443  53.664  1.00  0.00    -0.244 NA
HETATM    7  C23 UNL     1      22.284  -1.038  54.598  1.00  0.00     0.236 C 
HETATM    8  N5  UNL     1      23.550  -1.060  54.815  1.00  0.00    -0.218 NA
ENDROOT
BRANCH   4   9
HETATM    9  C12 UNL     1      22.037   2.697  51.931  1.00  0.00     0.019 C 
HETATM   10  C13 UNL     1      21.933   3.987  52.006  1.00  0.00     0.075 C 
BRANCH  10  11
HETATM   11  C14 UNL     1      21.391   5.153  51.329  1.00  0.00     0.241 C 
HETATM   12  O2  UNL     1      20.332   5.041  50.665  1.00  0.00    -0.269 OA
HETATM   13  N1  UNL     1      21.957   6.454  51.343  1.00  0.00    -0.356 N 
HETATM   14  H13 UNL     1      22.855   6.537  51.909  1.00  0.00     0.162 HD
BRANCH  13  15
HETATM   15  C15 UNL     1      21.414   7.613  50.668  1.00  0.00     0.142 C 
BRANCH  15  16
HETATM   16  C16 UNL     1      22.385   8.227  49.709  1.00  0.00     0.136 C 
BRANCH  16  17
HETATM   17  N2  UNL     1      23.673   7.639  49.655  1.00  0.00    -0.407 N 
HETATM   18  C17 UNL     1      24.740   8.402  50.209  1.00  0.00     0.143 C 
HETATM   19  C18 UNL     1      25.376   9.159  49.036  1.00  0.00     0.187 C 
HETATM   20  O3  UNL     1      25.740   8.331  48.000  1.00  0.00    -0.388 OA
HETATM   21  C19 UNL     1      25.469   6.992  48.218  1.00  0.00     0.187 C 
HETATM   22  C20 UNL     1      23.983   6.872  48.494  1.00  0.00     0.143 C 
ENDBRANCH  16  17
ENDBRANCH  15  16
ENDBRANCH  13  15
ENDBRANCH  10  11
ENDBRANCH   4   9
BRANCH   5  23
HETATM   23  C22 UNL     1      20.229   0.731  52.078  1.00  0.00     0.326 C 
BRANCH  23  24
HETATM   24  N3  UNL     1      19.259  -0.191  52.591  1.00  0.00     0.083 N 
HETATM   25  H28 UNL     1      19.705  -0.905  53.212  1.00  0.00     0.313 HD
HETATM   26  H29 UNL     1      18.492   0.248  53.144  1.00  0.00     0.313 HD
ENDBRANCH  23  24
ENDBRANCH   5  23
BRANCH   1  27
HETATM   27  O1  UNL     1      25.991  -0.979  54.417  1.00  0.00    -0.321 OA
BRANCH  27  28
HETATM   28  C7  UNL     1      26.966  -0.737  53.422  1.00  0.00     0.196 A 
HETATM   29  C2  UNL     1      28.112   0.074  53.980  1.00  0.00     0.147 A 
HETATM   30  C1  UNL     1      28.194   1.369  53.233  1.00  0.00     0.059 C 
HETATM   31  F1  UNL     1      27.817   0.383  55.296  1.00  0.00    -0.236 F 
HETATM   32  C3  UNL     1      29.356  -0.682  53.841  1.00  0.00     0.019 A 
HETATM   33  C4  UNL     1      29.716  -1.856  53.369  1.00  0.00    -0.001 A 
HETATM   34  C5  UNL     1      28.608  -2.632  52.838  1.00  0.00    -0.002 A 
HETATM   35  C6  UNL     1      27.421  -2.052  52.904  1.00  0.00     0.009 A 
ENDBRANCH  27  28
ENDBRANCH   1  27
TORSDOF 9
ENDMDL
MODEL 4
REMARK VINA RESULT:      -8.3      7.086      9.820
REMARK  9 active torsions:
REMARK  status: ('A' for Active; 'I' for Inactive)
REMARK    1  A    between atoms: C7_8  and  O1_9 
REMARK    2  A    between atoms: O1_9  and  C8_10 
REMARK    3  A    between atoms: C11_13  and  C12_14 
REMARK    4  A    between atoms: C13_15  and  C14_16 
REMARK       I    between atoms: C14_16  and  N1_18 
REMARK    5  A    between atoms: N1_18  and  C15_19 
REMARK    6  A    between atoms: C15_19  and  C16_20 
REMARK    7  A    between atoms: C16_20  and  N2_21 
REMARK    8  A    between atoms: C21_27  and  C22_28 
REMARK    9  A    between atoms: C22_28  and  N3_29 
ROOT
HETATM    1  C8  UNL     1      24.871  -0.628  54.590  1.00  0.00     0.166 C 
HETATM    2  C9  UNL     1      24.716   0.301  53.631  1.00  0.00     0.059 C 
HETATM    3  C10 UNL     1      23.602   1.042  52.999  1.00  0.00     0.018 C 
HETATM    4  C11 UNL     1      22.296   0.839  52.928  1.00  0.00    -0.009 C 
HETATM    5  C21 UNL     1      21.422  -0.201  53.447  1.00  0.00     0.073 C 
HETATM    6  N4  UNL     1      21.569  -1.082  54.391  1.00  0.00    -0.244 NA
HETATM    7  C23 UNL     1      22.586  -1.416  55.294  1.00  0.00     0.236 C 
HETATM    8  N5  UNL     1      23.856  -1.240  55.369  1.00  0.00    -0.218 NA
ENDROOT
BRANCH   4   9
HETATM    9  C12 UNL     1      21.554   1.823  52.201  1.00  0.00     0.019 C 
HETATM   10  C13 UNL     1      21.260   3.084  52.124  1.00  0.00     0.075 C 
BRANCH  10  11
HETATM   11  C14 UNL     1      20.496   4.057  51.364  1.00  0.00     0.241 C 
HETATM   12  O2  UNL     1      21.017   5.165  51.084  1.00  0.00    -0.269 OA
HETATM   13  N1  UNL     1      19.171   3.879  50.887  1.00  0.00    -0.356 N 
HETATM   14  H13 UNL     1      18.740   2.937  51.131  1.00  0.00     0.162 HD
BRANCH  13  15
HETATM   15  C15 UNL     1      18.414   4.851  50.130  1.00  0.00     0.142 C 
BRANCH  15  16
HETATM   16  C16 UNL     1      17.958   4.319  48.807  1.00  0.00     0.136 C 
BRANCH  16  17
HETATM   17  N2  UNL     1      18.864   4.457  47.727  1.00  0.00    -0.407 N 
HETATM   18  C17 UNL     1      19.316   3.249  47.124  1.00  0.00     0.143 C 
HETATM   19  C18 UNL     1      20.653   2.910  47.798  1.00  0.00     0.187 C 
HETATM   20  O3  UNL     1      21.553   3.949  47.748  1.00  0.00    -0.388 OA
HETATM   21  C19 UNL     1      21.085   5.079  47.104  1.00  0.00     0.187 C 
HETATM   22  C20 UNL     1      19.819   5.512  47.816  1.00  0.00     0.143 C 
ENDBRANCH  16  17
ENDBRANCH  15  16
ENDBRANCH  13  15
ENDBRANCH  10  11
ENDBRANCH   4   9
BRANCH   5  23
HETATM   23  C22 UNL     1      20.073  -0.319  52.807  1.00  0.00     0.326 C 
BRANCH  23  24
HETATM   24  N3  UNL     1      19.168  -0.908  53.750  1.00  0.00     0.083 N 
HETATM   25  H28 UNL     1      19.098  -1.943  53.614  1.00  0.00     0.313 HD
HETATM   26  H29 UNL     1      19.421  -0.755  54.749  1.00  0.00     0.313 HD
ENDBRANCH  23  24
ENDBRANCH   5  23
BRANCH   1  27
HETATM   27  O1  UNL     1      26.212  -0.899  54.695  1.00  0.00    -0.321 OA
BRANCH  27  28
HETATM   28  C7  UNL     1      27.053  -0.643  53.587  1.00  0.00     0.196 A 
HETATM   29  C2  UNL     1      28.222   0.225  53.990  1.00  0.00     0.147 A 
HETATM   30  C1  UNL     1      28.163   1.504  53.215  1.00  0.00     0.059 C 
HETATM   31  F1  UNL     1      28.072   0.552  55.326  1.00  0.00    -0.236 F 
HETATM   32  C3  UNL     1      29.471  -0.487  53.719  1.00  0.00     0.019 A 
HETATM   33  C4  UNL     1      29.821  -1.656  53.230  1.00  0.00    -0.001 A 
HETATM   34  C5  UNL     1      28.691  -2.487  52.848  1.00  0.00    -0.002 A 
HETATM   35  C6  UNL     1      27.497  -1.951  53.044  1.00  0.00     0.009 A 
ENDBRANCH  27  28
ENDBRANCH   1  27
TORSDOF 9
ENDMDL
MODEL 5
REMARK VINA RESULT:      -8.3      2.980      9.565
REMARK  9 active torsions:
REMARK  status: ('A' for Active; 'I' for Inactive)
REMARK    1  A    between atoms: C7_8  and  O1_9 
REMARK    2  A    between atoms: O1_9  and  C8_10 
REMARK    3  A    between atoms: C11_13  and  C12_14 
REMARK    4  A    between atoms: C13_15  and  C14_16 
REMARK       I    between atoms: C14_16  and  N1_18 
REMARK    5  A    between atoms: N1_18  and  C15_19 
REMARK    6  A    between atoms: C15_19  and  C16_20 
REMARK    7  A    between atoms: C16_20  and  N2_21 
REMARK    8  A    between atoms: C21_27  and  C22_28 
REMARK    9  A    between atoms: C22_28  and  N3_29 
ROOT
HETATM    1  C8  UNL     1      24.660   3.125  50.788  1.00  0.00     0.166 C 
HETATM    2  C9  UNL     1      25.816   3.098  50.103  1.00  0.00     0.059 C 
HETATM    3  C10 UNL     1      26.710   4.068  49.433  1.00  0.00     0.018 C 
HETATM    4  C11 UNL     1      26.545   5.304  48.987  1.00  0.00    -0.009 C 
HETATM    5  C21 UNL     1      25.411   6.212  48.976  1.00  0.00     0.073 C 
HETATM    6  N4  UNL     1      24.305   6.247  49.657  1.00  0.00    -0.244 NA
HETATM    7  C23 UNL     1      23.729   5.461  50.664  1.00  0.00     0.236 C 
HETATM    8  N5  UNL     1      23.868   4.259  51.098  1.00  0.00    -0.218 NA
ENDROOT
BRANCH   4   9
HETATM    9  C12 UNL     1      27.697   5.904  48.386  1.00  0.00     0.019 C 
HETATM   10  C13 UNL     1      28.984   5.828  48.256  1.00  0.00     0.075 C 
BRANCH  10  11
HETATM   11  C14 UNL     1      30.132   6.462  47.631  1.00  0.00     0.241 C 
HETATM   12  O2  UNL     1      29.946   7.321  46.734  1.00  0.00    -0.269 OA
HETATM   13  N1  UNL     1      31.492   6.203  47.942  1.00  0.00    -0.356 N 
HETATM   14  H13 UNL     1      31.637   5.473  48.703  1.00  0.00     0.162 HD
BRANCH  13  15
HETATM   15  C15 UNL     1      32.631   6.838  47.317  1.00  0.00     0.142 C 
BRANCH  15  16
HETATM   16  C16 UNL     1      33.050   6.152  46.054  1.00  0.00     0.136 C 
BRANCH  16  17
HETATM   17  N2  UNL     1      33.874   5.009  46.201  1.00  0.00    -0.407 N 
HETATM   18  C17 UNL     1      33.375   3.794  45.649  1.00  0.00     0.143 C 
HETATM   19  C18 UNL     1      32.678   3.058  46.802  1.00  0.00     0.187 C 
HETATM   20  O3  UNL     1      33.489   2.899  47.901  1.00  0.00    -0.388 OA
HETATM   21  C19 UNL     1      34.761   3.422  47.753  1.00  0.00     0.187 C 
HETATM   22  C20 UNL     1      34.606   4.893  47.419  1.00  0.00     0.143 C 
ENDBRANCH  16  17
ENDBRANCH  15  16
ENDBRANCH  13  15
ENDBRANCH  10  11
ENDBRANCH   4   9
BRANCH   5  23
HETATM   23  C22 UNL     1      25.482   7.357  48.012  1.00  0.00     0.326 C 
BRANCH  23  24
HETATM   24  N3  UNL     1      24.277   7.380  47.236  1.00  0.00     0.083 N 
HETATM   25  H28 UNL     1      24.087   6.447  46.803  1.00  0.00     0.313 HD
HETATM   26  H29 UNL     1      23.422   7.641  47.770  1.00  0.00     0.313 HD
ENDBRANCH  23  24
ENDBRANCH   5  23
BRANCH   1  27
HETATM   27  O1  UNL     1      24.360   1.835  51.149  1.00  0.00    -0.321 OA
BRANCH  27  28
HETATM   28  C7  UNL     1      23.533   1.613  52.275  1.00  0.00     0.196 A 
HETATM   29  C2  UNL     1      22.183   1.080  51.852  1.00  0.00     0.147 A 
HETATM   30  C1  UNL     1      21.127   2.051  52.276  1.00  0.00     0.059 C 
HETATM   31  F1  UNL     1      22.157   1.030  50.469  1.00  0.00    -0.236 F 
HETATM   32  C3  UNL     1      21.962  -0.228  52.469  1.00  0.00     0.019 A 
HETATM   33  C4  UNL     1      22.623  -1.031  53.273  1.00  0.00    -0.001 A 
HETATM   34  C5  UNL     1      23.921  -0.514  53.672  1.00  0.00    -0.002 A 
HETATM   35  C6  UNL     1      24.240   0.671  53.178  1.00  0.00     0.009 A 
ENDBRANCH  27  28
ENDBRANCH   1  27
TORSDOF 9
ENDMDL
MODEL 6
REMARK VINA RESULT:      -8.1      6.072      8.831
REMARK  9 active torsions:
REMARK  status: ('A' for Active; 'I' for Inactive)
REMARK    1  A    between atoms: C7_8  and  O1_9 
REMARK    2  A    between atoms: O1_9  and  C8_10 
REMARK    3  A    between atoms: C11_13  and  C12_14 
REMARK    4  A    between atoms: C13_15  and  C14_16 
REMARK       I    between atoms: C14_16  and  N1_18 
REMARK    5  A    between atoms: N1_18  and  C15_19 
REMARK    6  A    between atoms: C15_19  and  C16_20 
REMARK    7  A    between atoms: C16_20  and  N2_21 
REMARK    8  A    between atoms: C21_27  and  C22_28 
REMARK    9  A    between atoms: C22_28  and  N3_29 
ROOT
HETATM    1  C8  UNL     1      25.907   2.630  50.871  1.00  0.00     0.166 C 
HETATM    2  C9  UNL     1      24.654   2.258  51.183  1.00  0.00     0.059 C 
HETATM    3  C10 UNL     1      23.282   2.781  50.994  1.00  0.00     0.018 C 
HETATM    4  C11 UNL     1      22.792   3.978  50.712  1.00  0.00    -0.009 C 
HETATM    5  C21 UNL     1      23.408   5.272  50.472  1.00  0.00     0.073 C 
HETATM    6  N4  UNL     1      24.617   5.624  50.148  1.00  0.00    -0.244 NA
HETATM    7  C23 UNL     1      25.818   4.949  49.894  1.00  0.00     0.236 C 
HETATM    8  N5  UNL     1      26.312   3.796  50.173  1.00  0.00    -0.218 NA
ENDROOT
BRANCH   4   9
HETATM    9  C12 UNL     1      21.366   4.056  50.613  1.00  0.00     0.019 C 
HETATM   10  C13 UNL     1      20.246   3.632  51.110  1.00  0.00     0.075 C 
BRANCH  10  11
HETATM   11  C14 UNL     1      18.803   3.735  50.982  1.00  0.00     0.241 C 
HETATM   12  O2  UNL     1      18.311   4.680  50.317  1.00  0.00    -0.269 OA
HETATM   13  N1  UNL     1      17.857   2.845  51.553  1.00  0.00    -0.356 N 
HETATM   14  H13 UNL     1      18.285   2.049  52.115  1.00  0.00     0.162 HD
BRANCH  13  15
HETATM   15  C15 UNL     1      16.420   2.951  51.423  1.00  0.00     0.142 C 
BRANCH  15  16
HETATM   16  C16 UNL     1      15.826   3.928  52.390  1.00  0.00     0.136 C 
BRANCH  16  17
HETATM   17  N2  UNL     1      14.540   3.613  52.893  1.00  0.00    -0.407 N 
HETATM   18  C17 UNL     1      13.586   3.148  51.943  1.00  0.00     0.143 C 
HETATM   19  C18 UNL     1      12.777   4.380  51.515  1.00  0.00     0.187 C 
HETATM   20  O3  UNL     1      12.240   5.062  52.581  1.00  0.00    -0.388 OA
HETATM   21  C19 UNL     1      12.526   4.509  53.815  1.00  0.00     0.187 C 
HETATM   22  C20 UNL     1      14.036   4.440  53.939  1.00  0.00     0.143 C 
ENDBRANCH  16  17
ENDBRANCH  15  16
ENDBRANCH  13  15
ENDBRANCH  10  11
ENDBRANCH   4   9
BRANCH   5  23
HETATM   23  C22 UNL     1      22.519   6.470  50.606  1.00  0.00     0.326 C 
BRANCH  23  24
HETATM   24  N3  UNL     1      23.282   7.549  51.160  1.00  0.00     0.083 N 
HETATM   25  H28 UNL     1      23.910   7.216  51.927  1.00  0.00     0.313 HD
HETATM   26  H29 UNL     1      23.887   8.049  50.475  1.00  0.00     0.313 HD
ENDBRANCH  23  24
ENDBRANCH   5  23
BRANCH   1  27
HETATM   27  O1  UNL     1      26.759   1.668  51.353  1.00  0.00    -0.321 OA
BRANCH  27  28
HETATM   28  C7  UNL     1      26.781   1.406  52.743  1.00  0.00     0.196 A 
HETATM   29  C2  UNL     1      26.842  -0.081  53.007  1.00  0.00     0.147 A 
HETATM   30  C1  UNL     1      25.618  -0.486  53.767  1.00  0.00     0.059 C 
HETATM   31  F1  UNL     1      26.798  -0.734  51.788  1.00  0.00    -0.236 F 
HETATM   32  C3  UNL     1      28.051  -0.389  53.770  1.00  0.00     0.019 A 
HETATM   33  C4  UNL     1      29.067   0.282  54.268  1.00  0.00    -0.001 A 
HETATM   34  C5  UNL     1      29.003   1.710  54.007  1.00  0.00    -0.002 A 
HETATM   35  C6  UNL     1      27.948   2.118  53.321  1.00  0.00     0.009 A 
ENDBRANCH  27  28
ENDBRANCH   1  27
TORSDOF 9
ENDMDL
MODEL 7
REMARK VINA RESULT:      -7.8      3.914      9.229
REMARK  9 active torsions:
REMARK  status: ('A' for Active; 'I' for Inactive)
REMARK    1  A    between atoms: C7_8  and  O1_9 
REMARK    2  A    between atoms: O1_9  and  C8_10 
REMARK    3  A    between atoms: C11_13  and  C12_14 
REMARK    4  A    between atoms: C13_15  and  C14_16 
REMARK       I    between atoms: C14_16  and  N1_18 
REMARK    5  A    between atoms: N1_18  and  C15_19 
REMARK    6  A    between atoms: C15_19  and  C16_20 
REMARK    7  A    between atoms: C16_20  and  N2_21 
REMARK    8  A    between atoms: C21_27  and  C22_28 
REMARK    9  A    between atoms: C22_28  and  N3_29 
ROOT
HETATM    1  C8  UNL     1      25.890   2.812  50.979  1.00  0.00     0.166 C 
HETATM    2  C9  UNL     1      26.765   3.334  50.104  1.00  0.00     0.059 C 
HETATM    3  C10 UNL     1      26.909   4.578  49.315  1.00  0.00     0.018 C 
HETATM    4  C11 UNL     1      26.062   5.522  48.938  1.00  0.00    -0.009 C 
HETATM    5  C21 UNL     1      24.638   5.721  49.149  1.00  0.00     0.073 C 
HETATM    6  N4  UNL     1      23.800   5.230  50.013  1.00  0.00    -0.244 NA
HETATM    7  C23 UNL     1      23.884   4.329  51.083  1.00  0.00     0.236 C 
HETATM    8  N5  UNL     1      24.689   3.400  51.453  1.00  0.00    -0.218 NA
ENDROOT
BRANCH   4   9
HETATM    9  C12 UNL     1      26.624   6.586  48.162  1.00  0.00     0.019 C 
HETATM   10  C13 UNL     1      27.722   7.198  47.845  1.00  0.00     0.075 C 
BRANCH  10  11
HETATM   11  C14 UNL     1      28.260   8.286  47.046  1.00  0.00     0.241 C 
HETATM   12  O2  UNL     1      27.991   9.471  47.362  1.00  0.00    -0.269 OA
HETATM   13  N1  UNL     1      29.087   8.141  45.903  1.00  0.00    -0.356 N 
HETATM   14  H13 UNL     1      29.307   7.132  45.644  1.00  0.00     0.162 HD
BRANCH  13  15
HETATM   15  C15 UNL     1      29.621   9.227  45.110  1.00  0.00     0.142 C 
BRANCH  15  16
HETATM   16  C16 UNL     1      31.117   9.286  45.150  1.00  0.00     0.136 C 
BRANCH  16  17
HETATM   17  N2  UNL     1      31.687  10.151  46.116  1.00  0.00    -0.407 N 
HETATM   18  C17 UNL     1      32.498   9.538  47.113  1.00  0.00     0.143 C 
HETATM   19  C18 UNL     1      31.580   9.301  48.321  1.00  0.00     0.187 C 
HETATM   20  O3  UNL     1      30.931  10.442  48.730  1.00  0.00    -0.388 OA
HETATM   21  C19 UNL     1      31.232  11.568  47.986  1.00  0.00     0.187 C 
HETATM   22  C20 UNL     1      30.894  11.257  46.541  1.00  0.00     0.143 C 
ENDBRANCH  16  17
ENDBRANCH  15  16
ENDBRANCH  13  15
ENDBRANCH  10  11
ENDBRANCH   4   9
BRANCH   5  23
HETATM   23  C22 UNL     1      23.952   6.674  48.219  1.00  0.00     0.326 C 
BRANCH  23  24
HETATM   24  N3  UNL     1      22.861   5.992  47.585  1.00  0.00     0.083 N 
HETATM   25  H28 UNL     1      21.957   6.495  47.742  1.00  0.00     0.313 HD
HETATM   26  H29 UNL     1      22.962   5.875  46.555  1.00  0.00     0.313 HD
ENDBRANCH  23  24
ENDBRANCH   5  23
BRANCH   1  27
HETATM   27  O1  UNL     1      26.360   1.577  51.352  1.00  0.00    -0.321 OA
BRANCH  27  28
HETATM   28  C7  UNL     1      26.544   1.299  52.726  1.00  0.00     0.196 A 
HETATM   29  C2  UNL     1      26.798  -0.174  52.946  1.00  0.00     0.147 A 
HETATM   30  C1  UNL     1      25.707  -0.728  53.806  1.00  0.00     0.059 C 
HETATM   31  F1  UNL     1      26.712  -0.811  51.721  1.00  0.00    -0.236 F 
HETATM   32  C3  UNL     1      28.102  -0.352  53.585  1.00  0.00     0.019 A 
HETATM   33  C4  UNL     1      29.078   0.424  54.002  1.00  0.00    -0.001 A 
HETATM   34  C5  UNL     1      28.828   1.839  53.784  1.00  0.00    -0.002 A 
HETATM   35  C6  UNL     1      27.673   2.132  53.210  1.00  0.00     0.009 A 
ENDBRANCH  27  28
ENDBRANCH   1  27
TORSDOF 9
ENDMDL
MODEL 8
REMARK VINA RESULT:      -7.8      6.755      9.781
REMARK  9 active torsions:
REMARK  status: ('A' for Active; 'I' for Inactive)
REMARK    1  A    between atoms: C7_8  and  O1_9 
REMARK    2  A    between atoms: O1_9  and  C8_10 
REMARK    3  A    between atoms: C11_13  and  C12_14 
REMARK    4  A    between atoms: C13_15  and  C14_16 
REMARK       I    between atoms: C14_16  and  N1_18 
REMARK    5  A    between atoms: N1_18  and  C15_19 
REMARK    6  A    between atoms: C15_19  and  C16_20 
REMARK    7  A    between atoms: C16_20  and  N2_21 
REMARK    8  A    between atoms: C21_27  and  C22_28 
REMARK    9  A    between atoms: C22_28  and  N3_29 
ROOT
HETATM    1  C8  UNL     1      24.544   1.644  52.238  1.00  0.00     0.166 C 
HETATM    2  C9  UNL     1      23.273   1.437  52.622  1.00  0.00     0.059 C 
HETATM    3  C10 UNL     1      21.939   2.006  52.329  1.00  0.00     0.018 C 
HETATM    4  C11 UNL     1      21.530   3.150  51.804  1.00  0.00    -0.009 C 
HETATM    5  C21 UNL     1      22.232   4.318  51.299  1.00  0.00     0.073 C 
HETATM    6  N4  UNL     1      23.457   4.507  50.907  1.00  0.00    -0.244 NA
HETATM    7  C23 UNL     1      24.603   3.708  50.799  1.00  0.00     0.236 C 
HETATM    8  N5  UNL     1      25.019   2.607  51.312  1.00  0.00    -0.218 NA
ENDROOT
BRANCH   4   9
HETATM    9  C12 UNL     1      20.112   3.310  51.692  1.00  0.00     0.019 C 
HETATM   10  C13 UNL     1      19.016   2.764  51.266  1.00  0.00     0.075 C 
BRANCH  10  11
HETATM   11  C14 UNL     1      17.579   2.958  51.169  1.00  0.00     0.241 C 
HETATM   12  O2  UNL     1      16.904   2.189  50.441  1.00  0.00    -0.269 OA
HETATM   13  N1  UNL     1      16.834   3.963  51.836  1.00  0.00    -0.356 N 
HETATM   14  H13 UNL     1      17.417   4.609  52.449  1.00  0.00     0.162 HD
BRANCH  13  15
HETATM   15  C15 UNL     1      15.403   4.152  51.737  1.00  0.00     0.142 C 
BRANCH  15  16
HETATM   16  C16 UNL     1      14.702   3.921  53.040  1.00  0.00     0.136 C 
BRANCH  16  17
HETATM   17  N2  UNL     1      13.354   3.491  52.961  1.00  0.00    -0.407 N 
HETATM   18  C17 UNL     1      12.362   4.457  53.296  1.00  0.00     0.143 C 
HETATM   19  C18 UNL     1      12.026   4.226  54.776  1.00  0.00     0.187 C 
HETATM   20  O3  UNL     1      11.674   2.924  55.046  1.00  0.00    -0.388 OA
HETATM   21  C19 UNL     1      11.687   2.089  53.944  1.00  0.00     0.187 C 
HETATM   22  C20 UNL     1      13.081   2.147  53.351  1.00  0.00     0.143 C 
ENDBRANCH  16  17
ENDBRANCH  15  16
ENDBRANCH  13  15
ENDBRANCH  10  11
ENDBRANCH   4   9
BRANCH   5  23
HETATM   23  C22 UNL     1      21.432   5.579  51.180  1.00  0.00     0.326 C 
BRANCH  23  24
HETATM   24  N3  UNL     1      22.235   6.677  51.632  1.00  0.00     0.083 N 
HETATM   25  H28 UNL     1      21.654   7.396  52.122  1.00  0.00     0.313 HD
HETATM   26  H29 UNL     1      23.000   6.414  52.289  1.00  0.00     0.313 HD
ENDBRANCH  23  24
ENDBRANCH   5  23
BRANCH   1  27
HETATM   27  O1  UNL     1      25.333   0.744  52.910  1.00  0.00    -0.321 OA
BRANCH  27  28
HETATM   28  C7  UNL     1      26.718   0.699  52.624  1.00  0.00     0.196 A 
HETATM   29  C2  UNL     1      27.526   1.173  53.810  1.00  0.00     0.147 A 
HETATM   30  C1  UNL     1      28.302   2.388  53.409  1.00  0.00     0.059 C 
HETATM   31  F1  UNL     1      26.642   1.565  54.800  1.00  0.00    -0.236 F 
HETATM   32  C3  UNL     1      28.424   0.104  54.245  1.00  0.00     0.019 A 
HETATM   33  C4  UNL     1      28.696  -1.128  53.875  1.00  0.00    -0.001 A 
HETATM   34  C5  UNL     1      27.913  -1.579  52.737  1.00  0.00    -0.002 A 
HETATM   35  C6  UNL     1      27.058  -0.696  52.247  1.00  0.00     0.009 A 
ENDBRANCH  27  28
ENDBRANCH   1  27
TORSDOF 9
ENDMDL
MODEL 9
REMARK VINA RESULT:      -7.8      4.781      9.474
REMARK  9 active torsions:
REMARK  status: ('A' for Active; 'I' for Inactive)
REMARK    1  A    between atoms: C7_8  and  O1_9 
REMARK    2  A    between atoms: O1_9  and  C8_10 
REMARK    3  A    between atoms: C11_13  and  C12_14 
REMARK    4  A    between atoms: C13_15  and  C14_16 
REMARK       I    between atoms: C14_16  and  N1_18 
REMARK    5  A    between atoms: N1_18  and  C15_19 
REMARK    6  A    between atoms: C15_19  and  C16_20 
REMARK    7  A    between atoms: C16_20  and  N2_21 
REMARK    8  A    between atoms: C21_27  and  C22_28 
REMARK    9  A    between atoms: C22_28  and  N3_29 
ROOT
HETATM    1  C8  UNL     1      26.221   2.817  51.062  1.00  0.00     0.166 C 
HETATM    2  C9  UNL     1      26.790   3.570  50.105  1.00  0.00     0.059 C 
HETATM    3  C10 UNL     1      26.444   4.770  49.311  1.00  0.00     0.018 C 
HETATM    4  C11 UNL     1      25.303   5.377  49.026  1.00  0.00    -0.009 C 
HETATM    5  C21 UNL     1      23.919   5.109  49.381  1.00  0.00     0.073 C 
HETATM    6  N4  UNL     1      23.375   4.398  50.323  1.00  0.00    -0.244 NA
HETATM    7  C23 UNL     1      23.851   3.605  51.375  1.00  0.00     0.236 C 
HETATM    8  N5  UNL     1      24.947   2.998  51.658  1.00  0.00    -0.218 NA
ENDROOT
BRANCH   4   9
HETATM    9  C12 UNL     1      25.410   6.542  48.202  1.00  0.00     0.019 C 
HETATM   10  C13 UNL     1      26.009   7.683  48.055  1.00  0.00     0.075 C 
BRANCH  10  11
HETATM   11  C14 UNL     1      26.093   8.852  47.197  1.00  0.00     0.241 C 
HETATM   12  O2  UNL     1      25.040   9.462  46.885  1.00  0.00    -0.269 OA
HETATM   13  N1  UNL     1      27.286   9.397  46.655  1.00  0.00    -0.356 N 
HETATM   14  H13 UNL     1      28.171   8.871  46.926  1.00  0.00     0.162 HD
BRANCH  13  15
HETATM   15  C15 UNL     1      27.365  10.562  45.801  1.00  0.00     0.142 C 
BRANCH  15  16
HETATM   16  C16 UNL     1      28.629  11.338  46.005  1.00  0.00     0.136 C 
BRANCH  16  17
HETATM   17  N2  UNL     1      28.501  12.588  46.660  1.00  0.00    -0.407 N 
HETATM   18  C17 UNL     1      29.624  13.019  47.422  1.00  0.00     0.143 C 
HETATM   19  C18 UNL     1      29.350  12.584  48.868  1.00  0.00     0.187 C 
HETATM   20  O3  UNL     1      28.134  13.025  49.336  1.00  0.00    -0.388 OA
HETATM   21  C19 UNL     1      27.408  13.770  48.425  1.00  0.00     0.187 C 
HETATM   22  C20 UNL     1      27.218  12.911  47.190  1.00  0.00     0.143 C 
ENDBRANCH  16  17
ENDBRANCH  15  16
ENDBRANCH  13  15
ENDBRANCH  10  11
ENDBRANCH   4   9
BRANCH   5  23
HETATM   23  C22 UNL     1      22.874   5.761  48.529  1.00  0.00     0.326 C 
BRANCH  23  24
HETATM   24  N3  UNL     1      21.726   6.040  49.342  1.00  0.00     0.083 N 
HETATM   25  H28 UNL     1      20.883   6.236  48.755  1.00  0.00     0.313 HD
HETATM   26  H29 UNL     1      21.462   5.273  49.997  1.00  0.00     0.313 HD
ENDBRANCH  23  24
ENDBRANCH   5  23
BRANCH   1  27
HETATM   27  O1  UNL     1      27.101   1.813  51.380  1.00  0.00    -0.321 OA
BRANCH  27  28
HETATM   28  C7  UNL     1      27.091   1.281  52.691  1.00  0.00     0.196 A 
HETATM   29  C2  UNL     1      26.900  -0.217  52.660  1.00  0.00     0.147 A 
HETATM   30  C1  UNL     1      25.632  -0.557  53.379  1.00  0.00     0.059 C 
HETATM   31  F1  UNL     1      26.734  -0.600  51.341  1.00  0.00    -0.236 F 
HETATM   32  C3  UNL     1      28.046  -0.866  53.297  1.00  0.00     0.019 A 
HETATM   33  C4  UNL     1      29.166  -0.485  53.871  1.00  0.00    -0.001 A 
HETATM   34  C5  UNL     1      29.344   0.957  53.894  1.00  0.00    -0.002 A 
HETATM   35  C6  UNL     1      28.368   1.662  53.345  1.00  0.00     0.009 A 
ENDBRANCH  27  28
ENDBRANCH   1  27
TORSDOF 9
ENDMDL
