MODEL 1
REMARK VINA RESULT:      -8.7      0.000      0.000
REMARK  3 active torsions:
REMARK  status: ('A' for Active; 'I' for Inactive)
REMARK    1  A    between atoms: C5_5  and  C6_6 
REMARK    2  A    between atoms: C6_6  and  C7_7 
REMARK    3  A    between atoms: C15_15  and  S1_16 
ROOT
HETATM    1  C7  UNL     1      26.360   1.154  52.658  1.00  0.00    -0.066 C 
HETATM    2  C8  UNL     1      26.606   1.932  53.817  1.00  0.00    -0.021 C 
HETATM    3  C9  UNL     1      26.416   0.944  55.047  1.00  0.00     0.046 C 
HETATM    4  C10 UNL     1      25.902  -0.133  54.083  1.00  0.00     0.019 A 
HETATM    5  C11 UNL     1      24.673  -0.192  53.630  1.00  0.00    -0.044 A 
HETATM    6  C12 UNL     1      23.247  -0.304  53.509  1.00  0.00    -0.032 A 
HETATM    7  C13 UNL     1      22.688  -1.237  54.373  1.00  0.00     0.013 A 
HETATM    8  C14 UNL     1      21.316  -1.416  54.348  1.00  0.00     0.022 A 
HETATM    9  C15 UNL     1      20.590  -0.653  53.463  1.00  0.00     0.031 A 
HETATM   10  C17 UNL     1      21.167   0.266  52.615  1.00  0.00     0.022 A 
HETATM   11  C18 UNL     1      22.529   0.468  52.614  1.00  0.00     0.013 A 
HETATM   12  C19 UNL     1      25.455  -0.028  52.374  1.00  0.00     0.069 A 
HETATM   13  C20 UNL     1      26.137  -1.397  52.494  1.00  0.00    -0.016 C 
HETATM   14  C21 UNL     1      26.986  -0.937  53.408  1.00  0.00    -0.014 C 
ENDROOT
BRANCH   1  15
HETATM   15  C6  UNL     1      27.155   1.579  51.439  1.00  0.00     0.100 C 
BRANCH  15  16
HETATM   16  C5  UNL     1      26.443   2.715  50.758  1.00  0.00     0.057 A 
HETATM   17  C4  UNL     1      25.084   2.962  50.745  1.00  0.00     0.035 A 
HETATM   18  C3  UNL     1      24.970   4.111  49.991  1.00  0.00     0.035 A 
HETATM   19  C2  UNL     1      26.239   4.511  49.584  1.00  0.00     0.049 A 
HETATM   20  C1  UNL     1      26.675   5.672  48.761  1.00  0.00     0.076 C 
HETATM   21  O2  UNL     1      27.081   3.635  50.074  1.00  0.00    -0.320 OA
ENDBRANCH  15  16
ENDBRANCH   1  15
BRANCH   9  22
HETATM   22  S1  UNL     1      18.839  -0.900  53.457  1.00  0.00     0.045 S 
HETATM   23  C16 UNL     1      18.129  -0.495  51.852  1.00  0.00     0.133 C 
HETATM   24  O1  UNL     1      18.534  -2.378  53.733  1.00  0.00    -0.253 OA
ENDBRANCH   9  22
TORSDOF 3
ENDMDL
MODEL 2
REMARK VINA RESULT:      -8.6      3.487      5.732
REMARK  3 active torsions:
REMARK  status: ('A' for Active; 'I' for Inactive)
REMARK    1  A    between atoms: C5_5  and  C6_6 
REMARK    2  A    between atoms: C6_6  and  C7_7 
REMARK    3  A    between atoms: C15_15  and  S1_16 
ROOT
HETATM    1  C7  UNL     1      22.663   2.877  49.812  1.00  0.00    -0.066 C 
HETATM    2  C8  UNL     1      22.251   1.756  49.050  1.00  0.00    -0.021 C 
HETATM    3  C9  UNL     1      21.629   0.730  50.093  1.00  0.00     0.046 C 
HETATM    4  C10 UNL     1      22.104   1.632  51.240  1.00  0.00     0.019 A 
HETATM    5  C11 UNL     1      23.325   1.637  51.717  1.00  0.00    -0.044 A 
HETATM    6  C12 UNL     1      24.572   1.277  52.330  1.00  0.00    -0.032 A 
HETATM    7  C13 UNL     1      24.428   0.452  53.438  1.00  0.00     0.013 A 
HETATM    8  C14 UNL     1      25.571   0.034  54.098  1.00  0.00     0.022 A 
HETATM    9  C15 UNL     1      26.782   0.465  53.611  1.00  0.00     0.031 A 
HETATM   10  C17 UNL     1      26.900   1.284  52.510  1.00  0.00     0.022 A 
HETATM   11  C18 UNL     1      25.783   1.718  51.830  1.00  0.00     0.013 A 
HETATM   12  C19 UNL     1      23.181   3.035  51.228  1.00  0.00     0.069 A 
HETATM   13  C20 UNL     1      22.110   3.401  52.263  1.00  0.00    -0.016 C 
HETATM   14  C21 UNL     1      21.169   2.769  51.568  1.00  0.00    -0.014 C 
ENDROOT
BRANCH   1  15
HETATM   15  C6  UNL     1      22.577   4.200  49.077  1.00  0.00     0.100 C 
BRANCH  15  16
HETATM   16  C5  UNL     1      23.904   4.901  49.169  1.00  0.00     0.057 A 
HETATM   17  C4  UNL     1      24.133   6.210  49.548  1.00  0.00     0.035 A 
HETATM   18  C3  UNL     1      25.504   6.337  49.462  1.00  0.00     0.035 A 
HETATM   19  C2  UNL     1      26.044   5.125  49.043  1.00  0.00     0.049 A 
HETATM   20  C1  UNL     1      27.455   4.724  48.792  1.00  0.00     0.076 C 
HETATM   21  O2  UNL     1      25.035   4.304  48.883  1.00  0.00    -0.320 OA
ENDBRANCH  15  16
ENDBRANCH   1  15
BRANCH   9  22
HETATM   22  S1  UNL     1      28.225  -0.088  54.471  1.00  0.00     0.045 S 
HETATM   23  C16 UNL     1      29.331  -0.991  53.375  1.00  0.00     0.133 C 
HETATM   24  O1  UNL     1      28.995   1.127  55.002  1.00  0.00    -0.253 OA
ENDBRANCH   9  22
TORSDOF 3
ENDMDL
MODEL 3
REMARK VINA RESULT:      -8.4      3.456      6.017
REMARK  3 active torsions:
REMARK  status: ('A' for Active; 'I' for Inactive)
REMARK    1  A    between atoms: C5_5  and  C6_6 
REMARK    2  A    between atoms: C6_6  and  C7_7 
REMARK    3  A    between atoms: C15_15  and  S1_16 
ROOT
HETATM    1  C7  UNL     1      21.299   2.554  51.458  1.00  0.00    -0.066 C 
HETATM    2  C8  UNL     1      21.432   2.192  50.094  1.00  0.00    -0.021 C 
HETATM    3  C9  UNL     1      21.551   0.607  50.079  1.00  0.00     0.046 C 
HETATM    4  C10 UNL     1      21.629   0.613  51.611  1.00  0.00     0.019 A 
HETATM    5  C11 UNL     1      22.723   0.857  52.292  1.00  0.00    -0.044 A 
HETATM    6  C12 UNL     1      24.041   0.804  52.858  1.00  0.00    -0.032 A 
HETATM    7  C13 UNL     1      24.472  -0.487  53.141  1.00  0.00     0.013 A 
HETATM    8  C14 UNL     1      25.737  -0.653  53.678  1.00  0.00     0.022 A 
HETATM    9  C15 UNL     1      26.489   0.476  53.899  1.00  0.00     0.031 A 
HETATM   10  C17 UNL     1      26.040   1.746  53.611  1.00  0.00     0.022 A 
HETATM   11  C18 UNL     1      24.787   1.947  53.076  1.00  0.00     0.013 A 
HETATM   12  C19 UNL     1      21.828   1.955  52.747  1.00  0.00     0.069 A 
HETATM   13  C20 UNL     1      20.851   1.011  53.459  1.00  0.00    -0.016 C 
HETATM   14  C21 UNL     1      20.291   0.659  52.305  1.00  0.00    -0.014 C 
ENDROOT
BRANCH   1  15
HETATM   15  C6  UNL     1      20.462   3.795  51.697  1.00  0.00     0.100 C 
BRANCH  15  16
HETATM   16  C5  UNL     1      21.198   4.995  51.168  1.00  0.00     0.057 A 
HETATM   17  C4  UNL     1      20.746   5.909  50.235  1.00  0.00     0.035 A 
HETATM   18  C3  UNL     1      21.797   6.794  50.112  1.00  0.00     0.035 A 
HETATM   19  C2  UNL     1      22.826   6.392  50.958  1.00  0.00     0.049 A 
HETATM   20  C1  UNL     1      24.167   6.987  51.208  1.00  0.00     0.076 C 
HETATM   21  O2  UNL     1      22.409   5.308  51.564  1.00  0.00    -0.320 OA
ENDBRANCH  15  16
ENDBRANCH   1  15
BRANCH   9  22
HETATM   22  S1  UNL     1      28.102   0.232  54.583  1.00  0.00     0.045 S 
HETATM   23  C16 UNL     1      29.104  -0.828  53.527  1.00  0.00     0.133 C 
HETATM   24  O1  UNL     1      28.818   1.585  54.687  1.00  0.00    -0.253 OA
ENDBRANCH   9  22
TORSDOF 3
ENDMDL
MODEL 4
REMARK VINA RESULT:      -8.4      3.102      7.082
REMARK  3 active torsions:
REMARK  status: ('A' for Active; 'I' for Inactive)
REMARK    1  A    between atoms: C5_5  and  C6_6 
REMARK    2  A    between atoms: C6_6  and  C7_7 
REMARK    3  A    between atoms: C15_15  and  S1_16 
ROOT
HETATM    1  C7  UNL     1      20.962   2.397  51.566  1.00  0.00    -0.066 C 
HETATM    2  C8  UNL     1      20.940   3.619  52.283  1.00  0.00    -0.021 C 
HETATM    3  C9  UNL     1      22.085   4.516  51.640  1.00  0.00     0.046 C 
HETATM    4  C10 UNL     1      22.536   3.312  50.803  1.00  0.00     0.019 A 
HETATM    5  C11 UNL     1      23.308   2.350  51.250  1.00  0.00    -0.044 A 
HETATM    6  C12 UNL     1      24.403   1.588  51.777  1.00  0.00    -0.032 A 
HETATM    7  C13 UNL     1      25.644   2.000  51.305  1.00  0.00     0.013 A 
HETATM    8  C14 UNL     1      26.772   1.340  51.761  1.00  0.00     0.022 A 
HETATM    9  C15 UNL     1      26.590   0.312  52.656  1.00  0.00     0.031 A 
HETATM   10  C17 UNL     1      25.350  -0.079  53.109  1.00  0.00     0.022 A 
HETATM   11  C18 UNL     1      24.207   0.556  52.676  1.00  0.00     0.013 A 
HETATM   12  C19 UNL     1      22.068   1.608  50.892  1.00  0.00     0.069 A 
HETATM   13  C20 UNL     1      22.214   1.872  49.388  1.00  0.00    -0.016 C 
HETATM   14  C21 UNL     1      21.761   3.115  49.524  1.00  0.00    -0.014 C 
ENDROOT
BRANCH   1  15
HETATM   15  C6  UNL     1      19.610   1.722  51.439  1.00  0.00     0.100 C 
BRANCH  15  16
HETATM   16  C5  UNL     1      19.585   0.501  52.317  1.00  0.00     0.057 A 
HETATM   17  C4  UNL     1      18.551  -0.403  52.463  1.00  0.00     0.035 A 
HETATM   18  C3  UNL     1      19.043  -1.317  53.371  1.00  0.00     0.035 A 
HETATM   19  C2  UNL     1      20.333  -0.940  53.734  1.00  0.00     0.049 A 
HETATM   20  C1  UNL     1      21.301  -1.570  54.672  1.00  0.00     0.076 C 
HETATM   21  O2  UNL     1      20.602   0.157  53.070  1.00  0.00    -0.320 OA
ENDBRANCH  15  16
ENDBRANCH   1  15
BRANCH   9  22
HETATM   22  S1  UNL     1      28.049  -0.511  53.224  1.00  0.00     0.045 S 
HETATM   23  C16 UNL     1      28.537   0.079  54.854  1.00  0.00     0.133 C 
HETATM   24  O1  UNL     1      27.769  -2.014  53.345  1.00  0.00    -0.253 OA
ENDBRANCH   9  22
TORSDOF 3
ENDMDL
MODEL 5
REMARK VINA RESULT:      -8.2      3.067      6.121
REMARK  3 active torsions:
REMARK  status: ('A' for Active; 'I' for Inactive)
REMARK    1  A    between atoms: C5_5  and  C6_6 
REMARK    2  A    between atoms: C6_6  and  C7_7 
REMARK    3  A    between atoms: C15_15  and  S1_16 
ROOT
HETATM    1  C7  UNL     1      24.791   0.313  52.853  1.00  0.00    -0.066 C 
HETATM    2  C8  UNL     1      25.860  -0.386  52.239  1.00  0.00    -0.021 C 
HETATM    3  C9  UNL     1      26.931   0.721  51.848  1.00  0.00     0.046 C 
HETATM    4  C10 UNL     1      25.930   1.811  52.254  1.00  0.00     0.019 A 
HETATM    5  C11 UNL     1      24.956   2.241  51.488  1.00  0.00    -0.044 A 
HETATM    6  C12 UNL     1      24.185   2.819  50.425  1.00  0.00    -0.032 A 
HETATM    7  C13 UNL     1      24.756   3.966  49.887  1.00  0.00     0.013 A 
HETATM    8  C14 UNL     1      24.100   4.598  48.845  1.00  0.00     0.022 A 
HETATM    9  C15 UNL     1      22.918   4.048  48.408  1.00  0.00     0.031 A 
HETATM   10  C17 UNL     1      22.371   2.910  48.959  1.00  0.00     0.022 A 
HETATM   11  C18 UNL     1      22.998   2.256  49.996  1.00  0.00     0.013 A 
HETATM   12  C19 UNL     1      24.211   1.700  52.658  1.00  0.00     0.069 A 
HETATM   13  C20 UNL     1      24.750   2.759  53.628  1.00  0.00    -0.016 C 
HETATM   14  C21 UNL     1      25.916   2.127  53.729  1.00  0.00    -0.014 C 
ENDROOT
BRANCH   1  15
HETATM   15  C6  UNL     1      24.063  -0.473  53.925  1.00  0.00     0.100 C 
BRANCH  15  16
HETATM   16  C5  UNL     1      22.580  -0.321  53.725  1.00  0.00     0.057 A 
HETATM   17  C4  UNL     1      21.595  -0.399  54.690  1.00  0.00     0.035 A 
HETATM   18  C3  UNL     1      20.430  -0.188  53.982  1.00  0.00     0.035 A 
HETATM   19  C2  UNL     1      20.746   0.006  52.641  1.00  0.00     0.049 A 
HETATM   20  C1  UNL     1      19.874   0.269  51.465  1.00  0.00     0.076 C 
HETATM   21  O2  UNL     1      22.050  -0.086  52.549  1.00  0.00    -0.320 OA
ENDBRANCH  15  16
ENDBRANCH   1  15
BRANCH   9  22
HETATM   22  S1  UNL     1      22.104   4.875  47.073  1.00  0.00     0.045 S 
HETATM   23  C16 UNL     1      21.840   3.763  45.682  1.00  0.00     0.133 C 
HETATM   24  O1  UNL     1      20.726   5.359  47.542  1.00  0.00    -0.253 OA
ENDBRANCH   9  22
TORSDOF 3
ENDMDL
MODEL 6
REMARK VINA RESULT:      -8.1      3.694      8.518
REMARK  3 active torsions:
REMARK  status: ('A' for Active; 'I' for Inactive)
REMARK    1  A    between atoms: C5_5  and  C6_6 
REMARK    2  A    between atoms: C6_6  and  C7_7 
REMARK    3  A    between atoms: C15_15  and  S1_16 
ROOT
HETATM    1  C7  UNL     1      22.997   2.829  50.844  1.00  0.00    -0.066 C 
HETATM    2  C8  UNL     1      22.837   3.483  52.091  1.00  0.00    -0.021 C 
HETATM    3  C9  UNL     1      22.544   5.006  51.745  1.00  0.00     0.046 C 
HETATM    4  C10 UNL     1      22.839   4.712  50.268  1.00  0.00     0.019 A 
HETATM    5  C11 UNL     1      24.044   4.652  49.755  1.00  0.00    -0.044 A 
HETATM    6  C12 UNL     1      25.372   4.957  49.302  1.00  0.00    -0.032 A 
HETATM    7  C13 UNL     1      25.495   6.231  48.762  1.00  0.00     0.013 A 
HETATM    8  C14 UNL     1      26.738   6.633  48.306  1.00  0.00     0.022 A 
HETATM    9  C15 UNL     1      27.777   5.739  48.417  1.00  0.00     0.031 A 
HETATM   10  C17 UNL     1      27.631   4.481  48.956  1.00  0.00     0.022 A 
HETATM   11  C18 UNL     1      26.408   4.049  49.419  1.00  0.00     0.013 A 
HETATM   12  C19 UNL     1      23.533   3.278  49.498  1.00  0.00     0.069 A 
HETATM   13  C20 UNL     1      22.459   3.746  48.507  1.00  0.00    -0.016 C 
HETATM   14  C21 UNL     1      21.670   4.153  49.497  1.00  0.00    -0.014 C 
ENDROOT
BRANCH   1  15
HETATM   15  C6  UNL     1      22.547   1.382  50.833  1.00  0.00     0.100 C 
BRANCH  15  16
HETATM   16  C5  UNL     1      23.074   0.694  52.062  1.00  0.00     0.057 A 
HETATM   17  C4  UNL     1      24.390   0.611  52.475  1.00  0.00     0.035 A 
HETATM   18  C3  UNL     1      24.318  -0.116  53.645  1.00  0.00     0.035 A 
HETATM   19  C2  UNL     1      22.988  -0.440  53.894  1.00  0.00     0.049 A 
HETATM   20  C1  UNL     1      22.365  -1.204  55.008  1.00  0.00     0.076 C 
HETATM   21  O2  UNL     1      22.290   0.073  52.910  1.00  0.00    -0.320 OA
ENDBRANCH  15  16
ENDBRANCH   1  15
BRANCH   9  22
HETATM   22  S1  UNL     1      29.355   6.282  47.830  1.00  0.00     0.045 S 
HETATM   23  C16 UNL     1      29.821   7.856  48.572  1.00  0.00     0.133 C 
HETATM   24  O1  UNL     1      30.424   5.255  48.224  1.00  0.00    -0.253 OA
ENDBRANCH   9  22
TORSDOF 3
ENDMDL
MODEL 7
REMARK VINA RESULT:      -8.1      4.017      8.345
REMARK  3 active torsions:
REMARK  status: ('A' for Active; 'I' for Inactive)
REMARK    1  A    between atoms: C5_5  and  C6_6 
REMARK    2  A    between atoms: C6_6  and  C7_7 
REMARK    3  A    between atoms: C15_15  and  S1_16 
ROOT
HETATM    1  C7  UNL     1      23.822   2.846  51.315  1.00  0.00    -0.066 C 
HETATM    2  C8  UNL     1      23.854   3.447  52.598  1.00  0.00    -0.021 C 
HETATM    3  C9  UNL     1      23.416   4.959  52.376  1.00  0.00     0.046 C 
HETATM    4  C10 UNL     1      23.454   4.732  50.860  1.00  0.00     0.019 A 
HETATM    5  C11 UNL     1      24.548   4.767  50.136  1.00  0.00    -0.044 A 
HETATM    6  C12 UNL     1      25.751   5.171  49.467  1.00  0.00    -0.032 A 
HETATM    7  C13 UNL     1      25.701   6.468  48.969  1.00  0.00     0.013 A 
HETATM    8  C14 UNL     1      26.815   6.964  48.316  1.00  0.00     0.022 A 
HETATM    9  C15 UNL     1      27.907   6.136  48.201  1.00  0.00     0.031 A 
HETATM   10  C17 UNL     1      27.934   4.854  48.702  1.00  0.00     0.022 A 
HETATM   11  C18 UNL     1      26.842   4.329  49.357  1.00  0.00     0.013 A 
HETATM   12  C19 UNL     1      24.078   3.372  49.916  1.00  0.00     0.069 A 
HETATM   13  C20 UNL     1      22.818   3.802  49.155  1.00  0.00    -0.016 C 
HETATM   14  C21 UNL     1      22.199   4.125  50.286  1.00  0.00    -0.014 C 
ENDROOT
BRANCH   1  15
HETATM   15  C6  UNL     1      23.462   1.374  51.322  1.00  0.00     0.100 C 
BRANCH  15  16
HETATM   16  C5  UNL     1      24.386   0.646  52.259  1.00  0.00     0.057 A 
HETATM   17  C4  UNL     1      24.051   0.017  53.443  1.00  0.00     0.035 A 
HETATM   18  C3  UNL     1      25.254  -0.484  53.896  1.00  0.00     0.035 A 
HETATM   19  C2  UNL     1      26.253  -0.147  52.988  1.00  0.00     0.049 A 
HETATM   20  C1  UNL     1      27.712  -0.437  52.997  1.00  0.00     0.076 C 
HETATM   21  O2  UNL     1      25.672   0.530  52.028  1.00  0.00    -0.320 OA
ENDBRANCH  15  16
ENDBRANCH   1  15
BRANCH   9  22
HETATM   22  S1  UNL     1      29.318   6.798  47.365  1.00  0.00     0.045 S 
HETATM   23  C16 UNL     1      28.851   8.144  46.263  1.00  0.00     0.133 C 
HETATM   24  O1  UNL     1      30.298   7.369  48.398  1.00  0.00    -0.253 OA
ENDBRANCH   9  22
TORSDOF 3
ENDMDL
MODEL 8
REMARK VINA RESULT:      -7.8      3.735      6.397
REMARK  3 active torsions:
REMARK  status: ('A' for Active; 'I' for Inactive)
REMARK    1  A    between atoms: C5_5  and  C6_6 
REMARK    2  A    between atoms: C6_6  and  C7_7 
REMARK    3  A    between atoms: C15_15  and  S1_16 
ROOT
HETATM    1  C7  UNL     1      25.090   1.465  51.536  1.00  0.00    -0.066 C 
HETATM    2  C8  UNL     1      26.408   1.682  51.064  1.00  0.00    -0.021 C 
HETATM    3  C9  UNL     1      26.544   3.254  50.870  1.00  0.00     0.046 C 
HETATM    4  C10 UNL     1      25.045   3.403  51.161  1.00  0.00     0.019 A 
HETATM    5  C11 UNL     1      24.098   3.206  50.274  1.00  0.00    -0.044 A 
HETATM    6  C12 UNL     1      23.237   3.287  49.129  1.00  0.00    -0.032 A 
HETATM    7  C13 UNL     1      22.981   4.589  48.718  1.00  0.00     0.013 A 
HETATM    8  C14 UNL     1      22.172   4.782  47.613  1.00  0.00     0.022 A 
HETATM    9  C15 UNL     1      21.669   3.664  46.989  1.00  0.00     0.031 A 
HETATM   10  C17 UNL     1      21.936   2.382  47.415  1.00  0.00     0.022 A 
HETATM   11  C18 UNL     1      22.738   2.156  48.512  1.00  0.00     0.013 A 
HETATM   12  C19 UNL     1      23.774   2.181  51.303  1.00  0.00     0.069 A 
HETATM   13  C20 UNL     1      23.412   3.216  52.376  1.00  0.00    -0.016 C 
HETATM   14  C21 UNL     1      24.695   3.460  52.627  1.00  0.00    -0.014 C 
ENDROOT
BRANCH   1  15
HETATM   15  C6  UNL     1      24.945   0.274  52.463  1.00  0.00     0.100 C 
BRANCH  15  16
HETATM   16  C5  UNL     1      26.214   0.107  53.251  1.00  0.00     0.057 A 
HETATM   17  C4  UNL     1      26.517   0.666  54.477  1.00  0.00     0.035 A 
HETATM   18  C3  UNL     1      27.786   0.195  54.745  1.00  0.00     0.035 A 
HETATM   19  C2  UNL     1      28.197  -0.616  53.691  1.00  0.00     0.049 A 
HETATM   20  C1  UNL     1      29.466  -1.363  53.477  1.00  0.00     0.076 C 
HETATM   21  O2  UNL     1      27.213  -0.630  52.826  1.00  0.00    -0.320 OA
ENDBRANCH  15  16
ENDBRANCH   1  15
BRANCH   9  22
HETATM   22  S1  UNL     1      20.641   3.940  45.577  1.00  0.00     0.045 S 
HETATM   23  C16 UNL     1      20.177   5.675  45.437  1.00  0.00     0.133 C 
HETATM   24  O1  UNL     1      21.414   3.568  44.305  1.00  0.00    -0.253 OA
ENDBRANCH   9  22
TORSDOF 3
ENDMDL
MODEL 9
REMARK VINA RESULT:      -7.6      4.158      6.529
REMARK  3 active torsions:
REMARK  status: ('A' for Active; 'I' for Inactive)
REMARK    1  A    between atoms: C5_5  and  C6_6 
REMARK    2  A    between atoms: C6_6  and  C7_7 
REMARK    3  A    between atoms: C15_15  and  S1_16 
ROOT
HETATM    1  C7  UNL     1      22.898   3.019  49.212  1.00  0.00    -0.066 C 
HETATM    2  C8  UNL     1      22.442   1.875  48.510  1.00  0.00    -0.021 C 
HETATM    3  C9  UNL     1      21.696   0.977  49.589  1.00  0.00     0.046 C 
HETATM    4  C10 UNL     1      22.179   1.927  50.692  1.00  0.00     0.019 A 
HETATM    5  C11 UNL     1      23.372   1.881  51.234  1.00  0.00    -0.044 A 
HETATM    6  C12 UNL     1      24.558   1.482  51.938  1.00  0.00    -0.032 A 
HETATM    7  C13 UNL     1      24.299   0.755  53.093  1.00  0.00     0.013 A 
HETATM    8  C14 UNL     1      25.373   0.308  53.842  1.00  0.00     0.022 A 
HETATM    9  C15 UNL     1      26.636   0.616  53.392  1.00  0.00     0.031 A 
HETATM   10  C17 UNL     1      26.868   1.339  52.243  1.00  0.00     0.022 A 
HETATM   11  C18 UNL     1      25.821   1.799  51.475  1.00  0.00     0.013 A 
HETATM   12  C19 UNL     1      23.356   3.246  50.640  1.00  0.00     0.069 A 
HETATM   13  C20 UNL     1      22.266   3.763  51.586  1.00  0.00    -0.016 C 
HETATM   14  C21 UNL     1      21.316   3.148  50.888  1.00  0.00    -0.014 C 
ENDROOT
BRANCH   1  15
HETATM   15  C6  UNL     1      22.946   4.285  48.381  1.00  0.00     0.100 C 
BRANCH  15  16
HETATM   16  C5  UNL     1      21.788   4.289  47.422  1.00  0.00     0.057 A 
HETATM   17  C4  UNL     1      20.463   4.549  47.713  1.00  0.00     0.035 A 
HETATM   18  C3  UNL     1      19.832   4.425  46.492  1.00  0.00     0.035 A 
HETATM   19  C2  UNL     1      20.780   4.101  45.526  1.00  0.00     0.049 A 
HETATM   20  C1  UNL     1      20.635   3.856  44.065  1.00  0.00     0.076 C 
HETATM   21  O2  UNL     1      21.933   4.033  46.144  1.00  0.00    -0.320 OA
ENDBRANCH  15  16
ENDBRANCH   1  15
BRANCH   9  22
HETATM   22  S1  UNL     1      27.989   0.029  54.367  1.00  0.00     0.045 S 
HETATM   23  C16 UNL     1      29.121  -0.965  53.380  1.00  0.00     0.133 C 
HETATM   24  O1  UNL     1      28.781   1.226  54.908  1.00  0.00    -0.253 OA
ENDBRANCH   9  22
TORSDOF 3
ENDMDL
