MODEL 1
REMARK VINA RESULT:      -8.5      0.000      0.000
REMARK  1 active torsions:
REMARK  status: ('A' for Active; 'I' for Inactive)
REMARK    1  A    between atoms: C6_8  and  N3_9 
ROOT
HETATM    1  C1  UNL     1      20.459   2.768  51.507  1.00  0.00     0.051 C 
HETATM    2  C2  UNL     1      21.435   1.910  52.224  1.00  0.00    -0.024 A 
HETATM    3  C3  UNL     1      21.019   0.942  53.143  1.00  0.00     0.042 A 
HETATM    4  C4  UNL     1      21.951   0.171  53.785  1.00  0.00     0.075 A 
HETATM    5  N1  UNL     1      21.609  -0.771  54.660  1.00  0.00    -0.241 NA
HETATM    6  C5  UNL     1      22.566  -1.516  55.261  1.00  0.00     0.236 A 
HETATM    7  N2  UNL     1      23.858  -1.291  54.966  1.00  0.00    -0.223 NA
HETATM    8  C6  UNL     1      24.262  -0.343  54.082  1.00  0.00     0.146 A 
HETATM    9  C11 UNL     1      23.271   0.402  53.479  1.00  0.00     0.075 A 
HETATM   10  C12 UNL     1      23.747   1.326  52.595  1.00  0.00     0.119 A 
HETATM   11  C13 UNL     1      22.788   2.101  51.953  1.00  0.00     0.109 A 
HETATM   12  O1  UNL     1      23.243   3.052  51.048  1.00  0.00    -0.346 OA
HETATM   13  C14 UNL     1      24.554   3.576  51.096  1.00  0.00     0.202 C 
HETATM   14  C15 UNL     1      25.585   2.642  51.623  1.00  0.00     0.202 C 
HETATM   15  O2  UNL     1      25.071   1.521  52.317  1.00  0.00    -0.345 OA
ENDROOT
BRANCH   8  16
HETATM   16  N3  UNL     1      25.678  -0.288  54.001  1.00  0.00    -0.334 N 
HETATM   17  C7  UNL     1      26.120  -1.141  52.921  1.00  0.00     0.109 C 
HETATM   18  C8  UNL     1      27.401  -1.538  52.829  1.00  0.00     0.104 C 
HETATM   19  N4  UNL     1      28.253  -1.055  53.860  1.00  0.00    -0.349 N 
HETATM   20  C9  UNL     1      28.052   0.314  54.340  1.00  0.00     0.270 C 
HETATM   21  H8  UNL     1      29.008  -1.655  54.268  1.00  0.00     0.163 HD
HETATM   22  F1  UNL     1      28.857   0.551  55.453  1.00  0.00    -0.199 F 
HETATM   23 CL1  UNL     1      28.543   1.397  53.054  1.00  0.00    -0.058 Cl
HETATM   24  C10 UNL     1      26.642   0.454  54.803  1.00  0.00     0.214 C 
ENDBRANCH   8  16
TORSDOF 1
ENDMDL
MODEL 2
REMARK VINA RESULT:      -8.5      2.031      3.486
REMARK  1 active torsions:
REMARK  status: ('A' for Active; 'I' for Inactive)
REMARK    1  A    between atoms: C6_8  and  N3_9 
ROOT
HETATM    1  C1  UNL     1      20.207   1.897  52.402  1.00  0.00     0.051 C 
HETATM    2  C2  UNL     1      21.679   1.871  52.222  1.00  0.00    -0.024 A 
HETATM    3  C3  UNL     1      22.310   2.646  51.243  1.00  0.00     0.042 A 
HETATM    4  C4  UNL     1      23.671   2.593  51.108  1.00  0.00     0.075 A 
HETATM    5  N1  UNL     1      24.321   3.316  50.202  1.00  0.00    -0.241 NA
HETATM    6  C5  UNL     1      25.670   3.238  50.113  1.00  0.00     0.236 A 
HETATM    7  N2  UNL     1      26.339   2.423  50.947  1.00  0.00    -0.223 NA
HETATM    8  C6  UNL     1      25.725   1.663  51.890  1.00  0.00     0.146 A 
HETATM    9  C11 UNL     1      24.352   1.759  51.964  1.00  0.00     0.075 A 
HETATM   10  C12 UNL     1      23.804   0.978  52.939  1.00  0.00     0.119 A 
HETATM   11  C13 UNL     1      22.420   1.043  53.063  1.00  0.00     0.109 A 
HETATM   12  O1  UNL     1      21.834   0.257  54.046  1.00  0.00    -0.346 OA
HETATM   13  C14 UNL     1      22.464  -0.891  54.573  1.00  0.00     0.202 C 
HETATM   14  C15 UNL     1      23.951  -0.841  54.590  1.00  0.00     0.202 C 
HETATM   15  O2  UNL     1      24.519   0.165  53.774  1.00  0.00    -0.345 OA
ENDROOT
BRANCH   8  16
HETATM   16  N3  UNL     1      26.663   0.863  52.592  1.00  0.00    -0.334 N 
HETATM   17  C7  UNL     1      26.775  -0.419  51.934  1.00  0.00     0.109 C 
HETATM   18  C8  UNL     1      27.326  -1.474  52.558  1.00  0.00     0.104 C 
HETATM   19  N4  UNL     1      27.775  -1.220  53.884  1.00  0.00    -0.349 N 
HETATM   20  C9  UNL     1      28.399   0.074  54.166  1.00  0.00     0.270 C 
HETATM   21  H8  UNL     1      27.667  -1.934  54.641  1.00  0.00     0.163 HD
HETATM   22  F1  UNL     1      28.618   0.207  55.537  1.00  0.00    -0.199 F 
HETATM   23 CL1  UNL     1      29.948   0.097  53.348  1.00  0.00    -0.058 Cl
HETATM   24  C10 UNL     1      27.448   1.156  53.785  1.00  0.00     0.214 C 
ENDBRANCH   8  16
TORSDOF 1
ENDMDL
MODEL 3
REMARK VINA RESULT:      -7.9      3.745      6.493
REMARK  1 active torsions:
REMARK  status: ('A' for Active; 'I' for Inactive)
REMARK    1  A    between atoms: C6_8  and  N3_9 
ROOT
HETATM    1  C1  UNL     1      28.242  -0.326  54.140  1.00  0.00     0.051 C 
HETATM    2  C2  UNL     1      27.213   0.383  53.339  1.00  0.00    -0.024 A 
HETATM    3  C3  UNL     1      27.558   1.386  52.429  1.00  0.00     0.042 A 
HETATM    4  C4  UNL     1      26.579   2.017  51.709  1.00  0.00     0.075 A 
HETATM    5  N1  UNL     1      26.854   2.970  50.824  1.00  0.00    -0.241 NA
HETATM    6  C5  UNL     1      25.852   3.556  50.128  1.00  0.00     0.236 A 
HETATM    7  N2  UNL     1      24.584   3.167  50.343  1.00  0.00    -0.223 NA
HETATM    8  C6  UNL     1      24.247   2.200  51.235  1.00  0.00     0.146 A 
HETATM    9  C11 UNL     1      25.283   1.614  51.932  1.00  0.00     0.075 A 
HETATM   10  C12 UNL     1      24.875   0.644  52.800  1.00  0.00     0.119 A 
HETATM   11  C13 UNL     1      25.882   0.015  53.524  1.00  0.00     0.109 A 
HETATM   12  O1  UNL     1      25.496  -0.976  54.418  1.00  0.00    -0.346 OA
HETATM   13  C14 UNL     1      24.191  -1.045  54.954  1.00  0.00     0.202 C 
HETATM   14  C15 UNL     1      23.118  -0.524  54.066  1.00  0.00     0.202 C 
HETATM   15  O2  UNL     1      23.574   0.271  52.988  1.00  0.00    -0.345 OA
ENDROOT
BRANCH   8  16
HETATM   16  N3  UNL     1      22.841   2.026  51.297  1.00  0.00    -0.334 N 
HETATM   17  C7  UNL     1      22.262   3.131  52.026  1.00  0.00     0.109 C 
HETATM   18  C8  UNL     1      21.013   3.061  52.518  1.00  0.00     0.104 C 
HETATM   19  N4  UNL     1      20.336   1.836  52.263  1.00  0.00    -0.349 N 
HETATM   20  C9  UNL     1      20.536   1.194  50.962  1.00  0.00     0.270 C 
HETATM   21  H8  UNL     1      19.709   1.402  52.978  1.00  0.00     0.163 HD
HETATM   22  F1  UNL     1      19.936  -0.064  50.955  1.00  0.00    -0.199 F 
HETATM   23 CL1  UNL     1      19.750   2.195  49.758  1.00  0.00    -0.058 Cl
HETATM   24  C10 UNL     1      21.996   0.965  50.762  1.00  0.00     0.214 C 
ENDBRANCH   8  16
TORSDOF 1
ENDMDL
MODEL 4
REMARK VINA RESULT:      -7.8      3.861      5.728
REMARK  1 active torsions:
REMARK  status: ('A' for Active; 'I' for Inactive)
REMARK    1  A    between atoms: C6_8  and  N3_9 
ROOT
HETATM    1  C1  UNL     1      23.417  -1.607  55.707  1.00  0.00     0.051 C 
HETATM    2  C2  UNL     1      22.646  -0.974  54.608  1.00  0.00    -0.024 A 
HETATM    3  C3  UNL     1      21.275  -1.199  54.454  1.00  0.00     0.042 A 
HETATM    4  C4  UNL     1      20.600  -0.597  53.427  1.00  0.00     0.075 A 
HETATM    5  N1  UNL     1      19.294  -0.768  53.241  1.00  0.00    -0.241 NA
HETATM    6  C5  UNL     1      18.668  -0.142  52.217  1.00  0.00     0.236 A 
HETATM    7  N2  UNL     1      19.379   0.648  51.394  1.00  0.00    -0.223 NA
HETATM    8  C6  UNL     1      20.713   0.858  51.538  1.00  0.00     0.146 A 
HETATM    9  C11 UNL     1      21.330   0.213  52.588  1.00  0.00     0.075 A 
HETATM   10  C12 UNL     1      22.665   0.478  52.680  1.00  0.00     0.119 A 
HETATM   11  C13 UNL     1      23.336  -0.142  53.728  1.00  0.00     0.109 A 
HETATM   12  O1  UNL     1      24.698   0.107  53.846  1.00  0.00    -0.346 OA
HETATM   13  C14 UNL     1      25.485   0.538  52.755  1.00  0.00     0.202 C 
HETATM   14  C15 UNL     1      24.764   1.357  51.744  1.00  0.00     0.202 C 
HETATM   15  O2  UNL     1      23.353   1.294  51.826  1.00  0.00    -0.345 OA
ENDROOT
BRANCH   8  16
HETATM   16  N3  UNL     1      21.214   1.692  50.506  1.00  0.00    -0.334 N 
HETATM   17  C7  UNL     1      20.924   3.070  50.831  1.00  0.00     0.109 C 
HETATM   18  C8  UNL     1      20.983   4.032  49.895  1.00  0.00     0.104 C 
HETATM   19  N4  UNL     1      21.346   3.582  48.595  1.00  0.00    -0.349 N 
HETATM   20  C9  UNL     1      22.363   2.535  48.485  1.00  0.00     0.270 C 
HETATM   21  H8  UNL     1      20.905   3.986  47.736  1.00  0.00     0.163 HD
HETATM   22  F1  UNL     1      22.466   2.108  47.161  1.00  0.00    -0.199 F 
HETATM   23 CL1  UNL     1      23.894   3.239  48.965  1.00  0.00    -0.058 Cl
HETATM   24  C10 UNL     1      21.917   1.352  49.275  1.00  0.00     0.214 C 
ENDBRANCH   8  16
TORSDOF 1
ENDMDL
MODEL 5
REMARK VINA RESULT:      -7.7      3.036      4.687
REMARK  1 active torsions:
REMARK  status: ('A' for Active; 'I' for Inactive)
REMARK    1  A    between atoms: C6_8  and  N3_9 
ROOT
HETATM    1  C1  UNL     1      21.529  -1.980  54.474  1.00  0.00     0.051 C 
HETATM    2  C2  UNL     1      22.608  -1.044  54.074  1.00  0.00    -0.024 A 
HETATM    3  C3  UNL     1      23.878  -1.102  54.654  1.00  0.00     0.042 A 
HETATM    4  C4  UNL     1      24.847  -0.219  54.259  1.00  0.00     0.075 A 
HETATM    5  N1  UNL     1      26.074  -0.237  54.770  1.00  0.00    -0.241 NA
HETATM    6  C5  UNL     1      27.001   0.649  54.339  1.00  0.00     0.236 A 
HETATM    7  N2  UNL     1      26.667   1.545  53.393  1.00  0.00    -0.223 NA
HETATM    8  C6  UNL     1      25.430   1.608  52.838  1.00  0.00     0.146 A 
HETATM    9  C11 UNL     1      24.501   0.695  53.290  1.00  0.00     0.075 A 
HETATM   10  C12 UNL     1      23.286   0.807  52.681  1.00  0.00     0.119 A 
HETATM   11  C13 UNL     1      22.314  -0.096  53.095  1.00  0.00     0.109 A 
HETATM   12  O1  UNL     1      21.065  -0.004  52.494  1.00  0.00    -0.346 OA
HETATM   13  C14 UNL     1      20.607   1.182  51.878  1.00  0.00     0.202 C 
HETATM   14  C15 UNL     1      21.673   2.033  51.284  1.00  0.00     0.202 C 
HETATM   15  O2  UNL     1      22.985   1.729  51.717  1.00  0.00    -0.345 OA
ENDROOT
BRANCH   8  16
HETATM   16  N3  UNL     1      25.340   2.675  51.907  1.00  0.00    -0.334 N 
HETATM   17  C7  UNL     1      26.218   2.402  50.792  1.00  0.00     0.109 C 
HETATM   18  C8  UNL     1      26.583   3.376  49.941  1.00  0.00     0.104 C 
HETATM   19  N4  UNL     1      26.042   4.659  50.230  1.00  0.00    -0.349 N 
HETATM   20  C9  UNL     1      24.663   4.735  50.718  1.00  0.00     0.270 C 
HETATM   21  H8  UNL     1      26.607   5.530  50.098  1.00  0.00     0.163 HD
HETATM   22  F1  UNL     1      24.366   6.041  51.103  1.00  0.00    -0.199 F 
HETATM   23 CL1  UNL     1      23.613   4.292  49.388  1.00  0.00    -0.058 Cl
HETATM   24  C10 UNL     1      24.545   3.896  51.944  1.00  0.00     0.214 C 
ENDBRANCH   8  16
TORSDOF 1
ENDMDL
MODEL 6
REMARK VINA RESULT:      -7.7      3.611      5.605
REMARK  1 active torsions:
REMARK  status: ('A' for Active; 'I' for Inactive)
REMARK    1  A    between atoms: C6_8  and  N3_9 
ROOT
HETATM    1  C1  UNL     1      27.857  -0.046  53.069  1.00  0.00     0.051 C 
HETATM    2  C2  UNL     1      26.399   0.228  53.012  1.00  0.00    -0.024 A 
HETATM    3  C3  UNL     1      25.482  -0.541  53.734  1.00  0.00     0.042 A 
HETATM    4  C4  UNL     1      24.145  -0.257  53.654  1.00  0.00     0.075 A 
HETATM    5  N1  UNL     1      23.233  -0.950  54.328  1.00  0.00    -0.241 NA
HETATM    6  C5  UNL     1      21.923  -0.624  54.225  1.00  0.00     0.236 A 
HETATM    7  N2  UNL     1      21.559   0.401  53.436  1.00  0.00    -0.223 NA
HETATM    8  C6  UNL     1      22.449   1.141  52.726  1.00  0.00     0.146 A 
HETATM    9  C11 UNL     1      23.777   0.794  52.847  1.00  0.00     0.075 A 
HETATM   10  C12 UNL     1      24.616   1.585  52.117  1.00  0.00     0.119 A 
HETATM   11  C13 UNL     1      25.970   1.283  52.209  1.00  0.00     0.109 A 
HETATM   12  O1  UNL     1      26.847   2.071  51.475  1.00  0.00    -0.346 OA
HETATM   13  C14 UNL     1      26.436   2.804  50.340  1.00  0.00     0.202 C 
HETATM   14  C15 UNL     1      25.023   3.267  50.368  1.00  0.00     0.202 C 
HETATM   15  O2  UNL     1      24.208   2.625  51.329  1.00  0.00    -0.345 OA
ENDROOT
BRANCH   8  16
HETATM   16  N3  UNL     1      21.789   2.123  51.942  1.00  0.00    -0.334 N 
HETATM   17  C7  UNL     1      21.379   1.527  50.690  1.00  0.00     0.109 C 
HETATM   18  C8  UNL     1      21.037   2.290  49.638  1.00  0.00     0.104 C 
HETATM   19  N4  UNL     1      21.114   3.692  49.863  1.00  0.00    -0.349 N 
HETATM   20  C9  UNL     1      20.702   4.206  51.171  1.00  0.00     0.270 C 
HETATM   21  H8  UNL     1      21.451   4.346  49.118  1.00  0.00     0.163 HD
HETATM   22  F1  UNL     1      21.002   5.564  51.265  1.00  0.00    -0.199 F 
HETATM   23 CL1  UNL     1      18.966   4.007  51.289  1.00  0.00    -0.058 Cl
HETATM   24  C10 UNL     1      21.506   3.524  52.225  1.00  0.00     0.214 C 
ENDBRANCH   8  16
TORSDOF 1
ENDMDL
MODEL 7
REMARK VINA RESULT:      -7.6      3.325      5.523
REMARK  1 active torsions:
REMARK  status: ('A' for Active; 'I' for Inactive)
REMARK    1  A    between atoms: C6_8  and  N3_9 
ROOT
HETATM    1  C1  UNL     1      27.621   0.124  54.568  1.00  0.00     0.051 C 
HETATM    2  C2  UNL     1      26.207   0.174  54.121  1.00  0.00    -0.024 A 
HETATM    3  C3  UNL     1      25.231  -0.648  54.691  1.00  0.00     0.042 A 
HETATM    4  C4  UNL     1      23.937  -0.573  54.250  1.00  0.00     0.075 A 
HETATM    5  N1  UNL     1      22.968  -1.324  54.764  1.00  0.00    -0.241 NA
HETATM    6  C5  UNL     1      21.701  -1.206  54.303  1.00  0.00     0.236 A 
HETATM    7  N2  UNL     1      21.437  -0.325  53.322  1.00  0.00    -0.223 NA
HETATM    8  C6  UNL     1      22.387   0.466  52.761  1.00  0.00     0.146 A 
HETATM    9  C11 UNL     1      23.670   0.331  53.248  1.00  0.00     0.075 A 
HETATM   10  C12 UNL     1      24.570   1.163  52.649  1.00  0.00     0.119 A 
HETATM   11  C13 UNL     1      25.879   1.073  53.108  1.00  0.00     0.109 A 
HETATM   12  O1  UNL     1      26.818   1.907  52.515  1.00  0.00    -0.346 OA
HETATM   13  C14 UNL     1      26.633   2.460  51.228  1.00  0.00     0.202 C 
HETATM   14  C15 UNL     1      25.217   2.711  50.849  1.00  0.00     0.202 C 
HETATM   15  O2  UNL     1      24.261   2.052  51.657  1.00  0.00    -0.345 OA
ENDROOT
BRANCH   8  16
HETATM   16  N3  UNL     1      21.843   1.261  51.720  1.00  0.00    -0.334 N 
HETATM   17  C7  UNL     1      21.308   2.478  52.287  1.00  0.00     0.109 C 
HETATM   18  C8  UNL     1      20.451   3.248  51.595  1.00  0.00     0.104 C 
HETATM   19  N4  UNL     1      20.129   2.769  50.295  1.00  0.00    -0.349 N 
HETATM   20  C9  UNL     1      21.193   2.147  49.505  1.00  0.00     0.270 C 
HETATM   21  H8  UNL     1      19.161   2.858  49.907  1.00  0.00     0.163 HD
HETATM   22  F1  UNL     1      20.659   1.593  48.341  1.00  0.00    -0.199 F 
HETATM   23 CL1  UNL     1      22.319   3.411  49.056  1.00  0.00    -0.058 Cl
HETATM   24  C10 UNL     1      21.767   1.014  50.285  1.00  0.00     0.214 C 
ENDBRANCH   8  16
TORSDOF 1
ENDMDL
MODEL 8
REMARK VINA RESULT:      -7.6      3.640      5.662
REMARK  1 active torsions:
REMARK  status: ('A' for Active; 'I' for Inactive)
REMARK    1  A    between atoms: C6_8  and  N3_9 
ROOT
HETATM    1  C1  UNL     1      21.944  -1.467  54.557  1.00  0.00     0.051 C 
HETATM    2  C2  UNL     1      22.765  -0.498  53.790  1.00  0.00    -0.024 A 
HETATM    3  C3  UNL     1      24.161  -0.530  53.832  1.00  0.00     0.042 A 
HETATM    4  C4  UNL     1      24.884   0.383  53.111  1.00  0.00     0.075 A 
HETATM    5  N1  UNL     1      26.213   0.391  53.107  1.00  0.00    -0.241 NA
HETATM    6  C5  UNL     1      26.883   1.306  52.368  1.00  0.00     0.236 A 
HETATM    7  N2  UNL     1      26.191   2.202  51.644  1.00  0.00    -0.223 NA
HETATM    8  C6  UNL     1      24.834   2.239  51.612  1.00  0.00     0.146 A 
HETATM    9  C11 UNL     1      24.172   1.297  52.369  1.00  0.00     0.075 A 
HETATM   10  C12 UNL     1      22.813   1.384  52.280  1.00  0.00     0.119 A 
HETATM   11  C13 UNL     1      22.096   0.451  53.020  1.00  0.00     0.109 A 
HETATM   12  O1  UNL     1      20.710   0.518  52.951  1.00  0.00    -0.346 OA
HETATM   13  C14 UNL     1      20.026   1.697  52.583  1.00  0.00     0.202 C 
HETATM   14  C15 UNL     1      20.761   2.582  51.641  1.00  0.00     0.202 C 
HETATM   15  O2  UNL     1      22.145   2.308  51.527  1.00  0.00    -0.345 OA
ENDROOT
BRANCH   8  16
HETATM   16  N3  UNL     1      24.370   3.314  50.810  1.00  0.00    -0.334 N 
HETATM   17  C7  UNL     1      24.168   4.473  51.649  1.00  0.00     0.109 C 
HETATM   18  C8  UNL     1      23.430   5.515  51.228  1.00  0.00     0.104 C 
HETATM   19  N4  UNL     1      22.884   5.374  49.922  1.00  0.00    -0.349 N 
HETATM   20  C9  UNL     1      23.705   4.730  48.895  1.00  0.00     0.270 C 
HETATM   21  H8  UNL     1      21.924   5.721  49.694  1.00  0.00     0.163 HD
HETATM   22  F1  UNL     1      22.951   4.531  47.739  1.00  0.00    -0.199 F 
HETATM   23 CL1  UNL     1      25.025   5.819  48.521  1.00  0.00    -0.058 Cl
HETATM   24  C10 UNL     1      24.099   3.376  49.379  1.00  0.00     0.214 C 
ENDBRANCH   8  16
TORSDOF 1
ENDMDL
MODEL 9
REMARK VINA RESULT:      -7.5      8.458     10.760
REMARK  1 active torsions:
REMARK  status: ('A' for Active; 'I' for Inactive)
REMARK    1  A    between atoms: C6_8  and  N3_9 
ROOT
HETATM    1  C1  UNL     1      25.478   4.549  49.330  1.00  0.00     0.051 C 
HETATM    2  C2  UNL     1      26.653   5.384  48.974  1.00  0.00    -0.024 A 
HETATM    3  C3  UNL     1      27.875   4.810  48.613  1.00  0.00     0.042 A 
HETATM    4  C4  UNL     1      28.936   5.615  48.293  1.00  0.00     0.075 A 
HETATM    5  N1  UNL     1      30.116   5.120  47.932  1.00  0.00    -0.241 NA
HETATM    6  C5  UNL     1      31.132   5.956  47.614  1.00  0.00     0.236 A 
HETATM    7  N2  UNL     1      30.933   7.285  47.668  1.00  0.00    -0.223 NA
HETATM    8  C6  UNL     1      29.749   7.843  48.030  1.00  0.00     0.146 A 
HETATM    9  C11 UNL     1      28.728   6.973  48.348  1.00  0.00     0.075 A 
HETATM   10  C12 UNL     1      27.565   7.600  48.690  1.00  0.00     0.119 A 
HETATM   11  C13 UNL     1      26.499   6.769  49.013  1.00  0.00     0.109 A 
HETATM   12  O1  UNL     1      25.303   7.380  49.367  1.00  0.00    -0.346 OA
HETATM   13  C14 UNL     1      25.245   8.704  49.854  1.00  0.00     0.202 C 
HETATM   14  C15 UNL     1      26.304   9.611  49.337  1.00  0.00     0.202 C 
HETATM   15  O2  UNL     1      27.400   8.957  48.728  1.00  0.00    -0.345 OA
ENDROOT
BRANCH   8  16
HETATM   16  N3  UNL     1      29.835   9.258  48.050  1.00  0.00    -0.334 N 
HETATM   17  C7  UNL     1      29.602   9.763  46.716  1.00  0.00     0.109 C 
HETATM   18  C8  UNL     1      29.946  11.017  46.378  1.00  0.00     0.104 C 
HETATM   19  N4  UNL     1      30.542  11.778  47.422  1.00  0.00    -0.349 N 
HETATM   20  C9  UNL     1      30.022  11.614  48.780  1.00  0.00     0.270 C 
HETATM   21  H8  UNL     1      31.329  12.440  47.231  1.00  0.00     0.163 HD
HETATM   22  F1  UNL     1      30.829  12.302  49.685  1.00  0.00    -0.199 F 
HETATM   23 CL1  UNL     1      28.418  12.317  48.815  1.00  0.00    -0.058 Cl
HETATM   24  C10 UNL     1      30.106  10.173  49.153  1.00  0.00     0.214 C 
ENDBRANCH   8  16
TORSDOF 1
ENDMDL
