MODEL 1
REMARK VINA RESULT:      -7.2      0.000      0.000
REMARK  6 active torsions:
REMARK  status: ('A' for Active; 'I' for Inactive)
REMARK    1  A    between atoms: N2_5  and  C4_6 
REMARK    2  A    between atoms: C4_6  and  C5_7 
REMARK    3  A    between atoms: C6_8  and  C7_9 
REMARK    4  A    between atoms: C8_10  and  N3_11 
REMARK    5  A    between atoms: N3_11  and  C9_12 
REMARK    6  A    between atoms: C9_12  and  C10_13 
ROOT
HETATM    1  C7  UNL     1      26.804   4.121  49.323  1.00  0.00     0.061 C 
HETATM    2  C8  UNL     1      26.630   3.308  50.318  1.00  0.00     0.061 C 
ENDROOT
BRANCH   1   3
HETATM    3  C6  UNL     1      26.221   5.428  48.991  1.00  0.00    -0.012 C 
HETATM    4  C5  UNL     1      27.179   6.261  48.432  1.00  0.00     0.010 C 
BRANCH   4   5
HETATM    5  C4  UNL     1      28.506   5.531  48.359  1.00  0.00     0.131 C 
BRANCH   5   6
HETATM    6  N2  UNL     1      29.625   6.432  48.368  1.00  0.00    -0.349 N 
HETATM    7  C3  UNL     1      29.259   7.683  47.703  1.00  0.00     0.156 C 
HETATM    8  C2  UNL     1      30.526   8.349  47.256  1.00  0.00     0.292 C 
HETATM    9  N1  UNL     1      31.356   8.730  48.390  1.00  0.00     0.094 N 
HETATM   10  C1  UNL     1      30.583   9.460  49.369  1.00  0.00     0.310 C 
HETATM   11  C16 UNL     1      31.903   7.526  49.021  1.00  0.00     0.374 C 
HETATM   12  C15 UNL     1      30.977   6.399  48.850  1.00  0.00     0.248 C 
HETATM   13  O1  UNL     1      31.207   5.152  49.107  1.00  0.00    -0.271 OA
ENDBRANCH   5   6
ENDBRANCH   4   5
ENDBRANCH   1   3
BRANCH   2  14
HETATM   14  N3  UNL     1      26.043   2.942  51.515  1.00  0.00    -0.398 N 
HETATM   15  H14 UNL     1      25.187   3.581  51.472  1.00  0.00     0.158 HD
BRANCH  14  16
HETATM   16  C9  UNL     1      26.123   2.136  52.682  1.00  0.00     0.154 C 
BRANCH  16  17
HETATM   17  C10 UNL     1      27.420   1.636  53.109  1.00  0.00    -0.045 A 
HETATM   18  C11 UNL     1      27.641   0.318  53.083  1.00  0.00     0.007 A 
HETATM   19  C12 UNL     1      28.450  -0.825  53.275  1.00  0.00     0.017 A 
HETATM   20  C13 UNL     1      29.670  -0.317  53.740  1.00  0.00     0.083 A 
HETATM   21  N4  UNL     1      29.641   1.095  53.827  1.00  0.00    -0.395 N 
HETATM   22  C14 UNL     1      28.709   2.155  53.638  1.00  0.00     0.155 A 
HETATM   23  H20 UNL     1      30.617   1.424  54.114  1.00  0.00     0.159 HD
ENDBRANCH  16  17
ENDBRANCH  14  16
ENDBRANCH   2  14
TORSDOF 6
ENDMDL
MODEL 2
REMARK VINA RESULT:      -7.1      5.620      7.689
REMARK  6 active torsions:
REMARK  status: ('A' for Active; 'I' for Inactive)
REMARK    1  A    between atoms: N2_5  and  C4_6 
REMARK    2  A    between atoms: C4_6  and  C5_7 
REMARK    3  A    between atoms: C6_8  and  C7_9 
REMARK    4  A    between atoms: C8_10  and  N3_11 
REMARK    5  A    between atoms: N3_11  and  C9_12 
REMARK    6  A    between atoms: C9_12  and  C10_13 
ROOT
HETATM    1  C7  UNL     1      23.953   2.487  51.314  1.00  0.00     0.061 C 
HETATM    2  C8  UNL     1      23.096   1.857  50.573  1.00  0.00     0.061 C 
ENDROOT
BRANCH   1   3
HETATM    3  C6  UNL     1      23.919   2.939  52.711  1.00  0.00    -0.012 C 
HETATM    4  C5  UNL     1      25.013   2.451  53.410  1.00  0.00     0.010 C 
BRANCH   4   5
HETATM    5  C4  UNL     1      25.871   1.611  52.484  1.00  0.00     0.131 C 
BRANCH   5   6
HETATM    6  N2  UNL     1      27.059   1.127  53.131  1.00  0.00    -0.349 N 
HETATM    7  C3  UNL     1      26.741  -0.058  53.930  1.00  0.00     0.156 C 
HETATM    8  C2  UNL     1      27.808  -0.205  54.973  1.00  0.00     0.292 C 
HETATM    9  N1  UNL     1      29.107  -0.468  54.372  1.00  0.00     0.094 N 
HETATM   10  C1  UNL     1      29.021  -1.549  53.416  1.00  0.00     0.310 C 
HETATM   11  C16 UNL     1      29.580   0.736  53.682  1.00  0.00     0.374 C 
HETATM   12  C15 UNL     1      28.439   1.518  53.189  1.00  0.00     0.248 C 
HETATM   13  O1  UNL     1      28.464   2.717  52.706  1.00  0.00    -0.271 OA
ENDBRANCH   5   6
ENDBRANCH   4   5
ENDBRANCH   1   3
BRANCH   2  14
HETATM   14  N3  UNL     1      21.876   1.242  50.360  1.00  0.00    -0.398 N 
HETATM   15  H14 UNL     1      21.690   1.601  49.371  1.00  0.00     0.158 HD
BRANCH  14  16
HETATM   16  C9  UNL     1      20.858   0.405  50.890  1.00  0.00     0.154 C 
BRANCH  16  17
HETATM   17  C10 UNL     1      20.918   0.018  52.291  1.00  0.00    -0.045 A 
HETATM   18  C11 UNL     1      22.088  -0.384  52.795  1.00  0.00     0.007 A 
HETATM   19  C12 UNL     1      22.911  -0.847  53.848  1.00  0.00     0.017 A 
HETATM   20  C13 UNL     1      22.053  -0.930  54.952  1.00  0.00     0.083 A 
HETATM   21  N4  UNL     1      20.740  -0.524  54.618  1.00  0.00    -0.395 N 
HETATM   22  C14 UNL     1      20.014  -0.112  53.464  1.00  0.00     0.155 A 
HETATM   23  H20 UNL     1      20.155  -0.539  55.513  1.00  0.00     0.159 HD
ENDBRANCH  16  17
ENDBRANCH  14  16
ENDBRANCH   2  14
TORSDOF 6
ENDMDL
MODEL 3
REMARK VINA RESULT:      -6.7      5.627      8.664
REMARK  6 active torsions:
REMARK  status: ('A' for Active; 'I' for Inactive)
REMARK    1  A    between atoms: N2_5  and  C4_6 
REMARK    2  A    between atoms: C4_6  and  C5_7 
REMARK    3  A    between atoms: C6_8  and  C7_9 
REMARK    4  A    between atoms: C8_10  and  N3_11 
REMARK    5  A    between atoms: N3_11  and  C9_12 
REMARK    6  A    between atoms: C9_12  and  C10_13 
ROOT
HETATM    1  C7  UNL     1      23.574   1.381  51.905  1.00  0.00     0.061 C 
HETATM    2  C8  UNL     1      22.591   1.066  51.121  1.00  0.00     0.061 C 
ENDROOT
BRANCH   1   3
HETATM    3  C6  UNL     1      23.709   2.366  52.986  1.00  0.00    -0.012 C 
HETATM    4  C5  UNL     1      25.046   2.588  53.279  1.00  0.00     0.010 C 
BRANCH   4   5
HETATM    5  C4  UNL     1      25.912   1.731  52.378  1.00  0.00     0.131 C 
BRANCH   5   6
HETATM    6  N2  UNL     1      27.062   1.207  53.062  1.00  0.00    -0.349 N 
HETATM    7  C3  UNL     1      26.676   0.041  53.858  1.00  0.00     0.156 C 
HETATM    8  C2  UNL     1      27.705  -0.140  54.933  1.00  0.00     0.292 C 
HETATM    9  N1  UNL     1      29.011  -0.455  54.372  1.00  0.00     0.094 N 
HETATM   10  C1  UNL     1      28.912  -1.538  53.420  1.00  0.00     0.310 C 
HETATM   11  C16 UNL     1      29.549   0.725  53.690  1.00  0.00     0.374 C 
HETATM   12  C15 UNL     1      28.453   1.546  53.158  1.00  0.00     0.248 C 
HETATM   13  O1  UNL     1      28.538   2.741  52.670  1.00  0.00    -0.271 OA
ENDBRANCH   5   6
ENDBRANCH   4   5
ENDBRANCH   1   3
BRANCH   2  14
HETATM   14  N3  UNL     1      21.294   1.204  50.663  1.00  0.00    -0.398 N 
HETATM   15  H14 UNL     1      21.511   1.430  49.641  1.00  0.00     0.158 HD
BRANCH  14  16
HETATM   16  C9  UNL     1      19.910   1.180  50.983  1.00  0.00     0.154 C 
BRANCH  16  17
HETATM   17  C10 UNL     1      19.433   0.241  51.988  1.00  0.00    -0.045 A 
HETATM   18  C11 UNL     1      18.212  -0.285  51.846  1.00  0.00     0.007 A 
HETATM   19  C12 UNL     1      17.149  -1.120  52.256  1.00  0.00     0.017 A 
HETATM   20  C13 UNL     1      17.609  -1.720  53.436  1.00  0.00     0.083 A 
HETATM   21  N4  UNL     1      18.918  -1.292  53.755  1.00  0.00    -0.395 N 
HETATM   22  C14 UNL     1      19.891  -0.376  53.260  1.00  0.00     0.155 A 
HETATM   23  H20 UNL     1      19.240  -1.838  54.617  1.00  0.00     0.159 HD
ENDBRANCH  16  17
ENDBRANCH  14  16
ENDBRANCH   2  14
TORSDOF 6
ENDMDL
MODEL 4
REMARK VINA RESULT:      -6.7      2.265      8.027
REMARK  6 active torsions:
REMARK  status: ('A' for Active; 'I' for Inactive)
REMARK    1  A    between atoms: N2_5  and  C4_6 
REMARK    2  A    between atoms: C4_6  and  C5_7 
REMARK    3  A    between atoms: C6_8  and  C7_9 
REMARK    4  A    between atoms: C8_10  and  N3_11 
REMARK    5  A    between atoms: N3_11  and  C9_12 
REMARK    6  A    between atoms: C9_12  and  C10_13 
ROOT
HETATM    1  C7  UNL     1      26.304   3.600  49.670  1.00  0.00     0.061 C 
HETATM    2  C8  UNL     1      26.562   4.709  49.050  1.00  0.00     0.061 C 
ENDROOT
BRANCH   1   3
HETATM    3  C6  UNL     1      25.108   3.099  50.360  1.00  0.00    -0.012 C 
HETATM    4  C5  UNL     1      25.463   2.356  51.476  1.00  0.00     0.010 C 
BRANCH   4   5
HETATM    5  C4  UNL     1      26.973   2.316  51.598  1.00  0.00     0.131 C 
BRANCH   5   6
HETATM    6  N2  UNL     1      27.413   1.424  52.635  1.00  0.00    -0.349 N 
HETATM    7  C3  UNL     1      26.872   0.085  52.400  1.00  0.00     0.156 C 
HETATM    8  C2  UNL     1      26.880  -0.648  53.708  1.00  0.00     0.292 C 
HETATM    9  N1  UNL     1      28.237  -0.847  54.198  1.00  0.00     0.094 N 
HETATM   10  C1  UNL     1      29.077  -1.411  53.165  1.00  0.00     0.310 C 
HETATM   11  C16 UNL     1      28.801   0.439  54.615  1.00  0.00     0.374 C 
HETATM   12  C15 UNL     1      28.223   1.529  53.816  1.00  0.00     0.248 C 
HETATM   13  O1  UNL     1      28.340   2.799  54.027  1.00  0.00    -0.271 OA
ENDBRANCH   5   6
ENDBRANCH   4   5
ENDBRANCH   1   3
BRANCH   2  14
HETATM   14  N3  UNL     1      26.215   5.964  48.587  1.00  0.00    -0.398 N 
HETATM   15  H14 UNL     1      26.098   5.723  47.552  1.00  0.00     0.158 HD
BRANCH  14  16
HETATM   16  C9  UNL     1      25.983   7.328  48.908  1.00  0.00     0.154 C 
BRANCH  16  17
HETATM   17  C10 UNL     1      27.104   8.159  49.320  1.00  0.00    -0.045 A 
HETATM   18  C11 UNL     1      28.280   8.001  48.704  1.00  0.00     0.007 A 
HETATM   19  C12 UNL     1      29.641   8.319  48.493  1.00  0.00     0.017 A 
HETATM   20  C13 UNL     1      29.908   9.343  49.411  1.00  0.00     0.083 A 
HETATM   21  N4  UNL     1      28.759   9.671  50.167  1.00  0.00    -0.395 N 
HETATM   22  C14 UNL     1      27.415   9.220  50.314  1.00  0.00     0.155 A 
HETATM   23  H20 UNL     1      29.005  10.502  50.793  1.00  0.00     0.159 HD
ENDBRANCH  16  17
ENDBRANCH  14  16
ENDBRANCH   2  14
TORSDOF 6
ENDMDL
MODEL 5
REMARK VINA RESULT:      -6.6      3.059      8.059
REMARK  6 active torsions:
REMARK  status: ('A' for Active; 'I' for Inactive)
REMARK    1  A    between atoms: N2_5  and  C4_6 
REMARK    2  A    between atoms: C4_6  and  C5_7 
REMARK    3  A    between atoms: C6_8  and  C7_9 
REMARK    4  A    between atoms: C8_10  and  N3_11 
REMARK    5  A    between atoms: N3_11  and  C9_12 
REMARK    6  A    between atoms: C9_12  and  C10_13 
ROOT
HETATM    1  C7  UNL     1      26.469   4.164  49.118  1.00  0.00     0.061 C 
HETATM    2  C8  UNL     1      26.990   5.350  49.157  1.00  0.00     0.061 C 
ENDROOT
BRANCH   1   3
HETATM    3  C6  UNL     1      25.147   3.644  49.490  1.00  0.00    -0.012 C 
HETATM    4  C5  UNL     1      25.241   2.823  50.604  1.00  0.00     0.010 C 
BRANCH   4   5
HETATM    5  C4  UNL     1      26.686   2.744  51.055  1.00  0.00     0.131 C 
BRANCH   5   6
HETATM    6  N2  UNL     1      26.876   1.796  52.116  1.00  0.00    -0.349 N 
HETATM    7  C3  UNL     1      25.707   0.920  52.213  1.00  0.00     0.156 C 
HETATM    8  C2  UNL     1      25.683   0.340  53.595  1.00  0.00     0.292 C 
HETATM    9  N1  UNL     1      26.839  -0.511  53.835  1.00  0.00     0.094 N 
HETATM   10  C1  UNL     1      27.002  -1.469  52.764  1.00  0.00     0.310 C 
HETATM   11  C16 UNL     1      28.047   0.314  53.919  1.00  0.00     0.374 C 
HETATM   12  C15 UNL     1      27.900   1.513  53.082  1.00  0.00     0.248 C 
HETATM   13  O1  UNL     1      28.675   2.548  53.057  1.00  0.00    -0.271 OA
ENDBRANCH   5   6
ENDBRANCH   4   5
ENDBRANCH   1   3
BRANCH   2  14
HETATM   14  N3  UNL     1      26.938   6.705  49.431  1.00  0.00    -0.398 N 
HETATM   15  H14 UNL     1      27.976   6.929  49.309  1.00  0.00     0.158 HD
BRANCH  14  16
HETATM   16  C9  UNL     1      26.128   7.816  49.787  1.00  0.00     0.154 C 
BRANCH  16  17
HETATM   17  C10 UNL     1      24.775   7.580  50.268  1.00  0.00    -0.045 A 
HETATM   18  C11 UNL     1      23.764   8.229  49.682  1.00  0.00     0.007 A 
HETATM   19  C12 UNL     1      22.395   8.543  49.525  1.00  0.00     0.017 A 
HETATM   20  C13 UNL     1      21.744   7.767  50.493  1.00  0.00     0.083 A 
HETATM   21  N4  UNL     1      22.663   6.981  51.227  1.00  0.00    -0.395 N 
HETATM   22  C14 UNL     1      24.072   6.792  51.314  1.00  0.00     0.155 A 
HETATM   23  H20 UNL     1      22.103   6.360  51.894  1.00  0.00     0.159 HD
ENDBRANCH  16  17
ENDBRANCH  14  16
ENDBRANCH   2  14
TORSDOF 6
ENDMDL
MODEL 6
REMARK VINA RESULT:      -6.6      2.123      2.633
REMARK  6 active torsions:
REMARK  status: ('A' for Active; 'I' for Inactive)
REMARK    1  A    between atoms: N2_5  and  C4_6 
REMARK    2  A    between atoms: C4_6  and  C5_7 
REMARK    3  A    between atoms: C6_8  and  C7_9 
REMARK    4  A    between atoms: C8_10  and  N3_11 
REMARK    5  A    between atoms: N3_11  and  C9_12 
REMARK    6  A    between atoms: C9_12  and  C10_13 
ROOT
HETATM    1  C7  UNL     1      26.635   5.232  49.042  1.00  0.00     0.061 C 
HETATM    2  C8  UNL     1      26.013   4.619  50.000  1.00  0.00     0.061 C 
ENDROOT
BRANCH   1   3
HETATM    3  C6  UNL     1      27.980   5.081  48.470  1.00  0.00    -0.012 C 
HETATM    4  C5  UNL     1      28.544   6.322  48.216  1.00  0.00     0.010 C 
BRANCH   4   5
HETATM    5  C4  UNL     1      27.571   7.413  48.617  1.00  0.00     0.131 C 
BRANCH   5   6
HETATM    6  N2  UNL     1      28.223   8.677  48.821  1.00  0.00    -0.349 N 
HETATM    7  C3  UNL     1      29.670   8.520  48.663  1.00  0.00     0.156 C 
HETATM    8  C2  UNL     1      30.334   9.654  49.385  1.00  0.00     0.292 C 
HETATM    9  N1  UNL     1      30.004  10.936  48.779  1.00  0.00     0.094 N 
HETATM   10  C1  UNL     1      30.221  10.899  47.350  1.00  0.00     0.310 C 
HETATM   11  C16 UNL     1      28.596  11.251  49.036  1.00  0.00     0.374 C 
HETATM   12  C15 UNL     1      27.811  10.014  49.141  1.00  0.00     0.248 C 
HETATM   13  O1  UNL     1      26.588   9.897  49.545  1.00  0.00    -0.271 OA
ENDBRANCH   5   6
ENDBRANCH   4   5
ENDBRANCH   1   3
BRANCH   2  14
HETATM   14  N3  UNL     1      25.936   3.670  51.003  1.00  0.00    -0.398 N 
HETATM   15  H14 UNL     1      26.084   4.317  51.841  1.00  0.00     0.158 HD
BRANCH  14  16
HETATM   16  C9  UNL     1      25.763   2.300  51.333  1.00  0.00     0.154 C 
BRANCH  16  17
HETATM   17  C10 UNL     1      26.769   1.636  52.148  1.00  0.00    -0.045 A 
HETATM   18  C11 UNL     1      26.749   0.302  52.232  1.00  0.00     0.007 A 
HETATM   19  C12 UNL     1      27.249  -0.935  52.696  1.00  0.00     0.017 A 
HETATM   20  C13 UNL     1      28.351  -0.592  53.491  1.00  0.00     0.083 A 
HETATM   21  N4  UNL     1      28.550   0.808  53.520  1.00  0.00    -0.395 N 
HETATM   22  C14 UNL     1      27.918   1.985  53.025  1.00  0.00     0.155 A 
HETATM   23  H20 UNL     1      29.442   1.000  54.077  1.00  0.00     0.159 HD
ENDBRANCH  16  17
ENDBRANCH  14  16
ENDBRANCH   2  14
TORSDOF 6
ENDMDL
MODEL 7
REMARK VINA RESULT:      -6.6      2.333      7.694
REMARK  6 active torsions:
REMARK  status: ('A' for Active; 'I' for Inactive)
REMARK    1  A    between atoms: N2_5  and  C4_6 
REMARK    2  A    between atoms: C4_6  and  C5_7 
REMARK    3  A    between atoms: C6_8  and  C7_9 
REMARK    4  A    between atoms: C8_10  and  N3_11 
REMARK    5  A    between atoms: N3_11  and  C9_12 
REMARK    6  A    between atoms: C9_12  and  C10_13 
ROOT
HETATM    1  C7  UNL     1      23.633   2.122  50.839  1.00  0.00     0.061 C 
HETATM    2  C8  UNL     1      23.888   2.861  49.805  1.00  0.00     0.061 C 
ENDROOT
BRANCH   1   3
HETATM    3  C6  UNL     1      23.314   2.442  52.237  1.00  0.00    -0.012 C 
HETATM    4  C5  UNL     1      24.157   1.755  53.099  1.00  0.00     0.010 C 
BRANCH   4   5
HETATM    5  C4  UNL     1      25.120   0.904  52.295  1.00  0.00     0.131 C 
BRANCH   5   6
HETATM    6  N2  UNL     1      26.421   0.834  52.900  1.00  0.00    -0.349 N 
HETATM    7  C3  UNL     1      26.433  -0.205  53.931  1.00  0.00     0.156 C 
HETATM    8  C2  UNL     1      27.558   0.099  54.874  1.00  0.00     0.292 C 
HETATM    9  N1  UNL     1      28.849   0.012  54.207  1.00  0.00     0.094 N 
HETATM   10  C1  UNL     1      28.968  -1.232  53.480  1.00  0.00     0.310 C 
HETATM   11  C16 UNL     1      28.990   1.125  53.264  1.00  0.00     0.374 C 
HETATM   12  C15 UNL     1      27.672   1.521  52.749  1.00  0.00     0.248 C 
HETATM   13  O1  UNL     1      27.390   2.574  52.053  1.00  0.00    -0.271 OA
ENDBRANCH   5   6
ENDBRANCH   4   5
ENDBRANCH   1   3
BRANCH   2  14
HETATM   14  N3  UNL     1      24.055   4.084  49.182  1.00  0.00    -0.398 N 
HETATM   15  H14 UNL     1      23.408   3.923  48.346  1.00  0.00     0.158 HD
BRANCH  14  16
HETATM   16  C9  UNL     1      24.694   5.352  49.202  1.00  0.00     0.154 C 
BRANCH  16  17
HETATM   17  C10 UNL     1      26.112   5.435  48.889  1.00  0.00    -0.045 A 
HETATM   18  C11 UNL     1      26.588   6.567  48.361  1.00  0.00     0.007 A 
HETATM   19  C12 UNL     1      27.629   7.375  47.852  1.00  0.00     0.017 A 
HETATM   20  C13 UNL     1      28.774   6.574  47.948  1.00  0.00     0.083 A 
HETATM   21  N4  UNL     1      28.475   5.311  48.508  1.00  0.00    -0.395 N 
HETATM   22  C14 UNL     1      27.331   4.585  48.950  1.00  0.00     0.155 A 
HETATM   23  H20 UNL     1      29.394   4.778  48.624  1.00  0.00     0.159 HD
ENDBRANCH  16  17
ENDBRANCH  14  16
ENDBRANCH   2  14
TORSDOF 6
ENDMDL
MODEL 8
REMARK VINA RESULT:      -6.5      6.741      9.654
REMARK  6 active torsions:
REMARK  status: ('A' for Active; 'I' for Inactive)
REMARK    1  A    between atoms: N2_5  and  C4_6 
REMARK    2  A    between atoms: C4_6  and  C5_7 
REMARK    3  A    between atoms: C6_8  and  C7_9 
REMARK    4  A    between atoms: C8_10  and  N3_11 
REMARK    5  A    between atoms: N3_11  and  C9_12 
REMARK    6  A    between atoms: C9_12  and  C10_13 
ROOT
HETATM    1  C7  UNL     1      22.325   0.800  51.783  1.00  0.00     0.061 C 
HETATM    2  C8  UNL     1      21.263   0.064  51.894  1.00  0.00     0.061 C 
ENDROOT
BRANCH   1   3
HETATM    3  C6  UNL     1      22.698   2.103  52.350  1.00  0.00    -0.012 C 
HETATM    4  C5  UNL     1      23.865   1.997  53.090  1.00  0.00     0.010 C 
BRANCH   4   5
HETATM    5  C4  UNL     1      24.356   0.563  53.061  1.00  0.00     0.131 C 
BRANCH   5   6
HETATM    6  N2  UNL     1      25.744   0.453  53.411  1.00  0.00    -0.349 N 
HETATM    7  C3  UNL     1      26.575   0.884  52.285  1.00  0.00     0.156 C 
HETATM    8  C2  UNL     1      27.932   0.273  52.458  1.00  0.00     0.292 C 
HETATM    9  N1  UNL     1      28.593   0.774  53.654  1.00  0.00     0.094 N 
HETATM   10  C1  UNL     1      28.554   2.218  53.694  1.00  0.00     0.310 C 
HETATM   11  C16 UNL     1      27.917   0.250  54.844  1.00  0.00     0.374 C 
HETATM   12  C15 UNL     1      26.493   0.029  54.560  1.00  0.00     0.248 C 
HETATM   13  O1  UNL     1      25.636  -0.595  55.301  1.00  0.00    -0.271 OA
ENDBRANCH   5   6
ENDBRANCH   4   5
ENDBRANCH   1   3
BRANCH   2  14
HETATM   14  N3  UNL     1      19.998  -0.198  52.387  1.00  0.00    -0.398 N 
HETATM   15  H14 UNL     1      19.430   0.133  51.544  1.00  0.00     0.158 HD
BRANCH  14  16
HETATM   16  C9  UNL     1      19.221  -0.679  53.474  1.00  0.00     0.154 C 
BRANCH  16  17
HETATM   17  C10 UNL     1      17.966  -1.361  53.199  1.00  0.00    -0.045 A 
HETATM   18  C11 UNL     1      17.850  -2.651  53.531  1.00  0.00     0.007 A 
HETATM   19  C12 UNL     1      17.134  -3.866  53.622  1.00  0.00     0.017 A 
HETATM   20  C13 UNL     1      15.877  -3.573  53.078  1.00  0.00     0.083 A 
HETATM   21  N4  UNL     1      15.793  -2.222  52.670  1.00  0.00    -0.395 N 
HETATM   22  C14 UNL     1      16.639  -1.078  52.592  1.00  0.00     0.155 A 
HETATM   23  H20 UNL     1      14.793  -2.042  52.336  1.00  0.00     0.159 HD
ENDBRANCH  16  17
ENDBRANCH  14  16
ENDBRANCH   2  14
TORSDOF 6
ENDMDL
MODEL 9
REMARK VINA RESULT:      -6.5      2.757      8.105
REMARK  6 active torsions:
REMARK  status: ('A' for Active; 'I' for Inactive)
REMARK    1  A    between atoms: N2_5  and  C4_6 
REMARK    2  A    between atoms: C4_6  and  C5_7 
REMARK    3  A    between atoms: C6_8  and  C7_9 
REMARK    4  A    between atoms: C8_10  and  N3_11 
REMARK    5  A    between atoms: N3_11  and  C9_12 
REMARK    6  A    between atoms: C9_12  and  C10_13 
ROOT
HETATM    1  C7  UNL     1      25.527   5.722  49.750  1.00  0.00     0.061 C 
HETATM    2  C8  UNL     1      25.654   6.902  50.272  1.00  0.00     0.061 C 
ENDROOT
BRANCH   1   3
HETATM    3  C6  UNL     1      26.474   4.824  49.076  1.00  0.00    -0.012 C 
HETATM    4  C5  UNL     1      26.335   3.526  49.547  1.00  0.00     0.010 C 
BRANCH   4   5
HETATM    5  C4  UNL     1      25.248   3.484  50.603  1.00  0.00     0.131 C 
BRANCH   5   6
HETATM    6  N2  UNL     1      25.278   2.270  51.369  1.00  0.00    -0.349 N 
HETATM    7  C3  UNL     1      26.664   1.918  51.685  1.00  0.00     0.156 C 
HETATM    8  C2  UNL     1      26.706   0.449  51.983  1.00  0.00     0.292 C 
HETATM    9  N1  UNL     1      25.932   0.125  53.173  1.00  0.00     0.094 N 
HETATM   10  C1  UNL     1      26.294   0.991  54.272  1.00  0.00     0.310 C 
HETATM   11  C16 UNL     1      24.504   0.294  52.889  1.00  0.00     0.374 C 
HETATM   12  C15 UNL     1      24.309   1.341  51.878  1.00  0.00     0.248 C 
HETATM   13  O1  UNL     1      23.215   1.627  51.251  1.00  0.00    -0.271 OA
ENDBRANCH   5   6
ENDBRANCH   4   5
ENDBRANCH   1   3
BRANCH   2  14
HETATM   14  N3  UNL     1      26.391   8.022  50.608  1.00  0.00    -0.398 N 
HETATM   15  H14 UNL     1      26.307   7.952  51.672  1.00  0.00     0.158 HD
BRANCH  14  16
HETATM   16  C9  UNL     1      27.142   9.135  50.144  1.00  0.00     0.154 C 
BRANCH  16  17
HETATM   17  C10 UNL     1      28.337   8.901  49.348  1.00  0.00    -0.045 A 
HETATM   18  C11 UNL     1      28.268   8.045  48.324  1.00  0.00     0.007 A 
HETATM   19  C12 UNL     1      28.825   7.352  47.225  1.00  0.00     0.017 A 
HETATM   20  C13 UNL     1      30.155   7.789  47.173  1.00  0.00     0.083 A 
HETATM   21  N4  UNL     1      30.428   8.732  48.192  1.00  0.00    -0.395 N 
HETATM   22  C14 UNL     1      29.760   9.325  49.302  1.00  0.00     0.155 A 
HETATM   23  H20 UNL     1      31.430   9.081  48.055  1.00  0.00     0.159 HD
ENDBRANCH  16  17
ENDBRANCH  14  16
ENDBRANCH   2  14
TORSDOF 6
ENDMDL
