MODEL 1
REMARK VINA RESULT:      -7.9      0.000      0.000
REMARK  5 active torsions:
REMARK  status: ('A' for Active; 'I' for Inactive)
REMARK    1  A    between atoms: C12_15  and  C13_16 
REMARK    2  A    between atoms: C13_16  and  C14_17 
REMARK    3  A    between atoms: C14_17  and  N4_18 
REMARK    4  A    between atoms: C14_17  and  C15_19 
REMARK    5  A    between atoms: C15_19  and  C16_20 
ROOT
HETATM    1  C1  UNL     1      19.004   3.872  50.411  1.00  0.00     0.179 C 
HETATM    2  N1  UNL     1      20.173   3.268  49.759  1.00  0.00    -0.276 N 
HETATM    3  N2  UNL     1      20.068   2.683  48.469  1.00  0.00    -0.189 NA
HETATM    4  C2  UNL     1      21.156   2.179  47.994  1.00  0.00     0.114 C 
HETATM    5  C3  UNL     1      22.530   2.123  48.625  1.00  0.00     0.086 C 
HETATM    6  C4  UNL     1      22.420   2.159  50.113  1.00  0.00     0.077 C 
HETATM    7  C5  UNL     1      21.755   0.919  50.581  1.00  0.00     0.046 C 
HETATM    8  C6  UNL     1      21.414   3.277  50.449  1.00  0.00     0.058 C 
HETATM    9  C7  UNL     1      21.313   4.378  51.253  1.00  0.00     0.029 C 
HETATM   10  C8  UNL     1      22.289   4.804  52.321  1.00  0.00     0.003 C 
HETATM   11  C9  UNL     1      23.591   4.680  52.771  1.00  0.00     0.011 C 
HETATM   12  C10 UNL     1      24.192   3.508  52.096  1.00  0.00    -0.020 C 
HETATM   13  C11 UNL     1      24.880   3.296  50.894  1.00  0.00     0.097 C 
HETATM   14  N3  UNL     1      23.652   2.447  50.825  1.00  0.00    -0.366 N 
HETATM   15  C12 UNL     1      24.305   2.020  52.082  1.00  0.00     0.121 C 
ENDROOT
BRANCH  15  16
HETATM   16  C13 UNL     1      23.683   1.154  53.027  1.00  0.00     0.066 C 
BRANCH  16  17
HETATM   17  C14 UNL     1      24.554   0.092  53.601  1.00  0.00     0.224 C 
BRANCH  17  18
HETATM   18  N4  UNL     1      23.588  -0.863  54.220  1.00  0.00     0.083 N 
HETATM   19  H18 UNL     1      22.725  -0.394  54.503  1.00  0.00     0.313 HD
HETATM   20  H19 UNL     1      23.502  -1.721  53.653  1.00  0.00     0.313 HD
ENDBRANCH  17  18
BRANCH  17  21
HETATM   21  C15 UNL     1      25.487  -0.646  52.721  1.00  0.00     0.073 C 
BRANCH  21  22
HETATM   22  C16 UNL     1      26.884  -0.428  53.295  1.00  0.00    -0.056 A 
HETATM   23  C17 UNL     1      27.274   0.611  54.104  1.00  0.00     0.007 A 
HETATM   24  C18 UNL     1      28.585   0.641  54.527  1.00  0.00     0.001 A 
HETATM   25  C19 UNL     1      29.453  -0.364  54.128  1.00  0.00     0.000 A 
HETATM   26  C20 UNL     1      29.051  -1.403  53.315  1.00  0.00     0.001 A 
HETATM   27  C21 UNL     1      27.739  -1.440  52.886  1.00  0.00     0.007 A 
ENDBRANCH  21  22
ENDBRANCH  17  21
ENDBRANCH  16  17
ENDBRANCH  15  16
TORSDOF 5
ENDMDL
MODEL 2
REMARK VINA RESULT:      -7.8      1.546      3.012
REMARK  5 active torsions:
REMARK  status: ('A' for Active; 'I' for Inactive)
REMARK    1  A    between atoms: C12_15  and  C13_16 
REMARK    2  A    between atoms: C13_16  and  C14_17 
REMARK    3  A    between atoms: C14_17  and  N4_18 
REMARK    4  A    between atoms: C14_17  and  C15_19 
REMARK    5  A    between atoms: C15_19  and  C16_20 
ROOT
HETATM    1  C1  UNL     1      22.917   5.031  47.845  1.00  0.00     0.179 C 
HETATM    2  N1  UNL     1      22.628   5.092  49.284  1.00  0.00    -0.276 N 
HETATM    3  N2  UNL     1      22.553   6.338  49.960  1.00  0.00    -0.189 NA
HETATM    4  C2  UNL     1      22.298   6.274  51.223  1.00  0.00     0.114 C 
HETATM    5  C3  UNL     1      22.071   5.050  52.084  1.00  0.00     0.086 C 
HETATM    6  C4  UNL     1      22.759   3.865  51.493  1.00  0.00     0.077 C 
HETATM    7  C5  UNL     1      24.225   4.079  51.546  1.00  0.00     0.046 C 
HETATM    8  C6  UNL     1      22.430   3.875  49.987  1.00  0.00     0.058 C 
HETATM    9  C7  UNL     1      21.959   3.031  49.020  1.00  0.00     0.029 C 
HETATM   10  C8  UNL     1      21.708   1.551  49.164  1.00  0.00     0.003 C 
HETATM   11  C9  UNL     1      21.482   0.529  50.067  1.00  0.00     0.011 C 
HETATM   12  C10 UNL     1      21.865   1.022  51.410  1.00  0.00    -0.020 C 
HETATM   13  C11 UNL     1      21.212   1.707  52.443  1.00  0.00     0.097 C 
HETATM   14  N3  UNL     1      22.353   2.576  52.024  1.00  0.00    -0.366 N 
HETATM   15  C12 UNL     1      22.996   1.284  52.348  1.00  0.00     0.121 C 
ENDROOT
BRANCH  15  16
HETATM   16  C13 UNL     1      24.363   1.001  52.063  1.00  0.00     0.066 C 
BRANCH  16  17
HETATM   17  C14 UNL     1      25.085   0.205  53.094  1.00  0.00     0.224 C 
BRANCH  17  18
HETATM   18  N4  UNL     1      23.992  -0.333  53.956  1.00  0.00     0.083 N 
HETATM   19  H18 UNL     1      23.390   0.413  54.309  1.00  0.00     0.313 HD
HETATM   20  H19 UNL     1      23.536  -1.144  53.511  1.00  0.00     0.313 HD
ENDBRANCH  17  18
BRANCH  17  21
HETATM   21  C15 UNL     1      25.977  -0.898  52.675  1.00  0.00     0.073 C 
BRANCH  21  22
HETATM   22  C16 UNL     1      27.394  -0.472  53.048  1.00  0.00    -0.056 A 
HETATM   23  C17 UNL     1      27.806   0.807  53.334  1.00  0.00     0.007 A 
HETATM   24  C18 UNL     1      29.133   1.001  53.650  1.00  0.00     0.001 A 
HETATM   25  C19 UNL     1      29.994  -0.086  53.669  1.00  0.00     0.000 A 
HETATM   26  C20 UNL     1      29.571  -1.366  53.380  1.00  0.00     0.001 A 
HETATM   27  C21 UNL     1      28.242  -1.568  53.061  1.00  0.00     0.007 A 
ENDBRANCH  21  22
ENDBRANCH  17  21
ENDBRANCH  16  17
ENDBRANCH  15  16
TORSDOF 5
ENDMDL
MODEL 3
REMARK VINA RESULT:      -7.7      2.155      3.370
REMARK  5 active torsions:
REMARK  status: ('A' for Active; 'I' for Inactive)
REMARK    1  A    between atoms: C12_15  and  C13_16 
REMARK    2  A    between atoms: C13_16  and  C14_17 
REMARK    3  A    between atoms: C14_17  and  N4_18 
REMARK    4  A    between atoms: C14_17  and  C15_19 
REMARK    5  A    between atoms: C15_19  and  C16_20 
ROOT
HETATM    1  C1  UNL     1      24.470   8.162  50.828  1.00  0.00     0.179 C 
HETATM    2  N1  UNL     1      23.361   7.225  50.610  1.00  0.00    -0.276 N 
HETATM    3  N2  UNL     1      22.017   7.683  50.565  1.00  0.00    -0.189 NA
HETATM    4  C2  UNL     1      21.123   6.773  50.373  1.00  0.00     0.114 C 
HETATM    5  C3  UNL     1      21.310   5.283  50.191  1.00  0.00     0.086 C 
HETATM    6  C4  UNL     1      22.571   4.833  50.852  1.00  0.00     0.077 C 
HETATM    7  C5  UNL     1      22.438   5.006  52.319  1.00  0.00     0.046 C 
HETATM    8  C6  UNL     1      23.660   5.846  50.449  1.00  0.00     0.058 C 
HETATM    9  C7  UNL     1      24.926   5.862  49.933  1.00  0.00     0.029 C 
HETATM   10  C8  UNL     1      25.812   4.666  49.692  1.00  0.00     0.003 C 
HETATM   11  C9  UNL     1      25.832   3.296  49.513  1.00  0.00     0.011 C 
HETATM   12  C10 UNL     1      24.524   2.765  49.961  1.00  0.00    -0.020 C 
HETATM   13  C11 UNL     1      23.278   2.548  49.358  1.00  0.00     0.097 C 
HETATM   14  N3  UNL     1      23.038   3.512  50.475  1.00  0.00    -0.366 N 
HETATM   15  C12 UNL     1      23.696   2.363  51.136  1.00  0.00     0.121 C 
ENDROOT
BRANCH  15  16
HETATM   16  C13 UNL     1      24.144   2.395  52.488  1.00  0.00     0.066 C 
BRANCH  16  17
HETATM   17  C14 UNL     1      24.574   1.087  53.056  1.00  0.00     0.224 C 
BRANCH  17  18
HETATM   18  N4  UNL     1      23.338   0.253  52.999  1.00  0.00     0.083 N 
HETATM   19  H18 UNL     1      23.559  -0.743  52.936  1.00  0.00     0.313 HD
HETATM   20  H19 UNL     1      22.660   0.546  53.720  1.00  0.00     0.313 HD
ENDBRANCH  17  18
BRANCH  17  21
HETATM   21  C15 UNL     1      25.698   0.353  52.436  1.00  0.00     0.073 C 
BRANCH  21  22
HETATM   22  C16 UNL     1      26.970   0.872  53.099  1.00  0.00    -0.056 A 
HETATM   23  C17 UNL     1      27.545   2.103  52.896  1.00  0.00     0.007 A 
HETATM   24  C18 UNL     1      28.700   2.398  53.587  1.00  0.00     0.001 A 
HETATM   25  C19 UNL     1      29.235   1.454  54.451  1.00  0.00     0.000 A 
HETATM   26  C20 UNL     1      28.651   0.221  54.648  1.00  0.00     0.001 A 
HETATM   27  C21 UNL     1      27.493  -0.082  53.958  1.00  0.00     0.007 A 
ENDBRANCH  21  22
ENDBRANCH  17  21
ENDBRANCH  16  17
ENDBRANCH  15  16
TORSDOF 5
ENDMDL
MODEL 4
REMARK VINA RESULT:      -7.4      1.556      1.888
REMARK  5 active torsions:
REMARK  status: ('A' for Active; 'I' for Inactive)
REMARK    1  A    between atoms: C12_15  and  C13_16 
REMARK    2  A    between atoms: C13_16  and  C14_17 
REMARK    3  A    between atoms: C14_17  and  N4_18 
REMARK    4  A    between atoms: C14_17  and  C15_19 
REMARK    5  A    between atoms: C15_19  and  C16_20 
ROOT
HETATM    1  C1  UNL     1      19.200   3.807  50.823  1.00  0.00     0.179 C 
HETATM    2  N1  UNL     1      20.224   3.348  49.875  1.00  0.00    -0.276 N 
HETATM    3  N2  UNL     1      19.877   2.532  48.765  1.00  0.00    -0.189 NA
HETATM    4  C2  UNL     1      20.856   2.184  48.000  1.00  0.00     0.114 C 
HETATM    5  C3  UNL     1      22.325   2.524  48.126  1.00  0.00     0.086 C 
HETATM    6  C4  UNL     1      22.674   2.803  49.550  1.00  0.00     0.077 C 
HETATM    7  C5  UNL     1      22.521   1.558  50.340  1.00  0.00     0.046 C 
HETATM    8  C6  UNL     1      21.573   3.734  50.095  1.00  0.00     0.058 C 
HETATM    9  C7  UNL     1      21.451   4.918  50.768  1.00  0.00     0.029 C 
HETATM   10  C8  UNL     1      22.568   5.718  51.388  1.00  0.00     0.003 C 
HETATM   11  C9  UNL     1      23.932   5.946  51.376  1.00  0.00     0.011 C 
HETATM   12  C10 UNL     1      24.571   4.819  50.659  1.00  0.00    -0.020 C 
HETATM   13  C11 UNL     1      24.885   4.540  49.322  1.00  0.00     0.097 C 
HETATM   14  N3  UNL     1      23.951   3.460  49.765  1.00  0.00    -0.366 N 
HETATM   15  C12 UNL     1      25.045   3.407  50.759  1.00  0.00     0.121 C 
ENDROOT
BRANCH  15  16
HETATM   16  C13 UNL     1      24.984   2.617  51.943  1.00  0.00     0.066 C 
BRANCH  16  17
HETATM   17  C14 UNL     1      26.219   1.854  52.273  1.00  0.00     0.224 C 
BRANCH  17  18
HETATM   18  N4  UNL     1      27.323   2.796  51.923  1.00  0.00     0.083 N 
HETATM   19  H18 UNL     1      27.213   3.168  50.977  1.00  0.00     0.313 HD
HETATM   20  H19 UNL     1      27.488   3.472  52.685  1.00  0.00     0.313 HD
ENDBRANCH  17  18
BRANCH  17  21
HETATM   21  C15 UNL     1      26.420   1.343  53.647  1.00  0.00     0.073 C 
BRANCH  21  22
HETATM   22  C16 UNL     1      27.420   0.195  53.537  1.00  0.00    -0.056 A 
HETATM   23  C17 UNL     1      28.706   0.194  54.019  1.00  0.00     0.007 A 
HETATM   24  C18 UNL     1      29.466  -0.939  53.825  1.00  0.00     0.001 A 
HETATM   25  C19 UNL     1      28.914  -2.023  53.160  1.00  0.00     0.000 A 
HETATM   26  C20 UNL     1      27.621  -2.012  52.680  1.00  0.00     0.001 A 
HETATM   27  C21 UNL     1      26.853  -0.879  52.870  1.00  0.00     0.007 A 
ENDBRANCH  21  22
ENDBRANCH  17  21
ENDBRANCH  16  17
ENDBRANCH  15  16
TORSDOF 5
ENDMDL
MODEL 5
REMARK VINA RESULT:      -7.4      1.680      3.132
REMARK  5 active torsions:
REMARK  status: ('A' for Active; 'I' for Inactive)
REMARK    1  A    between atoms: C12_15  and  C13_16 
REMARK    2  A    between atoms: C13_16  and  C14_17 
REMARK    3  A    between atoms: C14_17  and  N4_18 
REMARK    4  A    between atoms: C14_17  and  C15_19 
REMARK    5  A    between atoms: C15_19  and  C16_20 
ROOT
HETATM    1  C1  UNL     1      20.434   4.072  47.847  1.00  0.00     0.179 C 
HETATM    2  N1  UNL     1      20.905   4.492  49.173  1.00  0.00    -0.276 N 
HETATM    3  N2  UNL     1      20.798   5.845  49.591  1.00  0.00    -0.189 NA
HETATM    4  C2  UNL     1      21.247   6.102  50.773  1.00  0.00     0.114 C 
HETATM    5  C3  UNL     1      21.875   5.158  51.775  1.00  0.00     0.086 C 
HETATM    6  C4  UNL     1      22.501   3.998  51.074  1.00  0.00     0.077 C 
HETATM    7  C5  UNL     1      23.645   4.481  50.264  1.00  0.00     0.046 C 
HETATM    8  C6  UNL     1      21.476   3.514  50.030  1.00  0.00     0.058 C 
HETATM    9  C7  UNL     1      20.871   2.356  49.626  1.00  0.00     0.029 C 
HETATM   10  C8  UNL     1      21.199   0.961  50.094  1.00  0.00     0.003 C 
HETATM   11  C9  UNL     1      21.787   0.219  51.101  1.00  0.00     0.011 C 
HETATM   12  C10 UNL     1      22.618   1.139  51.911  1.00  0.00    -0.020 C 
HETATM   13  C11 UNL     1      22.398   1.962  53.023  1.00  0.00     0.097 C 
HETATM   14  N3  UNL     1      22.839   2.866  51.917  1.00  0.00    -0.366 N 
HETATM   15  C12 UNL     1      23.921   1.861  52.003  1.00  0.00     0.121 C 
ENDROOT
BRANCH  15  16
HETATM   16  C13 UNL     1      24.969   1.761  51.043  1.00  0.00     0.066 C 
BRANCH  16  17
HETATM   17  C14 UNL     1      26.352   1.760  51.595  1.00  0.00     0.224 C 
BRANCH  17  18
HETATM   18  N4  UNL     1      26.857   3.132  51.290  1.00  0.00     0.083 N 
HETATM   19  H18 UNL     1      26.360   3.547  50.499  1.00  0.00     0.313 HD
HETATM   20  H19 UNL     1      26.940   3.695  52.150  1.00  0.00     0.313 HD
ENDBRANCH  17  18
BRANCH  17  21
HETATM   21  C15 UNL     1      26.570   1.459  53.027  1.00  0.00     0.073 C 
BRANCH  21  22
HETATM   22  C16 UNL     1      27.431   0.200  53.076  1.00  0.00    -0.056 A 
HETATM   23  C17 UNL     1      27.035  -1.066  52.719  1.00  0.00     0.007 A 
HETATM   24  C18 UNL     1      27.956  -2.085  52.831  1.00  0.00     0.001 A 
HETATM   25  C19 UNL     1      29.232  -1.801  53.294  1.00  0.00     0.000 A 
HETATM   26  C20 UNL     1      29.620  -0.527  53.649  1.00  0.00     0.001 A 
HETATM   27  C21 UNL     1      28.702   0.500  53.540  1.00  0.00     0.007 A 
ENDBRANCH  21  22
ENDBRANCH  17  21
ENDBRANCH  16  17
ENDBRANCH  15  16
TORSDOF 5
ENDMDL
MODEL 6
REMARK VINA RESULT:      -7.2      2.367      5.843
REMARK  5 active torsions:
REMARK  status: ('A' for Active; 'I' for Inactive)
REMARK    1  A    between atoms: C12_15  and  C13_16 
REMARK    2  A    between atoms: C13_16  and  C14_17 
REMARK    3  A    between atoms: C14_17  and  N4_18 
REMARK    4  A    between atoms: C14_17  and  C15_19 
REMARK    5  A    between atoms: C15_19  and  C16_20 
ROOT
HETATM    1  C1  UNL     1      24.523  -0.623  53.761  1.00  0.00     0.179 C 
HETATM    2  N1  UNL     1      23.134  -0.231  53.486  1.00  0.00    -0.276 N 
HETATM    3  N2  UNL     1      22.059  -1.118  53.753  1.00  0.00    -0.189 NA
HETATM    4  C2  UNL     1      20.882  -0.672  53.470  1.00  0.00     0.114 C 
HETATM    5  C3  UNL     1      20.491   0.669  52.889  1.00  0.00     0.086 C 
HETATM    6  C4  UNL     1      21.617   1.238  52.091  1.00  0.00     0.077 C 
HETATM    7  C5  UNL     1      21.850   0.382  50.903  1.00  0.00     0.046 C 
HETATM    8  C6  UNL     1      22.890   1.058  52.942  1.00  0.00     0.058 C 
HETATM    9  C7  UNL     1      23.949   1.793  53.397  1.00  0.00     0.029 C 
HETATM   10  C8  UNL     1      24.289   3.211  53.013  1.00  0.00     0.003 C 
HETATM   11  C9  UNL     1      23.788   4.388  52.488  1.00  0.00     0.011 C 
HETATM   12  C10 UNL     1      22.495   4.076  51.838  1.00  0.00    -0.020 C 
HETATM   13  C11 UNL     1      21.159   4.016  52.256  1.00  0.00     0.097 C 
HETATM   14  N3  UNL     1      21.503   2.647  51.763  1.00  0.00    -0.366 N 
HETATM   15  C12 UNL     1      21.832   3.526  50.619  1.00  0.00     0.121 C 
ENDROOT
BRANCH  15  16
HETATM   16  C13 UNL     1      22.523   3.069  49.460  1.00  0.00     0.066 C 
BRANCH  16  17
HETATM   17  C14 UNL     1      23.043   4.134  48.558  1.00  0.00     0.224 C 
BRANCH  17  18
HETATM   18  N4  UNL     1      21.929   4.351  47.588  1.00  0.00     0.083 N 
HETATM   19  H18 UNL     1      22.215   4.127  46.631  1.00  0.00     0.313 HD
HETATM   20  H19 UNL     1      21.052   3.933  47.933  1.00  0.00     0.313 HD
ENDBRANCH  17  18
BRANCH  17  21
HETATM   21  C15 UNL     1      23.468   5.432  49.124  1.00  0.00     0.073 C 
BRANCH  21  22
HETATM   22  C16 UNL     1      24.973   5.531  48.893  1.00  0.00    -0.056 A 
HETATM   23  C17 UNL     1      25.644   6.613  48.378  1.00  0.00     0.007 A 
HETATM   24  C18 UNL     1      27.012   6.518  48.241  1.00  0.00     0.001 A 
HETATM   25  C19 UNL     1      27.654   5.350  48.623  1.00  0.00     0.000 A 
HETATM   26  C20 UNL     1      26.972   4.269  49.138  1.00  0.00     0.001 A 
HETATM   27  C21 UNL     1      25.600   4.356  49.279  1.00  0.00     0.007 A 
ENDBRANCH  21  22
ENDBRANCH  17  21
ENDBRANCH  16  17
ENDBRANCH  15  16
TORSDOF 5
ENDMDL
MODEL 7
REMARK VINA RESULT:      -7.2      8.131     10.871
REMARK  5 active torsions:
REMARK  status: ('A' for Active; 'I' for Inactive)
REMARK    1  A    between atoms: C12_15  and  C13_16 
REMARK    2  A    between atoms: C13_16  and  C14_17 
REMARK    3  A    between atoms: C14_17  and  N4_18 
REMARK    4  A    between atoms: C14_17  and  C15_19 
REMARK    5  A    between atoms: C15_19  and  C16_20 
ROOT
HETATM    1  C1  UNL     1      33.811   4.483  44.486  1.00  0.00     0.179 C 
HETATM    2  N1  UNL     1      33.812   5.025  45.851  1.00  0.00    -0.276 N 
HETATM    3  N2  UNL     1      34.665   4.487  46.850  1.00  0.00    -0.189 NA
HETATM    4  C2  UNL     1      34.580   5.036  48.014  1.00  0.00     0.114 C 
HETATM    5  C3  UNL     1      33.691   6.177  48.461  1.00  0.00     0.086 C 
HETATM    6  C4  UNL     1      32.464   6.243  47.614  1.00  0.00     0.077 C 
HETATM    7  C5  UNL     1      31.645   5.030  47.852  1.00  0.00     0.046 C 
HETATM    8  C6  UNL     1      32.935   6.101  46.153  1.00  0.00     0.058 C 
HETATM    9  C7  UNL     1      32.784   6.727  44.947  1.00  0.00     0.029 C 
HETATM   10  C8  UNL     1      31.842   7.861  44.635  1.00  0.00     0.003 C 
HETATM   11  C9  UNL     1      31.094   8.887  45.181  1.00  0.00     0.011 C 
HETATM   12  C10 UNL     1      30.983   8.639  46.636  1.00  0.00    -0.020 C 
HETATM   13  C11 UNL     1      31.748   8.967  47.764  1.00  0.00     0.097 C 
HETATM   14  N3  UNL     1      31.701   7.473  47.713  1.00  0.00    -0.366 N 
HETATM   15  C12 UNL     1      30.276   7.871  47.703  1.00  0.00     0.121 C 
ENDROOT
BRANCH  15  16
HETATM   16  C13 UNL     1      29.213   6.952  47.467  1.00  0.00     0.066 C 
BRANCH  16  17
HETATM   17  C14 UNL     1      28.199   6.845  48.552  1.00  0.00     0.224 C 
BRANCH  17  18
HETATM   18  N4  UNL     1      28.390   8.099  49.340  1.00  0.00     0.083 N 
HETATM   19  H18 UNL     1      28.913   7.926  50.201  1.00  0.00     0.313 HD
HETATM   20  H19 UNL     1      28.709   8.871  48.735  1.00  0.00     0.313 HD
ENDBRANCH  17  18
BRANCH  17  21
HETATM   21  C15 UNL     1      26.770   6.687  48.207  1.00  0.00     0.073 C 
BRANCH  21  22
HETATM   22  C16 UNL     1      26.309   5.388  48.863  1.00  0.00    -0.056 A 
HETATM   23  C17 UNL     1      27.080   4.272  49.076  1.00  0.00     0.007 A 
HETATM   24  C18 UNL     1      26.488   3.186  49.685  1.00  0.00     0.001 A 
HETATM   25  C19 UNL     1      25.154   3.258  50.057  1.00  0.00     0.000 A 
HETATM   26  C20 UNL     1      24.388   4.384  49.838  1.00  0.00     0.001 A 
HETATM   27  C21 UNL     1      24.975   5.476  49.227  1.00  0.00     0.007 A 
ENDBRANCH  21  22
ENDBRANCH  17  21
ENDBRANCH  16  17
ENDBRANCH  15  16
TORSDOF 5
ENDMDL
MODEL 8
REMARK VINA RESULT:      -7.1     10.246     12.046
REMARK  5 active torsions:
REMARK  status: ('A' for Active; 'I' for Inactive)
REMARK    1  A    between atoms: C12_15  and  C13_16 
REMARK    2  A    between atoms: C13_16  and  C14_17 
REMARK    3  A    between atoms: C14_17  and  N4_18 
REMARK    4  A    between atoms: C14_17  and  C15_19 
REMARK    5  A    between atoms: C15_19  and  C16_20 
ROOT
HETATM    1  C1  UNL     1      29.025   9.344  49.361  1.00  0.00     0.179 C 
HETATM    2  N1  UNL     1      30.161   9.947  48.652  1.00  0.00    -0.276 N 
HETATM    3  N2  UNL     1      30.154  11.323  48.300  1.00  0.00    -0.189 NA
HETATM    4  C2  UNL     1      31.201  11.746  47.676  1.00  0.00     0.114 C 
HETATM    5  C3  UNL     1      32.436  10.974  47.266  1.00  0.00     0.086 C 
HETATM    6  C4  UNL     1      32.113   9.527  47.098  1.00  0.00     0.077 C 
HETATM    7  C5  UNL     1      31.189   9.366  45.950  1.00  0.00     0.046 C 
HETATM    8  C6  UNL     1      31.269   9.123  48.322  1.00  0.00     0.058 C 
HETATM    9  C7  UNL     1      31.235   8.156  49.289  1.00  0.00     0.029 C 
HETATM   10  C8  UNL     1      32.099   6.922  49.356  1.00  0.00     0.003 C 
HETATM   11  C9  UNL     1      33.279   6.348  48.922  1.00  0.00     0.011 C 
HETATM   12  C10 UNL     1      33.770   7.141  47.772  1.00  0.00    -0.020 C 
HETATM   13  C11 UNL     1      34.585   8.271  47.617  1.00  0.00     0.097 C 
HETATM   14  N3  UNL     1      33.256   8.633  47.036  1.00  0.00    -0.366 N 
HETATM   15  C12 UNL     1      33.633   7.402  46.309  1.00  0.00     0.121 C 
ENDROOT
BRANCH  15  16
HETATM   16  C13 UNL     1      32.742   6.704  45.444  1.00  0.00     0.066 C 
BRANCH  16  17
HETATM   17  C14 UNL     1      33.322   6.246  44.151  1.00  0.00     0.224 C 
BRANCH  17  18
HETATM   18  N4  UNL     1      34.653   6.921  44.102  1.00  0.00     0.083 N 
HETATM   19  H18 UNL     1      34.832   7.333  43.184  1.00  0.00     0.313 HD
HETATM   20  H19 UNL     1      34.795   7.520  44.930  1.00  0.00     0.313 HD
ENDBRANCH  17  18
BRANCH  17  21
HETATM   21  C15 UNL     1      33.489   4.799  43.894  1.00  0.00     0.073 C 
BRANCH  21  22
HETATM   22  C16 UNL     1      33.523   4.120  45.260  1.00  0.00    -0.056 A 
HETATM   23  C17 UNL     1      32.432   3.724  45.994  1.00  0.00     0.007 A 
HETATM   24  C18 UNL     1      32.659   3.124  47.214  1.00  0.00     0.001 A 
HETATM   25  C19 UNL     1      33.963   2.943  47.651  1.00  0.00     0.000 A 
HETATM   26  C20 UNL     1      35.052   3.345  46.907  1.00  0.00     0.001 A 
HETATM   27  C21 UNL     1      34.832   3.948  45.683  1.00  0.00     0.007 A 
ENDBRANCH  21  22
ENDBRANCH  17  21
ENDBRANCH  16  17
ENDBRANCH  15  16
TORSDOF 5
ENDMDL
MODEL 9
REMARK VINA RESULT:      -7.0      2.363      3.888
REMARK  5 active torsions:
REMARK  status: ('A' for Active; 'I' for Inactive)
REMARK    1  A    between atoms: C12_15  and  C13_16 
REMARK    2  A    between atoms: C13_16  and  C14_17 
REMARK    3  A    between atoms: C14_17  and  N4_18 
REMARK    4  A    between atoms: C14_17  and  C15_19 
REMARK    5  A    between atoms: C15_19  and  C16_20 
ROOT
HETATM    1  C1  UNL     1      22.044   7.288  47.136  1.00  0.00     0.179 C 
HETATM    2  N1  UNL     1      21.955   6.862  48.539  1.00  0.00    -0.276 N 
HETATM    3  N2  UNL     1      21.639   7.791  49.565  1.00  0.00    -0.189 NA
HETATM    4  C2  UNL     1      21.591   7.309  50.761  1.00  0.00     0.114 C 
HETATM    5  C3  UNL     1      21.828   5.887  51.220  1.00  0.00     0.086 C 
HETATM    6  C4  UNL     1      22.722   5.173  50.261  1.00  0.00     0.077 C 
HETATM    7  C5  UNL     1      24.068   5.796  50.298  1.00  0.00     0.046 C 
HETATM    8  C6  UNL     1      22.195   5.497  48.849  1.00  0.00     0.058 C 
HETATM    9  C7  UNL     1      21.840   4.850  47.698  1.00  0.00     0.029 C 
HETATM   10  C8  UNL     1      22.023   3.384  47.399  1.00  0.00     0.003 C 
HETATM   11  C9  UNL     1      22.212   2.134  47.960  1.00  0.00     0.011 C 
HETATM   12  C10 UNL     1      22.631   2.331  49.366  1.00  0.00    -0.020 C 
HETATM   13  C11 UNL     1      21.968   2.476  50.592  1.00  0.00     0.097 C 
HETATM   14  N3  UNL     1      22.760   3.729  50.396  1.00  0.00    -0.366 N 
HETATM   15  C12 UNL     1      23.768   2.653  50.278  1.00  0.00     0.121 C 
ENDROOT
BRANCH  15  16
HETATM   16  C13 UNL     1      25.107   2.884  49.848  1.00  0.00     0.066 C 
BRANCH  16  17
HETATM   17  C14 UNL     1      26.172   2.467  50.802  1.00  0.00     0.224 C 
BRANCH  17  18
HETATM   18  N4  UNL     1      27.110   3.628  50.816  1.00  0.00     0.083 N 
HETATM   19  H18 UNL     1      27.773   3.584  50.039  1.00  0.00     0.313 HD
HETATM   20  H19 UNL     1      26.601   4.513  50.959  1.00  0.00     0.313 HD
ENDBRANCH  17  18
BRANCH  17  21
HETATM   21  C15 UNL     1      25.812   2.103  52.190  1.00  0.00     0.073 C 
BRANCH  21  22
HETATM   22  C16 UNL     1      26.819   1.046  52.633  1.00  0.00    -0.056 A 
HETATM   23  C17 UNL     1      28.001   1.281  53.292  1.00  0.00     0.007 A 
HETATM   24  C18 UNL     1      28.787   0.195  53.612  1.00  0.00     0.001 A 
HETATM   25  C19 UNL     1      28.363  -1.078  53.263  1.00  0.00     0.000 A 
HETATM   26  C20 UNL     1      27.175  -1.304  52.601  1.00  0.00     0.001 A 
HETATM   27  C21 UNL     1      26.382  -0.220  52.276  1.00  0.00     0.007 A 
ENDBRANCH  21  22
ENDBRANCH  17  21
ENDBRANCH  16  17
ENDBRANCH  15  16
TORSDOF 5
ENDMDL
