MODEL 1
REMARK VINA RESULT:      -7.7      0.000      0.000
REMARK  4 active torsions:
REMARK  status: ('A' for Active; 'I' for Inactive)
REMARK    1  A    between atoms: O1_2  and  C2_3 
REMARK    2  A    between atoms: C6_9  and  N3_10 
REMARK    3  A    between atoms: N4_11  and  C7_12 
REMARK    4  A    between atoms: C15_21  and  O2_22 
ROOT
HETATM    1  C2  UNL     1      27.203   0.070  53.791  1.00  0.00     0.103 A 
HETATM    2  C3  UNL     1      27.566   1.007  52.831  1.00  0.00     0.072 A 
HETATM    3  C4  UNL     1      26.631   1.677  52.068  1.00  0.00     0.075 A 
HETATM    4  N1  UNL     1      26.976   2.584  51.138  1.00  0.00    -0.241 NA
HETATM    5  C5  UNL     1      26.057   3.231  50.399  1.00  0.00     0.236 A 
HETATM    6  N2  UNL     1      24.753   2.966  50.591  1.00  0.00    -0.220 NA
HETATM    7  C6  UNL     1      24.308   2.072  51.499  1.00  0.00     0.185 A 
HETATM    8  C13 UNL     1      25.268   1.420  52.248  1.00  0.00     0.045 A 
HETATM    9  C14 UNL     1      24.939   0.488  53.203  1.00  0.00     0.057 A 
HETATM   10  C15 UNL     1      25.862  -0.199  53.986  1.00  0.00     0.102 A 
ENDROOT
BRANCH   7  11
HETATM   11  N3  UNL     1      22.916   1.794  51.701  1.00  0.00    -0.129 NA
HETATM   12  N4  UNL     1      22.281   1.460  50.653  1.00  0.00    -0.148 NA
BRANCH  12  13
HETATM   13  C7  UNL     1      20.908   1.139  50.601  1.00  0.00     0.080 A 
HETATM   14  C8  UNL     1      19.979   1.502  49.636  1.00  0.00     0.033 A 
HETATM   15  C9  UNL     1      18.670   1.075  49.778  1.00  0.00     0.004 A 
HETATM   16  C10 UNL     1      18.237   0.307  50.827  1.00  0.00     0.019 A 
HETATM   17  C11 UNL     1      19.168  -0.059  51.798  1.00  0.00     0.013 A 
HETATM   18 BR1  UNL     1      18.567  -1.130  53.265  1.00  0.00    -0.051 Br
HETATM   19  C12 UNL     1      20.488   0.363  51.669  1.00  0.00     0.052 A 
ENDBRANCH  12  13
ENDBRANCH   7  11
BRANCH  10  20
HETATM   20  O2  UNL     1      25.546  -1.128  54.940  1.00  0.00    -0.353 OA
HETATM   21  C16 UNL     1      24.332  -1.276  55.614  1.00  0.00     0.210 C 
ENDBRANCH  10  20
BRANCH   1  22
HETATM   22  O1  UNL     1      28.207  -0.560  54.519  1.00  0.00    -0.353 OA
HETATM   23  C1  UNL     1      29.417  -0.848  53.845  1.00  0.00     0.210 C 
ENDBRANCH   1  22
TORSDOF 4
ENDMDL
MODEL 2
REMARK VINA RESULT:      -7.6      2.380      3.705
REMARK  4 active torsions:
REMARK  status: ('A' for Active; 'I' for Inactive)
REMARK    1  A    between atoms: O1_2  and  C2_3 
REMARK    2  A    between atoms: C6_9  and  N3_10 
REMARK    3  A    between atoms: N4_11  and  C7_12 
REMARK    4  A    between atoms: C15_21  and  O2_22 
ROOT
HETATM    1  C2  UNL     1      27.585   1.253  53.189  1.00  0.00     0.103 A 
HETATM    2  C3  UNL     1      27.170   0.405  54.210  1.00  0.00     0.072 A 
HETATM    3  C4  UNL     1      25.870  -0.048  54.306  1.00  0.00     0.075 A 
HETATM    4  N1  UNL     1      25.464  -0.867  55.291  1.00  0.00    -0.241 NA
HETATM    5  C5  UNL     1      24.194  -1.303  55.376  1.00  0.00     0.236 A 
HETATM    6  N2  UNL     1      23.300  -0.910  54.452  1.00  0.00    -0.220 NA
HETATM    7  C6  UNL     1      23.612  -0.089  53.426  1.00  0.00     0.185 A 
HETATM    8  C13 UNL     1      24.921   0.346  53.358  1.00  0.00     0.045 A 
HETATM    9  C14 UNL     1      25.359   1.185  52.361  1.00  0.00     0.057 A 
HETATM   10  C15 UNL     1      26.664   1.655  52.241  1.00  0.00     0.102 A 
ENDROOT
BRANCH   7  11
HETATM   11  N3  UNL     1      22.654   0.327  52.443  1.00  0.00    -0.129 NA
HETATM   12  N4  UNL     1      21.461  -0.041  52.671  1.00  0.00    -0.148 NA
BRANCH  12  13
HETATM   13  C7  UNL     1      20.349   0.247  51.851  1.00  0.00     0.080 A 
HETATM   14  C8  UNL     1      19.032  -0.157  52.019  1.00  0.00     0.033 A 
HETATM   15  C9  UNL     1      18.090   0.242  51.087  1.00  0.00     0.004 A 
HETATM   16  C10 UNL     1      18.387   1.020  49.999  1.00  0.00     0.019 A 
HETATM   17  C11 UNL     1      19.709   1.427  49.827  1.00  0.00     0.013 A 
HETATM   18 BR1  UNL     1      20.128   2.514  48.310  1.00  0.00    -0.051 Br
HETATM   19  C12 UNL     1      20.669   1.034  50.756  1.00  0.00     0.052 A 
ENDBRANCH  12  13
ENDBRANCH   7  11
BRANCH  10  20
HETATM   20  O2  UNL     1      27.111   2.489  51.253  1.00  0.00    -0.353 OA
HETATM   21  C16 UNL     1      26.345   3.300  50.412  1.00  0.00     0.210 C 
ENDBRANCH  10  20
BRANCH   1  22
HETATM   22  O1  UNL     1      28.914   1.663  53.163  1.00  0.00    -0.353 OA
HETATM   23  C1  UNL     1      29.507   2.027  54.395  1.00  0.00     0.210 C 
ENDBRANCH   1  22
TORSDOF 4
ENDMDL
MODEL 3
REMARK VINA RESULT:      -7.6      4.050      6.867
REMARK  4 active torsions:
REMARK  status: ('A' for Active; 'I' for Inactive)
REMARK    1  A    between atoms: O1_2  and  C2_3 
REMARK    2  A    between atoms: C6_9  and  N3_10 
REMARK    3  A    between atoms: N4_11  and  C7_12 
REMARK    4  A    between atoms: C15_21  and  O2_22 
ROOT
HETATM    1  C2  UNL     1      26.025   0.092  53.407  1.00  0.00     0.103 A 
HETATM    2  C3  UNL     1      24.733   0.364  52.976  1.00  0.00     0.072 A 
HETATM    3  C4  UNL     1      24.469   1.282  51.979  1.00  0.00     0.075 A 
HETATM    4  N1  UNL     1      23.220   1.549  51.558  1.00  0.00    -0.241 NA
HETATM    5  C5  UNL     1      22.973   2.445  50.587  1.00  0.00     0.236 A 
HETATM    6  N2  UNL     1      24.002   3.098  50.016  1.00  0.00    -0.220 NA
HETATM    7  C6  UNL     1      25.289   2.899  50.371  1.00  0.00     0.185 A 
HETATM    8  C13 UNL     1      25.520   1.974  51.370  1.00  0.00     0.045 A 
HETATM    9  C14 UNL     1      26.787   1.685  51.818  1.00  0.00     0.057 A 
HETATM   10  C15 UNL     1      27.080   0.764  52.819  1.00  0.00     0.102 A 
ENDROOT
BRANCH   7  11
HETATM   11  N3  UNL     1      26.382   3.597  49.759  1.00  0.00    -0.129 NA
HETATM   12  N4  UNL     1      26.100   4.759  49.331  1.00  0.00    -0.148 NA
BRANCH  12  13
HETATM   13  C7  UNL     1      27.007   5.634  48.696  1.00  0.00     0.080 A 
HETATM   14  C8  UNL     1      26.764   6.906  48.198  1.00  0.00     0.033 A 
HETATM   15  C9  UNL     1      27.806   7.600  47.606  1.00  0.00     0.004 A 
HETATM   16  C10 UNL     1      29.074   7.096  47.485  1.00  0.00     0.019 A 
HETATM   17  C11 UNL     1      29.322   5.818  47.984  1.00  0.00     0.013 A 
HETATM   18 BR1  UNL     1      31.092   5.111  47.817  1.00  0.00    -0.051 Br
HETATM   19  C12 UNL     1      28.284   5.108  48.582  1.00  0.00     0.052 A 
ENDBRANCH  12  13
ENDBRANCH   7  11
BRANCH  10  20
HETATM   20  O2  UNL     1      28.337   0.469  53.272  1.00  0.00    -0.353 OA
HETATM   21  C16 UNL     1      29.094   1.180  54.205  1.00  0.00     0.210 C 
ENDBRANCH  10  20
BRANCH   1  22
HETATM   22  O1  UNL     1      26.207  -0.848  54.417  1.00  0.00    -0.353 OA
HETATM   23  C1  UNL     1      25.225  -0.908  55.434  1.00  0.00     0.210 C 
ENDBRANCH   1  22
TORSDOF 4
ENDMDL
MODEL 4
REMARK VINA RESULT:      -7.4      3.848      6.715
REMARK  4 active torsions:
REMARK  status: ('A' for Active; 'I' for Inactive)
REMARK    1  A    between atoms: O1_2  and  C2_3 
REMARK    2  A    between atoms: C6_9  and  N3_10 
REMARK    3  A    between atoms: N4_11  and  C7_12 
REMARK    4  A    between atoms: C15_21  and  O2_22 
ROOT
HETATM    1  C2  UNL     1      22.238   0.543  53.248  1.00  0.00     0.103 A 
HETATM    2  C3  UNL     1      23.436  -0.157  53.326  1.00  0.00     0.072 A 
HETATM    3  C4  UNL     1      24.594   0.302  52.731  1.00  0.00     0.075 A 
HETATM    4  N1  UNL     1      25.756  -0.370  52.803  1.00  0.00    -0.241 NA
HETATM    5  C5  UNL     1      26.879   0.084  52.219  1.00  0.00     0.236 A 
HETATM    6  N2  UNL     1      26.844   1.245  51.542  1.00  0.00    -0.220 NA
HETATM    7  C6  UNL     1      25.727   1.991  51.413  1.00  0.00     0.185 A 
HETATM    8  C13 UNL     1      24.586   1.506  52.021  1.00  0.00     0.045 A 
HETATM    9  C14 UNL     1      23.386   2.175  51.960  1.00  0.00     0.057 A 
HETATM   10  C15 UNL     1      22.206   1.735  52.551  1.00  0.00     0.102 A 
ENDROOT
BRANCH   7  11
HETATM   11  N3  UNL     1      25.697   3.229  50.690  1.00  0.00    -0.129 NA
HETATM   12  N4  UNL     1      26.765   3.508  50.063  1.00  0.00    -0.148 NA
BRANCH  12  13
HETATM   13  C7  UNL     1      26.973   4.665  49.283  1.00  0.00     0.080 A 
HETATM   14  C8  UNL     1      28.131   5.062  48.630  1.00  0.00     0.033 A 
HETATM   15  C9  UNL     1      28.118   6.245  47.912  1.00  0.00     0.004 A 
HETATM   16  C10 UNL     1      27.016   7.054  47.809  1.00  0.00     0.019 A 
HETATM   17  C11 UNL     1      25.851   6.658  48.465  1.00  0.00     0.013 A 
HETATM   18 BR1  UNL     1      24.311   7.784  48.326  1.00  0.00    -0.051 Br
HETATM   19  C12 UNL     1      25.848   5.471  49.192  1.00  0.00     0.052 A 
ENDBRANCH  12  13
ENDBRANCH   7  11
BRANCH  10  20
HETATM   20  O2  UNL     1      21.008   2.393  52.498  1.00  0.00    -0.353 OA
HETATM   21  C16 UNL     1      20.779   3.715  52.107  1.00  0.00     0.210 C 
ENDBRANCH  10  20
BRANCH   1  22
HETATM   22  O1  UNL     1      21.115   0.013  53.876  1.00  0.00    -0.353 OA
HETATM   23  C1  UNL     1      21.268  -1.224  54.547  1.00  0.00     0.210 C 
ENDBRANCH   1  22
TORSDOF 4
ENDMDL
MODEL 5
REMARK VINA RESULT:      -7.3      4.222      6.878
REMARK  4 active torsions:
REMARK  status: ('A' for Active; 'I' for Inactive)
REMARK    1  A    between atoms: O1_2  and  C2_3 
REMARK    2  A    between atoms: C6_9  and  N3_10 
REMARK    3  A    between atoms: N4_11  and  C7_12 
REMARK    4  A    between atoms: C15_21  and  O2_22 
ROOT
HETATM    1  C2  UNL     1      22.101   0.227  53.311  1.00  0.00     0.103 A 
HETATM    2  C3  UNL     1      23.325  -0.431  53.309  1.00  0.00     0.072 A 
HETATM    3  C4  UNL     1      24.457   0.123  52.747  1.00  0.00     0.075 A 
HETATM    4  N1  UNL     1      25.643  -0.509  52.743  1.00  0.00    -0.241 NA
HETATM    5  C5  UNL     1      26.740   0.039  52.192  1.00  0.00     0.236 A 
HETATM    6  N2  UNL     1      26.655   1.257  51.627  1.00  0.00    -0.220 NA
HETATM    7  C6  UNL     1      25.510   1.970  51.582  1.00  0.00     0.185 A 
HETATM    8  C13 UNL     1      24.395   1.388  52.153  1.00  0.00     0.045 A 
HETATM    9  C14 UNL     1      23.172   2.015  52.169  1.00  0.00     0.057 A 
HETATM   10  C15 UNL     1      22.017   1.478  52.730  1.00  0.00     0.102 A 
ENDROOT
BRANCH   7  11
HETATM   11  N3  UNL     1      25.424   3.268  50.978  1.00  0.00    -0.129 NA
HETATM   12  N4  UNL     1      26.310   3.509  50.102  1.00  0.00    -0.148 NA
BRANCH  12  13
HETATM   13  C7  UNL     1      26.429   4.711  49.374  1.00  0.00     0.080 A 
HETATM   14  C8  UNL     1      25.433   5.626  49.061  1.00  0.00     0.033 A 
HETATM   15  C9  UNL     1      25.769   6.752  48.329  1.00  0.00     0.004 A 
HETATM   16  C10 UNL     1      27.041   7.016  47.893  1.00  0.00     0.019 A 
HETATM   17  C11 UNL     1      28.044   6.099  48.206  1.00  0.00     0.013 A 
HETATM   18 BR1  UNL     1      29.821   6.464  47.599  1.00  0.00    -0.051 Br
HETATM   19  C12 UNL     1      27.722   4.962  48.941  1.00  0.00     0.052 A 
ENDBRANCH  12  13
ENDBRANCH   7  11
BRANCH  10  20
HETATM   20  O2  UNL     1      20.795   2.093  52.752  1.00  0.00    -0.353 OA
HETATM   21  C16 UNL     1      20.442   3.306  52.155  1.00  0.00     0.210 C 
ENDBRANCH  10  20
BRANCH   1  22
HETATM   22  O1  UNL     1      21.008  -0.400  53.899  1.00  0.00    -0.353 OA
HETATM   23  C1  UNL     1      21.229  -1.659  54.506  1.00  0.00     0.210 C 
ENDBRANCH   1  22
TORSDOF 4
ENDMDL
MODEL 6
REMARK VINA RESULT:      -7.3      3.813      6.718
REMARK  4 active torsions:
REMARK  status: ('A' for Active; 'I' for Inactive)
REMARK    1  A    between atoms: O1_2  and  C2_3 
REMARK    2  A    between atoms: C6_9  and  N3_10 
REMARK    3  A    between atoms: N4_11  and  C7_12 
REMARK    4  A    between atoms: C15_21  and  O2_22 
ROOT
HETATM    1  C2  UNL     1      23.045  -0.109  53.558  1.00  0.00     0.103 A 
HETATM    2  C3  UNL     1      21.945   0.659  53.199  1.00  0.00     0.072 A 
HETATM    3  C4  UNL     1      22.071   1.841  52.498  1.00  0.00     0.075 A 
HETATM    4  N1  UNL     1      21.009   2.588  52.148  1.00  0.00    -0.241 NA
HETATM    5  C5  UNL     1      21.143   3.739  51.465  1.00  0.00     0.236 A 
HETATM    6  N2  UNL     1      22.372   4.160  51.119  1.00  0.00    -0.220 NA
HETATM    7  C6  UNL     1      23.498   3.481  51.425  1.00  0.00     0.185 A 
HETATM    8  C13 UNL     1      23.338   2.302  52.126  1.00  0.00     0.045 A 
HETATM    9  C14 UNL     1      24.408   1.522  52.496  1.00  0.00     0.057 A 
HETATM   10  C15 UNL     1      24.307   0.326  53.201  1.00  0.00     0.102 A 
ENDROOT
BRANCH   7  11
HETATM   11  N3  UNL     1      24.806   3.934  51.053  1.00  0.00    -0.129 NA
HETATM   12  N4  UNL     1      24.869   4.522  49.930  1.00  0.00    -0.148 NA
BRANCH  12  13
HETATM   13  C7  UNL     1      26.041   5.054  49.354  1.00  0.00     0.080 A 
HETATM   14  C8  UNL     1      27.193   4.379  48.975  1.00  0.00     0.033 A 
HETATM   15  C9  UNL     1      28.237   5.102  48.423  1.00  0.00     0.004 A 
HETATM   16  C10 UNL     1      28.196   6.457  48.227  1.00  0.00     0.019 A 
HETATM   17  C11 UNL     1      27.040   7.139  48.606  1.00  0.00     0.013 A 
HETATM   18 BR1  UNL     1      26.979   9.031  48.335  1.00  0.00    -0.051 Br
HETATM   19  C12 UNL     1      25.982   6.426  49.164  1.00  0.00     0.052 A 
ENDBRANCH  12  13
ENDBRANCH   7  11
BRANCH  10  20
HETATM   20  O2  UNL     1      25.365  -0.458  53.573  1.00  0.00    -0.353 OA
HETATM   21  C16 UNL     1      26.333  -1.030  52.745  1.00  0.00     0.210 C 
ENDBRANCH  10  20
BRANCH   1  22
HETATM   22  O1  UNL     1      22.833  -1.289  54.264  1.00  0.00    -0.353 OA
HETATM   23  C1  UNL     1      21.495  -1.729  54.408  1.00  0.00     0.210 C 
ENDBRANCH   1  22
TORSDOF 4
ENDMDL
MODEL 7
REMARK VINA RESULT:      -7.2      4.560      7.363
REMARK  4 active torsions:
REMARK  status: ('A' for Active; 'I' for Inactive)
REMARK    1  A    between atoms: O1_2  and  C2_3 
REMARK    2  A    between atoms: C6_9  and  N3_10 
REMARK    3  A    between atoms: N4_11  and  C7_12 
REMARK    4  A    between atoms: C15_21  and  O2_22 
ROOT
HETATM    1  C2  UNL     1      28.308   7.067  47.618  1.00  0.00     0.103 A 
HETATM    2  C3  UNL     1      26.975   7.435  47.751  1.00  0.00     0.072 A 
HETATM    3  C4  UNL     1      26.046   6.621  48.365  1.00  0.00     0.075 A 
HETATM    4  N1  UNL     1      24.754   6.973  48.496  1.00  0.00    -0.241 NA
HETATM    5  C5  UNL     1      23.856   6.172  49.095  1.00  0.00     0.236 A 
HETATM    6  N2  UNL     1      24.255   4.982  49.579  1.00  0.00    -0.220 NA
HETATM    7  C6  UNL     1      25.527   4.541  49.496  1.00  0.00     0.185 A 
HETATM    8  C13 UNL     1      26.433   5.379  48.877  1.00  0.00     0.045 A 
HETATM    9  C14 UNL     1      27.758   5.041  48.730  1.00  0.00     0.057 A 
HETATM   10  C15 UNL     1      28.715   5.844  48.116  1.00  0.00     0.102 A 
ENDROOT
BRANCH   7  11
HETATM   11  N3  UNL     1      25.947   3.271  50.014  1.00  0.00    -0.129 NA
HETATM   12  N4  UNL     1      25.298   2.868  51.028  1.00  0.00    -0.148 NA
BRANCH  12  13
HETATM   13  C7  UNL     1      25.526   1.654  51.710  1.00  0.00     0.080 A 
HETATM   14  C8  UNL     1      26.704   0.925  51.793  1.00  0.00     0.033 A 
HETATM   15  C9  UNL     1      26.709  -0.251  52.522  1.00  0.00     0.004 A 
HETATM   16  C10 UNL     1      25.606  -0.741  53.172  1.00  0.00     0.019 A 
HETATM   17  C11 UNL     1      24.421  -0.011  53.091  1.00  0.00     0.013 A 
HETATM   18 BR1  UNL     1      22.879  -0.691  53.997  1.00  0.00    -0.051 Br
HETATM   19  C12 UNL     1      24.400   1.174  52.361  1.00  0.00     0.052 A 
ENDBRANCH  12  13
ENDBRANCH   7  11
BRANCH  10  20
HETATM   20  O2  UNL     1      30.035   5.518  47.966  1.00  0.00    -0.353 OA
HETATM   21  C16 UNL     1      31.081   5.774  48.854  1.00  0.00     0.210 C 
ENDBRANCH  10  20
BRANCH   1  22
HETATM   22  O1  UNL     1      29.183   7.945  46.987  1.00  0.00    -0.353 OA
HETATM   23  C1  UNL     1      28.904   8.287  45.642  1.00  0.00     0.210 C 
ENDBRANCH   1  22
TORSDOF 4
ENDMDL
MODEL 8
REMARK VINA RESULT:      -7.1      6.741     10.202
REMARK  4 active torsions:
REMARK  status: ('A' for Active; 'I' for Inactive)
REMARK    1  A    between atoms: O1_2  and  C2_3 
REMARK    2  A    between atoms: C6_9  and  N3_10 
REMARK    3  A    between atoms: N4_11  and  C7_12 
REMARK    4  A    between atoms: C15_21  and  O2_22 
ROOT
HETATM    1  C2  UNL     1      24.825   4.606  49.520  1.00  0.00     0.103 A 
HETATM    2  C3  UNL     1      24.947   5.827  48.869  1.00  0.00     0.072 A 
HETATM    3  C4  UNL     1      26.162   6.297  48.411  1.00  0.00     0.075 A 
HETATM    4  N1  UNL     1      26.286   7.478  47.781  1.00  0.00    -0.241 NA
HETATM    5  C5  UNL     1      27.474   7.927  47.339  1.00  0.00     0.236 A 
HETATM    6  N2  UNL     1      28.573   7.177  47.529  1.00  0.00    -0.220 NA
HETATM    7  C6  UNL     1      28.551   5.979  48.151  1.00  0.00     0.185 A 
HETATM    8  C13 UNL     1      27.321   5.537  48.597  1.00  0.00     0.045 A 
HETATM    9  C14 UNL     1      27.169   4.334  49.244  1.00  0.00     0.057 A 
HETATM   10  C15 UNL     1      25.957   3.837  49.715  1.00  0.00     0.102 A 
ENDROOT
BRANCH   7  11
HETATM   11  N3  UNL     1      29.726   5.184  48.351  1.00  0.00    -0.129 NA
HETATM   12  N4  UNL     1      30.619   5.315  47.458  1.00  0.00    -0.148 NA
BRANCH  12  13
HETATM   13  C7  UNL     1      31.857   4.639  47.439  1.00  0.00     0.080 A 
HETATM   14  C8  UNL     1      32.154   3.408  46.873  1.00  0.00     0.033 A 
HETATM   15  C9  UNL     1      33.447   2.925  46.969  1.00  0.00     0.004 A 
HETATM   16  C10 UNL     1      34.460   3.601  47.598  1.00  0.00     0.019 A 
HETATM   17  C11 UNL     1      34.166   4.838  48.168  1.00  0.00     0.013 A 
HETATM   18 BR1  UNL     1      35.576   5.785  49.047  1.00  0.00    -0.051 Br
HETATM   19  C12 UNL     1      32.869   5.338  48.080  1.00  0.00     0.052 A 
ENDBRANCH  12  13
ENDBRANCH   7  11
BRANCH  10  20
HETATM   20  O2  UNL     1      25.794   2.642  50.359  1.00  0.00    -0.353 OA
HETATM   21  C16 UNL     1      26.454   2.197  51.507  1.00  0.00     0.210 C 
ENDBRANCH  10  20
BRANCH   1  22
HETATM   22  O1  UNL     1      23.565   4.204  49.951  1.00  0.00    -0.353 OA
HETATM   23  C1  UNL     1      22.854   5.088  50.797  1.00  0.00     0.210 C 
ENDBRANCH   1  22
TORSDOF 4
ENDMDL
MODEL 9
REMARK VINA RESULT:      -7.1      4.507      7.335
REMARK  4 active torsions:
REMARK  status: ('A' for Active; 'I' for Inactive)
REMARK    1  A    between atoms: O1_2  and  C2_3 
REMARK    2  A    between atoms: C6_9  and  N3_10 
REMARK    3  A    between atoms: N4_11  and  C7_12 
REMARK    4  A    between atoms: C15_21  and  O2_22 
ROOT
HETATM    1  C2  UNL     1      23.961   7.333  48.854  1.00  0.00     0.103 A 
HETATM    2  C3  UNL     1      25.275   7.523  48.444  1.00  0.00     0.072 A 
HETATM    3  C4  UNL     1      26.230   6.533  48.558  1.00  0.00     0.075 A 
HETATM    4  N1  UNL     1      27.503   6.711  48.163  1.00  0.00    -0.241 NA
HETATM    5  C5  UNL     1      28.426   5.740  48.279  1.00  0.00     0.236 A 
HETATM    6  N2  UNL     1      28.072   4.555  48.806  1.00  0.00    -0.220 NA
HETATM    7  C6  UNL     1      26.821   4.281  49.231  1.00  0.00     0.185 A 
HETATM    8  C13 UNL     1      25.889   5.291  49.102  1.00  0.00     0.045 A 
HETATM    9  C14 UNL     1      24.582   5.133  49.500  1.00  0.00     0.057 A 
HETATM   10  C15 UNL     1      23.600   6.114  49.394  1.00  0.00     0.102 A 
ENDROOT
BRANCH   7  11
HETATM   11  N3  UNL     1      26.449   3.014  49.791  1.00  0.00    -0.129 NA
HETATM   12  N4  UNL     1      26.791   2.844  51.001  1.00  0.00    -0.148 NA
BRANCH  12  13
HETATM   13  C7  UNL     1      26.536   1.685  51.765  1.00  0.00     0.080 A 
HETATM   14  C8  UNL     1      27.451   0.774  52.272  1.00  0.00     0.033 A 
HETATM   15  C9  UNL     1      26.983  -0.304  53.002  1.00  0.00     0.004 A 
HETATM   16  C10 UNL     1      25.654  -0.524  53.254  1.00  0.00     0.019 A 
HETATM   17  C11 UNL     1      24.731   0.389  52.746  1.00  0.00     0.013 A 
HETATM   18 BR1  UNL     1      22.875   0.086  53.095  1.00  0.00    -0.051 Br
HETATM   19  C12 UNL     1      25.187   1.479  52.009  1.00  0.00     0.052 A 
ENDBRANCH  12  13
ENDBRANCH   7  11
BRANCH  10  20
HETATM   20  O2  UNL     1      22.297   5.967  49.785  1.00  0.00    -0.353 OA
HETATM   21  C16 UNL     1      21.770   6.132  51.068  1.00  0.00     0.210 C 
ENDBRANCH  10  20
BRANCH   1  22
HETATM   22  O1  UNL     1      23.058   8.381  48.703  1.00  0.00    -0.353 OA
HETATM   23  C1  UNL     1      22.990   9.004  47.434  1.00  0.00     0.210 C 
ENDBRANCH   1  22
TORSDOF 4
ENDMDL
