MODEL 1
REMARK VINA RESULT:      -7.9      0.000      0.000
REMARK  4 active torsions:
REMARK  status: ('A' for Active; 'I' for Inactive)
REMARK    1  A    between atoms: C2_2  and  N1_3 
REMARK    2  A    between atoms: N1_3  and  C3_4 
REMARK    3  A    between atoms: C7_8  and  N2_9 
REMARK    4  A    between atoms: N2_9  and  C8_10 
ROOT
HETATM    1  C8  UNL     1      24.118   1.072  52.477  1.00  0.00     0.727 A 
HETATM    2  N3  UNL     1      24.282   2.341  52.944  1.00  0.00    -0.075 NA
HETATM    3  C9  UNL     1      25.449   2.735  53.510  1.00  0.00     0.139 A 
HETATM    4  C10 UNL     1      26.468   1.777  53.586  1.00  0.00     0.053 A 
HETATM    5  C11 UNL     1      26.312   0.499  53.118  1.00  0.00     0.089 A 
HETATM    6  C12 UNL     1      27.347  -0.510  53.183  1.00  0.00     0.011 A 
HETATM    7  C13 UNL     1      28.579  -0.257  53.726  1.00  0.00     0.017 A 
HETATM    8  C14 UNL     1      29.563  -1.241  53.779  1.00  0.00     0.020 A 
HETATM    9  C15 UNL     1      29.264  -2.492  53.267  1.00  0.00     0.116 A 
HETATM   10  N4  UNL     1      28.067  -2.771  52.729  1.00  0.00    -0.272 NA
HETATM   11  C16 UNL     1      27.135  -1.781  52.696  1.00  0.00     0.130 A 
HETATM   12  N5  UNL     1      25.110   0.170  52.561  1.00  0.00    -0.062 NA
ENDROOT
BRANCH   1  13
HETATM   13  N2  UNL     1      22.820   0.904  51.930  1.00  0.00    -0.188 N 
HETATM   14  H10 UNL     1      22.482   1.311  51.054  1.00  0.00     0.184 HD
BRANCH  13  15
HETATM   15  C7  UNL     1      21.928   0.093  52.684  1.00  0.00     0.051 A 
HETATM   16  C6  UNL     1      22.382  -0.732  53.717  1.00  0.00     0.030 A 
HETATM   17  C5  UNL     1      21.518  -1.516  54.442  1.00  0.00     0.004 A 
HETATM   18  C4  UNL     1      20.175  -1.479  54.135  1.00  0.00     0.029 A 
HETATM   19  C3  UNL     1      19.634  -0.698  53.136  1.00  0.00     0.030 A 
HETATM   20  C17 UNL     1      20.554   0.072  52.438  1.00  0.00     0.059 A 
BRANCH  19  21
HETATM   21  N1  UNL     1      18.255  -0.659  52.817  1.00  0.00    -0.390 N 
HETATM   22  H6  UNL     1      17.927   0.240  52.353  1.00  0.00     0.159 HD
BRANCH  21  23
HETATM   23  C2  UNL     1      17.330  -1.740  53.089  1.00  0.00     0.115 C 
HETATM   24  C1  UNL     1      15.997  -1.513  52.406  1.00  0.00     0.026 C 
ENDBRANCH  21  23
ENDBRANCH  19  21
ENDBRANCH  13  15
ENDBRANCH   1  13
TORSDOF 4
ENDMDL
MODEL 2
REMARK VINA RESULT:      -7.9      3.497      6.932
REMARK  4 active torsions:
REMARK  status: ('A' for Active; 'I' for Inactive)
REMARK    1  A    between atoms: C2_2  and  N1_3 
REMARK    2  A    between atoms: N1_3  and  C3_4 
REMARK    3  A    between atoms: C7_8  and  N2_9 
REMARK    4  A    between atoms: N2_9  and  C8_10 
ROOT
HETATM    1  C8  UNL     1      23.800   2.344  51.587  1.00  0.00     0.727 A 
HETATM    2  N3  UNL     1      22.777   3.069  52.121  1.00  0.00    -0.075 NA
HETATM    3  C9  UNL     1      22.698   4.410  51.940  1.00  0.00     0.139 A 
HETATM    4  C10 UNL     1      23.713   5.005  51.181  1.00  0.00     0.053 A 
HETATM    5  C11 UNL     1      24.745   4.284  50.640  1.00  0.00     0.089 A 
HETATM    6  C12 UNL     1      25.806   4.872  49.851  1.00  0.00     0.011 A 
HETATM    7  C13 UNL     1      25.857   6.215  49.584  1.00  0.00     0.017 A 
HETATM    8  C14 UNL     1      26.887   6.762  48.822  1.00  0.00     0.020 A 
HETATM    9  C15 UNL     1      27.865   5.911  48.338  1.00  0.00     0.116 A 
HETATM   10  N4  UNL     1      27.843   4.592  48.583  1.00  0.00    -0.272 NA
HETATM   11  C16 UNL     1      26.820   4.099  49.331  1.00  0.00     0.130 A 
HETATM   12  N5  UNL     1      24.763   2.938  50.862  1.00  0.00    -0.062 NA
ENDROOT
BRANCH   1  13
HETATM   13  N2  UNL     1      23.662   0.970  51.910  1.00  0.00    -0.188 N 
HETATM   14  H10 UNL     1      23.061   0.299  51.425  1.00  0.00     0.184 HD
BRANCH  13  15
HETATM   15  C7  UNL     1      24.437   0.508  53.009  1.00  0.00     0.051 A 
HETATM   16  C6  UNL     1      23.979  -0.506  53.855  1.00  0.00     0.030 A 
HETATM   17  C5  UNL     1      24.728  -0.948  54.917  1.00  0.00     0.004 A 
HETATM   18  C4  UNL     1      25.960  -0.371  55.144  1.00  0.00     0.029 A 
HETATM   19  C3  UNL     1      26.495   0.634  54.366  1.00  0.00     0.030 A 
HETATM   20  C17 UNL     1      25.693   1.039  53.308  1.00  0.00     0.059 A 
BRANCH  19  21
HETATM   21  N1  UNL     1      27.758   1.230  54.597  1.00  0.00    -0.390 N 
HETATM   22  H6  UNL     1      27.859   1.721  55.535  1.00  0.00     0.159 HD
BRANCH  21  23
HETATM   23  C2  UNL     1      28.855   1.195  53.651  1.00  0.00     0.115 C 
HETATM   24  C1  UNL     1      29.589  -0.129  53.701  1.00  0.00     0.026 C 
ENDBRANCH  21  23
ENDBRANCH  19  21
ENDBRANCH  13  15
ENDBRANCH   1  13
TORSDOF 4
ENDMDL
MODEL 3
REMARK VINA RESULT:      -7.8      3.423      6.455
REMARK  4 active torsions:
REMARK  status: ('A' for Active; 'I' for Inactive)
REMARK    1  A    between atoms: C2_2  and  N1_3 
REMARK    2  A    between atoms: N1_3  and  C3_4 
REMARK    3  A    between atoms: C7_8  and  N2_9 
REMARK    4  A    between atoms: N2_9  and  C8_10 
ROOT
HETATM    1  C8  UNL     1      23.331   1.896  52.661  1.00  0.00     0.727 A 
HETATM    2  N3  UNL     1      22.646   0.732  52.842  1.00  0.00    -0.075 NA
HETATM    3  C9  UNL     1      23.249  -0.363  53.367  1.00  0.00     0.139 A 
HETATM    4  C10 UNL     1      24.601  -0.234  53.711  1.00  0.00     0.053 A 
HETATM    5  C11 UNL     1      25.297   0.933  53.533  1.00  0.00     0.089 A 
HETATM    6  C12 UNL     1      26.693   1.095  53.881  1.00  0.00     0.011 A 
HETATM    7  C13 UNL     1      27.431   0.075  54.422  1.00  0.00     0.017 A 
HETATM    8  C14 UNL     1      28.773   0.250  54.751  1.00  0.00     0.020 A 
HETATM    9  C15 UNL     1      29.348   1.487  54.516  1.00  0.00     0.116 A 
HETATM   10  N4  UNL     1      28.651   2.504  53.986  1.00  0.00    -0.272 NA
HETATM   11  C16 UNL     1      27.343   2.291  53.680  1.00  0.00     0.130 A 
HETATM   12  N5  UNL     1      24.628   1.996  52.999  1.00  0.00    -0.062 NA
ENDROOT
BRANCH   1  13
HETATM   13  N2  UNL     1      22.488   2.892  52.103  1.00  0.00    -0.188 N 
HETATM   14  H10 UNL     1      21.497   3.023  52.316  1.00  0.00     0.184 HD
BRANCH  13  15
HETATM   15  C7  UNL     1      23.099   3.770  51.167  1.00  0.00     0.051 A 
HETATM   16  C6  UNL     1      23.139   3.474  49.801  1.00  0.00     0.030 A 
HETATM   17  C5  UNL     1      23.732   4.323  48.900  1.00  0.00     0.004 A 
HETATM   18  C4  UNL     1      24.297   5.492  49.364  1.00  0.00     0.029 A 
HETATM   19  C3  UNL     1      24.307   5.869  50.690  1.00  0.00     0.030 A 
HETATM   20  C17 UNL     1      23.694   4.973  51.554  1.00  0.00     0.059 A 
BRANCH  19  21
HETATM   21  N1  UNL     1      24.886   7.068  51.171  1.00  0.00    -0.390 N 
HETATM   22  H6  UNL     1      25.139   7.063  52.204  1.00  0.00     0.159 HD
BRANCH  21  23
HETATM   23  C2  UNL     1      25.132   8.235  50.348  1.00  0.00     0.115 C 
HETATM   24  C1  UNL     1      26.603   8.377  50.014  1.00  0.00     0.026 C 
ENDBRANCH  21  23
ENDBRANCH  19  21
ENDBRANCH  13  15
ENDBRANCH   1  13
TORSDOF 4
ENDMDL
MODEL 4
REMARK VINA RESULT:      -7.8      4.292      7.644
REMARK  4 active torsions:
REMARK  status: ('A' for Active; 'I' for Inactive)
REMARK    1  A    between atoms: C2_2  and  N1_3 
REMARK    2  A    between atoms: N1_3  and  C3_4 
REMARK    3  A    between atoms: C7_8  and  N2_9 
REMARK    4  A    between atoms: N2_9  and  C8_10 
ROOT
HETATM    1  C8  UNL     1      23.213   4.344  51.871  1.00  0.00     0.727 A 
HETATM    2  N3  UNL     1      22.396   3.814  50.919  1.00  0.00    -0.075 NA
HETATM    3  C9  UNL     1      22.466   2.501  50.586  1.00  0.00     0.139 A 
HETATM    4  C10 UNL     1      23.413   1.728  51.268  1.00  0.00     0.053 A 
HETATM    5  C11 UNL     1      24.239   2.253  52.228  1.00  0.00     0.089 A 
HETATM    6  C12 UNL     1      25.225   1.477  52.948  1.00  0.00     0.011 A 
HETATM    7  C13 UNL     1      25.409   0.139  52.719  1.00  0.00     0.017 A 
HETATM    8  C14 UNL     1      26.363  -0.591  53.424  1.00  0.00     0.020 A 
HETATM    9  C15 UNL     1      27.128   0.072  54.367  1.00  0.00     0.116 A 
HETATM   10  N4  UNL     1      26.973   1.382  54.613  1.00  0.00    -0.272 NA
HETATM   11  C16 UNL     1      26.029   2.058  53.903  1.00  0.00     0.130 A 
HETATM   12  N5  UNL     1      24.115   3.582  52.512  1.00  0.00    -0.062 NA
ENDROOT
BRANCH   1  13
HETATM   13  N2  UNL     1      22.949   5.728  52.043  1.00  0.00    -0.188 N 
HETATM   14  H10 UNL     1      22.357   6.138  52.769  1.00  0.00     0.184 HD
BRANCH  13  15
HETATM   15  C7  UNL     1      23.575   6.601  51.111  1.00  0.00     0.051 A 
HETATM   16  C6  UNL     1      22.864   7.618  50.468  1.00  0.00     0.030 A 
HETATM   17  C5  UNL     1      23.470   8.457  49.566  1.00  0.00     0.004 A 
HETATM   18  C4  UNL     1      24.812   8.284  49.298  1.00  0.00     0.029 A 
HETATM   19  C3  UNL     1      25.594   7.311  49.882  1.00  0.00     0.030 A 
HETATM   20  C17 UNL     1      24.928   6.493  50.784  1.00  0.00     0.059 A 
BRANCH  19  21
HETATM   21  N1  UNL     1      26.971   7.129  49.609  1.00  0.00    -0.390 N 
HETATM   22  H6  UNL     1      27.630   7.469  50.372  1.00  0.00     0.159 HD
BRANCH  21  23
HETATM   23  C2  UNL     1      27.483   6.532  48.392  1.00  0.00     0.115 C 
HETATM   24  C1  UNL     1      27.756   5.053  48.574  1.00  0.00     0.026 C 
ENDBRANCH  21  23
ENDBRANCH  19  21
ENDBRANCH  13  15
ENDBRANCH   1  13
TORSDOF 4
ENDMDL
MODEL 5
REMARK VINA RESULT:      -7.8      3.245      6.247
REMARK  4 active torsions:
REMARK  status: ('A' for Active; 'I' for Inactive)
REMARK    1  A    between atoms: C2_2  and  N1_3 
REMARK    2  A    between atoms: N1_3  and  C3_4 
REMARK    3  A    between atoms: C7_8  and  N2_9 
REMARK    4  A    between atoms: N2_9  and  C8_10 
ROOT
HETATM    1  C8  UNL     1      23.285   1.739  52.730  1.00  0.00     0.727 A 
HETATM    2  N3  UNL     1      22.598   0.583  52.949  1.00  0.00    -0.075 NA
HETATM    3  C9  UNL     1      23.206  -0.503  53.487  1.00  0.00     0.139 A 
HETATM    4  C10 UNL     1      24.564  -0.372  53.804  1.00  0.00     0.053 A 
HETATM    5  C11 UNL     1      25.263   0.787  53.587  1.00  0.00     0.089 A 
HETATM    6  C12 UNL     1      26.665   0.950  53.906  1.00  0.00     0.011 A 
HETATM    7  C13 UNL     1      27.409  -0.061  54.456  1.00  0.00     0.017 A 
HETATM    8  C14 UNL     1      28.757   0.115  54.756  1.00  0.00     0.020 A 
HETATM    9  C15 UNL     1      29.333   1.344  54.482  1.00  0.00     0.116 A 
HETATM   10  N4  UNL     1      28.631   2.352  53.943  1.00  0.00    -0.272 NA
HETATM   11  C16 UNL     1      27.316   2.138  53.666  1.00  0.00     0.130 A 
HETATM   12  N5  UNL     1      24.588   1.840  53.041  1.00  0.00    -0.062 NA
ENDROOT
BRANCH   1  13
HETATM   13  N2  UNL     1      22.436   2.726  52.165  1.00  0.00    -0.188 N 
HETATM   14  H10 UNL     1      21.510   2.988  52.512  1.00  0.00     0.184 HD
BRANCH  13  15
HETATM   15  C7  UNL     1      22.939   3.395  51.015  1.00  0.00     0.051 A 
HETATM   16  C6  UNL     1      22.307   3.292  49.772  1.00  0.00     0.030 A 
HETATM   17  C5  UNL     1      22.797   3.936  48.663  1.00  0.00     0.004 A 
HETATM   18  C4  UNL     1      23.937   4.701  48.791  1.00  0.00     0.029 A 
HETATM   19  C3  UNL     1      24.628   4.863  49.974  1.00  0.00     0.030 A 
HETATM   20  C17 UNL     1      24.087   4.188  51.059  1.00  0.00     0.059 A 
BRANCH  19  21
HETATM   21  N1  UNL     1      25.799   5.646  50.108  1.00  0.00    -0.390 N 
HETATM   22  H6  UNL     1      26.053   5.906  51.108  1.00  0.00     0.159 HD
BRANCH  21  23
HETATM   23  C2  UNL     1      26.615   6.081  48.993  1.00  0.00     0.115 C 
HETATM   24  C1  UNL     1      27.647   5.037  48.621  1.00  0.00     0.026 C 
ENDBRANCH  21  23
ENDBRANCH  19  21
ENDBRANCH  13  15
ENDBRANCH   1  13
TORSDOF 4
ENDMDL
MODEL 6
REMARK VINA RESULT:      -7.3      1.640      2.912
REMARK  4 active torsions:
REMARK  status: ('A' for Active; 'I' for Inactive)
REMARK    1  A    between atoms: C2_2  and  N1_3 
REMARK    2  A    between atoms: N1_3  and  C3_4 
REMARK    3  A    between atoms: C7_8  and  N2_9 
REMARK    4  A    between atoms: N2_9  and  C8_10 
ROOT
HETATM    1  C8  UNL     1      23.110   2.016  51.100  1.00  0.00     0.727 A 
HETATM    2  N3  UNL     1      22.867   3.267  51.581  1.00  0.00    -0.075 NA
HETATM    3  C9  UNL     1      23.679   3.833  52.507  1.00  0.00     0.139 A 
HETATM    4  C10 UNL     1      24.771   3.070  52.938  1.00  0.00     0.053 A 
HETATM    5  C11 UNL     1      25.024   1.810  52.460  1.00  0.00     0.089 A 
HETATM    6  C12 UNL     1      26.144   1.001  52.886  1.00  0.00     0.011 A 
HETATM    7  C13 UNL     1      27.050   1.441  53.815  1.00  0.00     0.017 A 
HETATM    8  C14 UNL     1      28.123   0.648  54.213  1.00  0.00     0.020 A 
HETATM    9  C15 UNL     1      28.254  -0.607  53.643  1.00  0.00     0.116 A 
HETATM   10  N4  UNL     1      27.383  -1.067  52.732  1.00  0.00    -0.272 NA
HETATM   11  C16 UNL     1      26.349  -0.259  52.371  1.00  0.00     0.130 A 
HETATM   12  N5  UNL     1      24.165   1.302  51.529  1.00  0.00    -0.062 NA
ENDROOT
BRANCH   1  13
HETATM   13  N2  UNL     1      22.128   1.647  50.144  1.00  0.00    -0.188 N 
HETATM   14  H10 UNL     1      22.210   1.757  49.130  1.00  0.00     0.184 HD
BRANCH  13  15
HETATM   15  C7  UNL     1      20.935   1.078  50.666  1.00  0.00     0.051 A 
HETATM   16  C6  UNL     1      19.734   1.106  49.950  1.00  0.00     0.030 A 
HETATM   17  C5  UNL     1      18.582   0.559  50.458  1.00  0.00     0.004 A 
HETATM   18  C4  UNL     1      18.623  -0.032  51.703  1.00  0.00     0.029 A 
HETATM   19  C3  UNL     1      19.758  -0.108  52.483  1.00  0.00     0.030 A 
HETATM   20  C17 UNL     1      20.890   0.462  51.918  1.00  0.00     0.059 A 
BRANCH  19  21
HETATM   21  N1  UNL     1      19.803  -0.712  53.762  1.00  0.00    -0.390 N 
HETATM   22  H6  UNL     1      18.955  -1.305  54.010  1.00  0.00     0.159 HD
BRANCH  21  23
HETATM   23  C2  UNL     1      20.902  -0.557  54.693  1.00  0.00     0.115 C 
HETATM   24  C1  UNL     1      21.851  -1.736  54.630  1.00  0.00     0.026 C 
ENDBRANCH  21  23
ENDBRANCH  19  21
ENDBRANCH  13  15
ENDBRANCH   1  13
TORSDOF 4
ENDMDL
MODEL 7
REMARK VINA RESULT:      -7.2      3.172      6.063
REMARK  4 active torsions:
REMARK  status: ('A' for Active; 'I' for Inactive)
REMARK    1  A    between atoms: C2_2  and  N1_3 
REMARK    2  A    between atoms: N1_3  and  C3_4 
REMARK    3  A    between atoms: C7_8  and  N2_9 
REMARK    4  A    between atoms: N2_9  and  C8_10 
ROOT
HETATM    1  C8  UNL     1      26.019   2.492  51.628  1.00  0.00     0.727 A 
HETATM    2  N3  UNL     1      27.193   1.835  51.841  1.00  0.00    -0.075 NA
HETATM    3  C9  UNL     1      27.234   0.684  52.556  1.00  0.00     0.139 A 
HETATM    4  C10 UNL     1      26.015   0.210  53.057  1.00  0.00     0.053 A 
HETATM    5  C11 UNL     1      24.829   0.864  52.847  1.00  0.00     0.089 A 
HETATM    6  C12 UNL     1      23.556   0.398  53.352  1.00  0.00     0.011 A 
HETATM    7  C13 UNL     1      23.442  -0.752  54.090  1.00  0.00     0.017 A 
HETATM    8  C14 UNL     1      22.207  -1.185  54.567  1.00  0.00     0.020 A 
HETATM    9  C15 UNL     1      21.090  -0.421  54.278  1.00  0.00     0.116 A 
HETATM   10  N4  UNL     1      21.169   0.709  53.558  1.00  0.00    -0.272 NA
HETATM   11  C16 UNL     1      22.394   1.096  53.111  1.00  0.00     0.130 A 
HETATM   12  N5  UNL     1      24.862   2.019  52.120  1.00  0.00    -0.062 NA
ENDROOT
BRANCH   1  13
HETATM   13  N2  UNL     1      26.233   3.662  50.855  1.00  0.00    -0.188 N 
HETATM   14  H10 UNL     1      27.115   4.176  50.779  1.00  0.00     0.184 HD
BRANCH  13  15
HETATM   15  C7  UNL     1      25.108   4.144  50.131  1.00  0.00     0.051 A 
HETATM   16  C6  UNL     1      24.726   5.489  50.179  1.00  0.00     0.030 A 
HETATM   17  C5  UNL     1      23.637   5.951  49.482  1.00  0.00     0.004 A 
HETATM   18  C4  UNL     1      22.913   5.059  48.719  1.00  0.00     0.029 A 
HETATM   19  C3  UNL     1      23.212   3.718  48.610  1.00  0.00     0.030 A 
HETATM   20  C17 UNL     1      24.321   3.309  49.336  1.00  0.00     0.059 A 
BRANCH  19  21
HETATM   21  N1  UNL     1      22.469   2.800  47.829  1.00  0.00    -0.390 N 
HETATM   22  H6  UNL     1      22.322   3.088  46.816  1.00  0.00     0.159 HD
BRANCH  21  23
HETATM   23  C2  UNL     1      21.932   1.554  48.337  1.00  0.00     0.115 C 
HETATM   24  C1  UNL     1      20.952   1.792  49.467  1.00  0.00     0.026 C 
ENDBRANCH  21  23
ENDBRANCH  19  21
ENDBRANCH  13  15
ENDBRANCH   1  13
TORSDOF 4
ENDMDL
MODEL 8
REMARK VINA RESULT:      -7.2      3.487      6.749
REMARK  4 active torsions:
REMARK  status: ('A' for Active; 'I' for Inactive)
REMARK    1  A    between atoms: C2_2  and  N1_3 
REMARK    2  A    between atoms: N1_3  and  C3_4 
REMARK    3  A    between atoms: C7_8  and  N2_9 
REMARK    4  A    between atoms: N2_9  and  C8_10 
ROOT
HETATM    1  C8  UNL     1      25.635   1.988  52.050  1.00  0.00     0.727 A 
HETATM    2  N3  UNL     1      26.728   1.313  52.505  1.00  0.00    -0.075 NA
HETATM    3  C9  UNL     1      26.598   0.194  53.259  1.00  0.00     0.139 A 
HETATM    4  C10 UNL     1      25.292  -0.228  53.541  1.00  0.00     0.053 A 
HETATM    5  C11 UNL     1      24.188   0.445  53.087  1.00  0.00     0.089 A 
HETATM    6  C12 UNL     1      22.829   0.031  53.362  1.00  0.00     0.011 A 
HETATM    7  C13 UNL     1      22.543  -1.081  54.110  1.00  0.00     0.017 A 
HETATM    8  C14 UNL     1      21.228  -1.463  54.363  1.00  0.00     0.020 A 
HETATM    9  C15 UNL     1      20.209  -0.687  53.840  1.00  0.00     0.116 A 
HETATM   10  N4  UNL     1      20.457   0.408  53.105  1.00  0.00    -0.272 NA
HETATM   11  C16 UNL     1      21.755   0.746  52.880  1.00  0.00     0.130 A 
HETATM   12  N5  UNL     1      24.392   1.564  52.334  1.00  0.00    -0.062 NA
ENDROOT
BRANCH   1  13
HETATM   13  N2  UNL     1      26.027   3.117  51.285  1.00  0.00    -0.188 N 
HETATM   14  H10 UNL     1      26.981   3.472  51.190  1.00  0.00     0.184 HD
BRANCH  13  15
HETATM   15  C7  UNL     1      24.983   3.798  50.602  1.00  0.00     0.051 A 
HETATM   16  C6  UNL     1      24.486   3.340  49.378  1.00  0.00     0.030 A 
HETATM   17  C5  UNL     1      23.479   4.001  48.719  1.00  0.00     0.004 A 
HETATM   18  C4  UNL     1      22.954   5.142  49.288  1.00  0.00     0.029 A 
HETATM   19  C3  UNL     1      23.377   5.669  50.489  1.00  0.00     0.030 A 
HETATM   20  C17 UNL     1      24.396   4.959  51.109  1.00  0.00     0.059 A 
BRANCH  19  21
HETATM   21  N1  UNL     1      22.840   6.840  51.075  1.00  0.00    -0.390 N 
HETATM   22  H6  UNL     1      23.458   7.299  51.810  1.00  0.00     0.159 HD
BRANCH  21  23
HETATM   23  C2  UNL     1      21.551   7.402  50.728  1.00  0.00     0.115 C 
HETATM   24  C1  UNL     1      21.685   8.504  49.698  1.00  0.00     0.026 C 
ENDBRANCH  21  23
ENDBRANCH  19  21
ENDBRANCH  13  15
ENDBRANCH   1  13
TORSDOF 4
ENDMDL
MODEL 9
REMARK VINA RESULT:      -7.2      1.231      8.161
REMARK  4 active torsions:
REMARK  status: ('A' for Active; 'I' for Inactive)
REMARK    1  A    between atoms: C2_2  and  N1_3 
REMARK    2  A    between atoms: N1_3  and  C3_4 
REMARK    3  A    between atoms: C7_8  and  N2_9 
REMARK    4  A    between atoms: N2_9  and  C8_10 
ROOT
HETATM    1  C8  UNL     1      22.658   0.367  52.668  1.00  0.00     0.727 A 
HETATM    2  N3  UNL     1      23.050  -0.127  53.875  1.00  0.00    -0.075 NA
HETATM    3  C9  UNL     1      22.175  -0.768  54.689  1.00  0.00     0.139 A 
HETATM    4  C10 UNL     1      20.859  -0.893  54.225  1.00  0.00     0.053 A 
HETATM    5  C11 UNL     1      20.456  -0.399  53.012  1.00  0.00     0.089 A 
HETATM    6  C12 UNL     1      19.105  -0.516  52.507  1.00  0.00     0.011 A 
HETATM    7  C13 UNL     1      18.113  -1.139  53.219  1.00  0.00     0.017 A 
HETATM    8  C14 UNL     1      16.819  -1.242  52.716  1.00  0.00     0.020 A 
HETATM    9  C15 UNL     1      16.555  -0.694  51.472  1.00  0.00     0.116 A 
HETATM   10  N4  UNL     1      17.504  -0.078  50.752  1.00  0.00    -0.272 NA
HETATM   11  C16 UNL     1      18.756   0.000  51.280  1.00  0.00     0.130 A 
HETATM   12  N5  UNL     1      21.390   0.235  52.244  1.00  0.00    -0.062 NA
ENDROOT
BRANCH   1  13
HETATM   13  N2  UNL     1      23.747   0.988  52.003  1.00  0.00    -0.188 N 
HETATM   14  H10 UNL     1      23.709   1.440  51.087  1.00  0.00     0.184 HD
BRANCH  13  15
HETATM   15  C7  UNL     1      24.991   0.966  52.692  1.00  0.00     0.051 A 
HETATM   16  C6  UNL     1      25.534   2.121  53.263  1.00  0.00     0.030 A 
HETATM   17  C5  UNL     1      26.736   2.097  53.926  1.00  0.00     0.004 A 
HETATM   18  C4  UNL     1      27.414   0.900  54.024  1.00  0.00     0.029 A 
HETATM   19  C3  UNL     1      26.959  -0.289  53.495  1.00  0.00     0.030 A 
HETATM   20  C17 UNL     1      25.740  -0.204  52.837  1.00  0.00     0.059 A 
BRANCH  19  21
HETATM   21  N1  UNL     1      27.652  -1.519  53.593  1.00  0.00    -0.390 N 
HETATM   22  H6  UNL     1      27.152  -2.274  54.152  1.00  0.00     0.159 HD
BRANCH  21  23
HETATM   23  C2  UNL     1      28.948  -1.769  52.994  1.00  0.00     0.115 C 
HETATM   24  C1  UNL     1      30.054  -1.063  53.751  1.00  0.00     0.026 C 
ENDBRANCH  21  23
ENDBRANCH  19  21
ENDBRANCH  13  15
ENDBRANCH   1  13
TORSDOF 4
ENDMDL
