MODEL 1
REMARK VINA RESULT:      -8.2      0.000      0.000
REMARK  3 active torsions:
REMARK  status: ('A' for Active; 'I' for Inactive)
REMARK    1  A    between atoms: C1_2  and  C2_3 
REMARK       I    between atoms: C1_2  and  N1_6 
REMARK    2  A    between atoms: N1_6  and  C4_7 
REMARK    3  A    between atoms: C7_10  and  N2_11 
ROOT
HETATM    1  C4  UNL     1      25.624  -0.294  53.658  1.00  0.00     0.131 A 
HETATM    2  C5  UNL     1      24.676   0.506  53.057  1.00  0.00     0.068 A 
HETATM    3  C6  UNL     1      23.364   0.366  53.495  1.00  0.00     0.044 A 
HETATM    4  C7  UNL     1      22.430   1.175  52.881  1.00  0.00     0.147 A 
HETATM    5  N3  UNL     1      21.138   1.055  53.294  1.00  0.00    -0.223 NA
HETATM    6  C13 UNL     1      20.785   0.189  54.254  1.00  0.00     0.236 A 
HETATM    7  N4  UNL     1      21.716  -0.590  54.837  1.00  0.00    -0.240 NA
HETATM    8  C14 UNL     1      23.005  -0.527  54.484  1.00  0.00     0.089 A 
HETATM    9  C15 UNL     1      24.008  -1.305  55.050  1.00  0.00     0.151 A 
HETATM   10  N5  UNL     1      25.289  -1.167  54.623  1.00  0.00    -0.241 NA
ENDROOT
BRANCH   1  11
HETATM   11  N1  UNL     1      26.980  -0.187  53.245  1.00  0.00    -0.308 N 
HETATM   12  C1  UNL     1      28.002   0.294  54.096  1.00  0.00     0.247 C 
HETATM   13  O1  UNL     1      27.759   0.656  55.277  1.00  0.00    -0.268 OA
HETATM   14  H3  UNL     1      27.276  -0.462  52.287  1.00  0.00     0.170 HD
BRANCH  12  15
HETATM   15  C2  UNL     1      29.403   0.417  53.709  1.00  0.00     0.086 C 
HETATM   16  C3  UNL     1      30.028  -0.703  53.380  1.00  0.00     0.090 C 
HETATM   17 CL1  UNL     1      29.299  -2.297  53.376  1.00  0.00    -0.097 Cl
ENDBRANCH  12  15
ENDBRANCH   1  11
BRANCH   4  18
HETATM   18  N2  UNL     1      22.704   2.125  51.853  1.00  0.00    -0.316 N 
HETATM   19  C8  UNL     1      23.214   3.417  52.174  1.00  0.00     0.094 A 
HETATM   20  C9  UNL     1      23.431   4.216  51.153  1.00  0.00    -0.004 A 
HETATM   21  C10 UNL     1      23.213   3.933  49.718  1.00  0.00     0.076 A 
HETATM   22  C11 UNL     1      22.685   2.557  49.549  1.00  0.00     0.008 A 
HETATM   23 BR1  UNL     1      22.354   2.053  47.733  1.00  0.00    -0.054 Br
HETATM   24  C12 UNL     1      22.432   1.675  50.528  1.00  0.00     0.113 A 
ENDBRANCH   4  18
TORSDOF 3
ENDMDL
MODEL 2
REMARK VINA RESULT:      -8.2      1.152      1.544
REMARK  3 active torsions:
REMARK  status: ('A' for Active; 'I' for Inactive)
REMARK    1  A    between atoms: C1_2  and  C2_3 
REMARK       I    between atoms: C1_2  and  N1_6 
REMARK    2  A    between atoms: N1_6  and  C4_7 
REMARK    3  A    between atoms: C7_10  and  N2_11 
ROOT
HETATM    1  C4  UNL     1      25.559  -0.270  53.611  1.00  0.00     0.131 A 
HETATM    2  C5  UNL     1      24.592   0.460  52.954  1.00  0.00     0.068 A 
HETATM    3  C6  UNL     1      23.284   0.326  53.406  1.00  0.00     0.044 A 
HETATM    4  C7  UNL     1      22.332   1.064  52.736  1.00  0.00     0.147 A 
HETATM    5  N3  UNL     1      21.044   0.948  53.161  1.00  0.00    -0.223 NA
HETATM    6  C13 UNL     1      20.712   0.151  54.187  1.00  0.00     0.236 A 
HETATM    7  N4  UNL     1      21.661  -0.559  54.824  1.00  0.00    -0.240 NA
HETATM    8  C14 UNL     1      22.947  -0.496  54.463  1.00  0.00     0.089 A 
HETATM    9  C15 UNL     1      23.969  -1.206  55.084  1.00  0.00     0.151 A 
HETATM   10  N5  UNL     1      25.245  -1.074  54.642  1.00  0.00    -0.241 NA
ENDROOT
BRANCH   1  11
HETATM   11  N1  UNL     1      26.912  -0.166  53.186  1.00  0.00    -0.308 N 
HETATM   12  C1  UNL     1      27.956   0.232  54.053  1.00  0.00     0.247 C 
HETATM   13  O1  UNL     1      27.737   0.517  55.259  1.00  0.00    -0.268 OA
HETATM   14  H3  UNL     1      27.188  -0.382  52.208  1.00  0.00     0.170 HD
BRANCH  12  15
HETATM   15  C2  UNL     1      29.355   0.350  53.655  1.00  0.00     0.086 C 
HETATM   16  C3  UNL     1      29.980  -0.776  53.347  1.00  0.00     0.090 C 
HETATM   17 CL1  UNL     1      29.255  -2.372  53.384  1.00  0.00    -0.097 Cl
ENDBRANCH  12  15
ENDBRANCH   1  11
BRANCH   4  18
HETATM   18  N2  UNL     1      22.584   1.937  51.636  1.00  0.00    -0.316 N 
HETATM   19  C8  UNL     1      22.454   1.473  50.294  1.00  0.00     0.094 A 
HETATM   20  C9  UNL     1      22.709   2.358  49.356  1.00  0.00    -0.004 A 
HETATM   21  C10 UNL     1      23.111   3.771  49.527  1.00  0.00     0.076 A 
HETATM   22  C11 UNL     1      23.201   4.099  50.971  1.00  0.00     0.008 A 
HETATM   23 BR1  UNL     1      23.715   5.904  51.342  1.00  0.00    -0.054 Br
HETATM   24  C12 UNL     1      22.961   3.265  51.994  1.00  0.00     0.113 A 
ENDBRANCH   4  18
TORSDOF 3
ENDMDL
MODEL 3
REMARK VINA RESULT:      -7.8      3.304      5.764
REMARK  3 active torsions:
REMARK  status: ('A' for Active; 'I' for Inactive)
REMARK    1  A    between atoms: C1_2  and  C2_3 
REMARK       I    between atoms: C1_2  and  N1_6 
REMARK    2  A    between atoms: N1_6  and  C4_7 
REMARK    3  A    between atoms: C7_10  and  N2_11 
ROOT
HETATM    1  C4  UNL     1      22.669   0.934  51.670  1.00  0.00     0.131 A 
HETATM    2  C5  UNL     1      23.810   0.756  52.423  1.00  0.00     0.068 A 
HETATM    3  C6  UNL     1      23.705  -0.058  53.544  1.00  0.00     0.044 A 
HETATM    4  C7  UNL     1      24.857  -0.223  54.284  1.00  0.00     0.147 A 
HETATM    5  N3  UNL     1      24.779  -1.016  55.388  1.00  0.00    -0.223 NA
HETATM    6  C13 UNL     1      23.633  -1.614  55.743  1.00  0.00     0.236 A 
HETATM    7  N4  UNL     1      22.522  -1.437  55.003  1.00  0.00    -0.240 NA
HETATM    8  C14 UNL     1      22.522  -0.672  53.906  1.00  0.00     0.089 A 
HETATM    9  C15 UNL     1      21.408  -0.453  53.106  1.00  0.00     0.151 A 
HETATM   10  N5  UNL     1      21.510   0.342  52.010  1.00  0.00    -0.241 NA
ENDROOT
BRANCH   1  11
HETATM   11  N1  UNL     1      22.725   1.758  50.513  1.00  0.00    -0.308 N 
HETATM   12  C1  UNL     1      22.544   3.159  50.564  1.00  0.00     0.247 C 
HETATM   13  O1  UNL     1      22.322   3.755  51.650  1.00  0.00    -0.268 OA
HETATM   14  H3  UNL     1      22.904   1.355  49.572  1.00  0.00     0.170 HD
BRANCH  12  15
HETATM   15  C2  UNL     1      22.596   4.037  49.400  1.00  0.00     0.086 C 
HETATM   16  C3  UNL     1      23.800   4.343  48.942  1.00  0.00     0.090 C 
HETATM   17 CL1  UNL     1      25.311   3.776  49.626  1.00  0.00    -0.097 Cl
ENDBRANCH  12  15
ENDBRANCH   1  11
BRANCH   4  18
HETATM   18  N2  UNL     1      26.122   0.368  53.990  1.00  0.00    -0.316 N 
HETATM   19  C8  UNL     1      26.241   1.777  53.806  1.00  0.00     0.094 A 
HETATM   20  C9  UNL     1      27.451   2.218  53.538  1.00  0.00    -0.004 A 
HETATM   21  C10 UNL     1      28.695   1.430  53.409  1.00  0.00     0.076 A 
HETATM   22  C11 UNL     1      28.407  -0.009  53.627  1.00  0.00     0.008 A 
HETATM   23 BR1  UNL     1      29.936  -1.152  53.488  1.00  0.00    -0.054 Br
HETATM   24  C12 UNL     1      27.211  -0.548  53.903  1.00  0.00     0.113 A 
ENDBRANCH   4  18
TORSDOF 3
ENDMDL
MODEL 4
REMARK VINA RESULT:      -7.4      2.274      4.099
REMARK  3 active torsions:
REMARK  status: ('A' for Active; 'I' for Inactive)
REMARK    1  A    between atoms: C1_2  and  C2_3 
REMARK       I    between atoms: C1_2  and  N1_6 
REMARK    2  A    between atoms: N1_6  and  C4_7 
REMARK    3  A    between atoms: C7_10  and  N2_11 
ROOT
HETATM    1  C4  UNL     1      25.962   1.001  51.718  1.00  0.00     0.131 A 
HETATM    2  C5  UNL     1      24.647   1.003  52.134  1.00  0.00     0.068 A 
HETATM    3  C6  UNL     1      23.949   2.199  52.013  1.00  0.00     0.044 A 
HETATM    4  C7  UNL     1      22.636   2.180  52.434  1.00  0.00     0.147 A 
HETATM    5  N3  UNL     1      21.933   3.341  52.325  1.00  0.00    -0.223 NA
HETATM    6  C13 UNL     1      22.489   4.455  51.830  1.00  0.00     0.236 A 
HETATM    7  N4  UNL     1      23.772   4.447  51.425  1.00  0.00    -0.240 NA
HETATM    8  C14 UNL     1      24.526   3.344  51.502  1.00  0.00     0.089 A 
HETATM    9  C15 UNL     1      25.855   3.277  51.100  1.00  0.00     0.151 A 
HETATM   10  N5  UNL     1      26.536   2.109  51.219  1.00  0.00    -0.241 NA
ENDROOT
BRANCH   1  11
HETATM   11  N1  UNL     1      26.718  -0.198  51.822  1.00  0.00    -0.308 N 
HETATM   12  C1  UNL     1      27.271  -0.649  53.042  1.00  0.00     0.247 C 
HETATM   13  O1  UNL     1      27.121  -0.003  54.111  1.00  0.00    -0.268 OA
HETATM   14  H3  UNL     1      26.894  -0.798  50.992  1.00  0.00     0.170 HD
BRANCH  12  15
HETATM   15  C2  UNL     1      28.051  -1.874  53.189  1.00  0.00     0.086 C 
HETATM   16  C3  UNL     1      29.356  -1.728  53.364  1.00  0.00     0.090 C 
HETATM   17 CL1  UNL     1      30.196  -0.191  53.431  1.00  0.00    -0.097 Cl
ENDBRANCH  12  15
ENDBRANCH   1  11
BRANCH   4  18
HETATM   18  N2  UNL     1      21.956   1.049  52.974  1.00  0.00    -0.316 N 
HETATM   19  C8  UNL     1      22.589   0.211  53.939  1.00  0.00     0.094 A 
HETATM   20  C9  UNL     1      21.874  -0.805  54.370  1.00  0.00    -0.004 A 
HETATM   21  C10 UNL     1      20.498  -1.177  53.978  1.00  0.00     0.076 A 
HETATM   22  C11 UNL     1      19.980  -0.214  52.975  1.00  0.00     0.008 A 
HETATM   23 BR1  UNL     1      18.200  -0.577  52.374  1.00  0.00    -0.054 Br
HETATM   24  C12 UNL     1      20.634   0.846  52.478  1.00  0.00     0.113 A 
ENDBRANCH   4  18
TORSDOF 3
ENDMDL
MODEL 5
REMARK VINA RESULT:      -7.4      3.905      6.133
REMARK  3 active torsions:
REMARK  status: ('A' for Active; 'I' for Inactive)
REMARK    1  A    between atoms: C1_2  and  C2_3 
REMARK       I    between atoms: C1_2  and  N1_6 
REMARK    2  A    between atoms: N1_6  and  C4_7 
REMARK    3  A    between atoms: C7_10  and  N2_11 
ROOT
HETATM    1  C4  UNL     1      24.372   3.309  51.734  1.00  0.00     0.131 A 
HETATM    2  C5  UNL     1      24.911   2.155  52.261  1.00  0.00     0.068 A 
HETATM    3  C6  UNL     1      24.026   1.256  52.845  1.00  0.00     0.044 A 
HETATM    4  C7  UNL     1      24.584   0.108  53.367  1.00  0.00     0.147 A 
HETATM    5  N3  UNL     1      23.736  -0.788  53.944  1.00  0.00    -0.223 NA
HETATM    6  C13 UNL     1      22.416  -0.567  54.004  1.00  0.00     0.236 A 
HETATM    7  N4  UNL     1      21.896   0.562  53.487  1.00  0.00    -0.240 NA
HETATM    8  C14 UNL     1      22.666   1.488  52.904  1.00  0.00     0.089 A 
HETATM    9  C15 UNL     1      22.186   2.670  52.354  1.00  0.00     0.151 A 
HETATM   10  N5  UNL     1      23.050   3.548  51.784  1.00  0.00    -0.241 NA
ENDROOT
BRANCH   1  11
HETATM   11  N1  UNL     1      25.237   4.260  51.126  1.00  0.00    -0.308 N 
HETATM   12  C1  UNL     1      25.537   4.245  49.744  1.00  0.00     0.247 C 
HETATM   13  O1  UNL     1      25.047   3.379  48.974  1.00  0.00    -0.268 OA
HETATM   14  H3  UNL     1      25.687   5.013  51.682  1.00  0.00     0.170 HD
BRANCH  12  15
HETATM   15  C2  UNL     1      26.417   5.203  49.084  1.00  0.00     0.086 C 
HETATM   16  C3  UNL     1      25.852   6.311  48.628  1.00  0.00     0.090 C 
HETATM   17 CL1  UNL     1      24.148   6.699  48.761  1.00  0.00    -0.097 Cl
ENDBRANCH  12  15
ENDBRANCH   1  11
BRANCH   4  18
HETATM   18  N2  UNL     1      25.973  -0.218  53.353  1.00  0.00    -0.316 N 
HETATM   19  C8  UNL     1      26.424  -1.455  52.806  1.00  0.00     0.094 A 
HETATM   20  C9  UNL     1      27.722  -1.657  52.843  1.00  0.00    -0.004 A 
HETATM   21  C10 UNL     1      28.765  -0.758  53.381  1.00  0.00     0.076 A 
HETATM   22  C11 UNL     1      28.140   0.480  53.911  1.00  0.00     0.008 A 
HETATM   23 BR1  UNL     1      29.379   1.741  54.643  1.00  0.00    -0.054 Br
HETATM   24  C12 UNL     1      26.831   0.772  53.916  1.00  0.00     0.113 A 
ENDBRANCH   4  18
TORSDOF 3
ENDMDL
MODEL 6
REMARK VINA RESULT:      -7.4      3.160      5.353
REMARK  3 active torsions:
REMARK  status: ('A' for Active; 'I' for Inactive)
REMARK    1  A    between atoms: C1_2  and  C2_3 
REMARK       I    between atoms: C1_2  and  N1_6 
REMARK    2  A    between atoms: N1_6  and  C4_7 
REMARK    3  A    between atoms: C7_10  and  N2_11 
ROOT
HETATM    1  C4  UNL     1      24.075  -0.281  53.493  1.00  0.00     0.131 A 
HETATM    2  C5  UNL     1      24.667   0.756  52.806  1.00  0.00     0.068 A 
HETATM    3  C6  UNL     1      25.957   1.110  53.187  1.00  0.00     0.044 A 
HETATM    4  C7  UNL     1      26.532   2.150  52.488  1.00  0.00     0.147 A 
HETATM    5  N3  UNL     1      27.795   2.515  52.843  1.00  0.00    -0.223 NA
HETATM    6  C13 UNL     1      28.453   1.891  53.830  1.00  0.00     0.236 A 
HETATM    7  N4  UNL     1      27.869   0.879  54.498  1.00  0.00    -0.240 NA
HETATM    8  C14 UNL     1      26.631   0.466  54.204  1.00  0.00     0.089 A 
HETATM    9  C15 UNL     1      25.979  -0.573  54.858  1.00  0.00     0.151 A 
HETATM   10  N5  UNL     1      24.720  -0.918  54.486  1.00  0.00    -0.241 NA
ENDROOT
BRANCH   1  11
HETATM   11  N1  UNL     1      22.757  -0.680  53.140  1.00  0.00    -0.308 N 
HETATM   12  C1  UNL     1      21.680  -0.654  54.056  1.00  0.00     0.247 C 
HETATM   13  O1  UNL     1      21.836  -0.271  55.244  1.00  0.00    -0.268 OA
HETATM   14  H3  UNL     1      22.532  -1.011  52.181  1.00  0.00     0.170 HD
BRANCH  12  15
HETATM   15  C2  UNL     1      20.315  -1.054  53.731  1.00  0.00     0.086 C 
HETATM   16  C3  UNL     1      19.569  -0.159  53.102  1.00  0.00     0.090 C 
HETATM   17 CL1  UNL     1      20.098   1.446  52.641  1.00  0.00    -0.097 Cl
ENDBRANCH  12  15
ENDBRANCH   1  11
BRANCH   4  18
HETATM   18  N2  UNL     1      25.916   2.875  51.424  1.00  0.00    -0.316 N 
HETATM   19  C8  UNL     1      26.533   2.949  50.141  1.00  0.00     0.094 A 
HETATM   20  C9  UNL     1      25.882   3.642  49.233  1.00  0.00    -0.004 A 
HETATM   21  C10 UNL     1      24.592   4.348  49.384  1.00  0.00     0.076 A 
HETATM   22  C11 UNL     1      24.080   4.177  50.766  1.00  0.00     0.008 A 
HETATM   23 BR1  UNL     1      22.408   5.043  51.105  1.00  0.00    -0.054 Br
HETATM   24  C12 UNL     1      24.673   3.491  51.755  1.00  0.00     0.113 A 
ENDBRANCH   4  18
TORSDOF 3
ENDMDL
MODEL 7
REMARK VINA RESULT:      -7.4      3.507      6.427
REMARK  3 active torsions:
REMARK  status: ('A' for Active; 'I' for Inactive)
REMARK    1  A    between atoms: C1_2  and  C2_3 
REMARK       I    between atoms: C1_2  and  N1_6 
REMARK    2  A    between atoms: N1_6  and  C4_7 
REMARK    3  A    between atoms: C7_10  and  N2_11 
ROOT
HETATM    1  C4  UNL     1      22.893   1.873  52.408  1.00  0.00     0.131 A 
HETATM    2  C5  UNL     1      24.269   1.810  52.357  1.00  0.00     0.068 A 
HETATM    3  C6  UNL     1      24.903   2.611  51.414  1.00  0.00     0.044 A 
HETATM    4  C7  UNL     1      26.279   2.533  51.378  1.00  0.00     0.147 A 
HETATM    5  N3  UNL     1      26.921   3.310  50.462  1.00  0.00    -0.223 NA
HETATM    6  C13 UNL     1      26.248   4.116  49.629  1.00  0.00     0.236 A 
HETATM    7  N4  UNL     1      24.904   4.174  49.685  1.00  0.00    -0.240 NA
HETATM    8  C14 UNL     1      24.205   3.440  50.558  1.00  0.00     0.089 A 
HETATM    9  C15 UNL     1      22.819   3.459  50.660  1.00  0.00     0.151 A 
HETATM   10  N5  UNL     1      22.201   2.676  51.581  1.00  0.00    -0.241 NA
ENDROOT
BRANCH   1  11
HETATM   11  N1  UNL     1      22.199   1.073  53.356  1.00  0.00    -0.308 N 
HETATM   12  C1  UNL     1      22.485  -0.298  53.552  1.00  0.00     0.247 C 
HETATM   13  O1  UNL     1      23.378  -0.886  52.889  1.00  0.00    -0.268 OA
HETATM   14  H3  UNL     1      21.445   1.471  53.949  1.00  0.00     0.170 HD
BRANCH  12  15
HETATM   15  C2  UNL     1      21.796  -1.152  54.515  1.00  0.00     0.086 C 
HETATM   16  C3  UNL     1      20.508  -1.370  54.297  1.00  0.00     0.090 C 
HETATM   17 CL1  UNL     1      19.589  -0.716  52.956  1.00  0.00    -0.097 Cl
ENDBRANCH  12  15
ENDBRANCH   1  11
BRANCH   4  18
HETATM   18  N2  UNL     1      27.084   1.709  52.219  1.00  0.00    -0.316 N 
HETATM   19  C8  UNL     1      28.011   2.290  53.134  1.00  0.00     0.094 A 
HETATM   20  C9  UNL     1      28.704   1.441  53.861  1.00  0.00    -0.004 A 
HETATM   21  C10 UNL     1      28.635  -0.036  53.843  1.00  0.00     0.076 A 
HETATM   22  C11 UNL     1      27.630  -0.483  52.846  1.00  0.00     0.008 A 
HETATM   23 BR1  UNL     1      27.435  -2.382  52.716  1.00  0.00    -0.054 Br
HETATM   24  C12 UNL     1      26.881   0.306  52.063  1.00  0.00     0.113 A 
ENDBRANCH   4  18
TORSDOF 3
ENDMDL
MODEL 8
REMARK VINA RESULT:      -7.2      3.480      6.235
REMARK  3 active torsions:
REMARK  status: ('A' for Active; 'I' for Inactive)
REMARK    1  A    between atoms: C1_2  and  C2_3 
REMARK       I    between atoms: C1_2  and  N1_6 
REMARK    2  A    between atoms: N1_6  and  C4_7 
REMARK    3  A    between atoms: C7_10  and  N2_11 
ROOT
HETATM    1  C4  UNL     1      24.416   3.127  51.120  1.00  0.00     0.131 A 
HETATM    2  C5  UNL     1      24.007   2.022  51.834  1.00  0.00     0.068 A 
HETATM    3  C6  UNL     1      24.994   1.127  52.232  1.00  0.00     0.044 A 
HETATM    4  C7  UNL     1      24.565   0.027  52.944  1.00  0.00     0.147 A 
HETATM    5  N3  UNL     1      25.514  -0.863  53.344  1.00  0.00    -0.223 NA
HETATM    6  C13 UNL     1      26.811  -0.681  53.059  1.00  0.00     0.236 A 
HETATM    7  N4  UNL     1      27.204   0.401  52.362  1.00  0.00    -0.240 NA
HETATM    8  C14 UNL     1      26.329   1.319  51.936  1.00  0.00     0.089 A 
HETATM    9  C15 UNL     1      26.677   2.454  51.213  1.00  0.00     0.151 A 
HETATM   10  N5  UNL     1      25.712   3.327  50.825  1.00  0.00    -0.241 NA
ENDROOT
BRANCH   1  11
HETATM   11  N1  UNL     1      23.443   4.072  50.691  1.00  0.00    -0.308 N 
HETATM   12  C1  UNL     1      22.873   5.029  51.561  1.00  0.00     0.247 C 
HETATM   13  O1  UNL     1      23.203   5.095  52.774  1.00  0.00    -0.268 OA
HETATM   14  H3  UNL     1      23.110   4.094  49.707  1.00  0.00     0.170 HD
BRANCH  12  15
HETATM   15  C2  UNL     1      21.874   6.014  51.159  1.00  0.00     0.086 C 
HETATM   16  C3  UNL     1      22.329   7.204  50.796  1.00  0.00     0.090 C 
HETATM   17 CL1  UNL     1      24.018   7.670  50.766  1.00  0.00    -0.097 Cl
ENDBRANCH  12  15
ENDBRANCH   1  11
BRANCH   4  18
HETATM   18  N2  UNL     1      23.211  -0.255  53.296  1.00  0.00    -0.316 N 
HETATM   19  C8  UNL     1      22.900  -0.895  54.531  1.00  0.00     0.094 A 
HETATM   20  C9  UNL     1      21.623  -1.110  54.757  1.00  0.00    -0.004 A 
HETATM   21  C10 UNL     1      20.477  -0.766  53.888  1.00  0.00     0.076 A 
HETATM   22  C11 UNL     1      20.963  -0.109  52.649  1.00  0.00     0.008 A 
HETATM   23 BR1  UNL     1      19.580   0.392  51.425  1.00  0.00    -0.054 Br
HETATM   24  C12 UNL     1      22.240   0.149  52.333  1.00  0.00     0.113 A 
ENDBRANCH   4  18
TORSDOF 3
ENDMDL
MODEL 9
REMARK VINA RESULT:      -7.2      2.688      3.956
REMARK  3 active torsions:
REMARK  status: ('A' for Active; 'I' for Inactive)
REMARK    1  A    between atoms: C1_2  and  C2_3 
REMARK       I    between atoms: C1_2  and  N1_6 
REMARK    2  A    between atoms: N1_6  and  C4_7 
REMARK    3  A    between atoms: C7_10  and  N2_11 
ROOT
HETATM    1  C4  UNL     1      23.878   1.079  52.616  1.00  0.00     0.131 A 
HETATM    2  C5  UNL     1      24.079   1.922  51.544  1.00  0.00     0.068 A 
HETATM    3  C6  UNL     1      23.104   1.926  50.553  1.00  0.00     0.044 A 
HETATM    4  C7  UNL     1      23.324   2.775  49.489  1.00  0.00     0.147 A 
HETATM    5  N3  UNL     1      22.382   2.796  48.506  1.00  0.00    -0.223 NA
HETATM    6  C13 UNL     1      21.287   2.026  48.567  1.00  0.00     0.236 A 
HETATM    7  N4  UNL     1      21.096   1.206  49.616  1.00  0.00    -0.240 NA
HETATM    8  C14 UNL     1      21.978   1.131  50.620  1.00  0.00     0.089 A 
HETATM    9  C15 UNL     1      21.833   0.304  51.727  1.00  0.00     0.151 A 
HETATM   10  N5  UNL     1      22.785   0.300  52.694  1.00  0.00    -0.241 NA
ENDROOT
BRANCH   1  11
HETATM   11  N1  UNL     1      24.847   1.040  53.655  1.00  0.00    -0.308 N 
HETATM   12  C1  UNL     1      25.850   0.046  53.726  1.00  0.00     0.247 C 
HETATM   13  O1  UNL     1      25.936  -0.865  52.862  1.00  0.00    -0.268 OA
HETATM   14  H3  UNL     1      24.855   1.751  54.413  1.00  0.00     0.170 HD
BRANCH  12  15
HETATM   15  C2  UNL     1      26.861  -0.028  54.775  1.00  0.00     0.086 C 
HETATM   16  C3  UNL     1      27.987   0.636  54.561  1.00  0.00     0.090 C 
HETATM   17 CL1  UNL     1      28.339   1.582  53.128  1.00  0.00    -0.097 Cl
ENDBRANCH  12  15
ENDBRANCH   1  11
BRANCH   4  18
HETATM   18  N2  UNL     1      24.454   3.632  49.332  1.00  0.00    -0.316 N 
HETATM   19  C8  UNL     1      25.778   3.128  49.498  1.00  0.00     0.094 A 
HETATM   20  C9  UNL     1      26.747   4.001  49.333  1.00  0.00    -0.004 A 
HETATM   21  C10 UNL     1      26.627   5.435  48.995  1.00  0.00     0.076 A 
HETATM   22  C11 UNL     1      25.197   5.804  48.856  1.00  0.00     0.008 A 
HETATM   23 BR1  UNL     1      24.892   7.642  48.418  1.00  0.00    -0.054 Br
HETATM   24  C12 UNL     1      24.145   4.985  49.006  1.00  0.00     0.113 A 
ENDBRANCH   4  18
TORSDOF 3
ENDMDL
