MODEL 1
REMARK VINA RESULT:      -6.7      0.000      0.000
REMARK  6 active torsions:
REMARK  status: ('A' for Active; 'I' for Inactive)
REMARK    1  A    between atoms: C2_2  and  C3_3 
REMARK    2  A    between atoms: C3_3  and  N1_4 
REMARK    3  A    between atoms: N1_4  and  N2_5 
REMARK    4  A    between atoms: N2_5  and  C5_7 
REMARK    5  A    between atoms: C9_13  and  O1_14 
REMARK    6  A    between atoms: C11_16  and  O2_17 
ROOT
HETATM    1  C5  UNL     1      25.021  -0.280  54.134  1.00  0.00     0.157 A 
HETATM    2  N3  UNL     1      25.262  -0.981  55.262  1.00  0.00    -0.222 NA
HETATM    3  C6  UNL     1      24.269  -1.565  55.969  1.00  0.00     0.236 A 
HETATM    4  N4  UNL     1      22.972  -1.498  55.612  1.00  0.00    -0.241 NA
HETATM    5  C7  UNL     1      22.686  -0.803  54.484  1.00  0.00     0.075 A 
HETATM    6  C8  UNL     1      21.361  -0.718  54.093  1.00  0.00     0.072 A 
HETATM    7  C9  UNL     1      21.015  -0.018  52.946  1.00  0.00     0.103 A 
HETATM    8  C11 UNL     1      21.999   0.594  52.195  1.00  0.00     0.102 A 
HETATM    9  C13 UNL     1      23.311   0.495  52.605  1.00  0.00     0.057 A 
HETATM   10  C14 UNL     1      23.693  -0.196  53.744  1.00  0.00     0.043 A 
ENDROOT
BRANCH   1  11
HETATM   11  N2  UNL     1      26.028   0.347  53.364  1.00  0.00    -0.283 N 
HETATM   12  C4  UNL     1      26.437   0.261  51.971  1.00  0.00     0.179 C 
BRANCH  11  13
HETATM   13  N1  UNL     1      26.716   1.202  54.197  1.00  0.00    -0.330 N 
HETATM   14  H6  UNL     1      26.293   2.115  54.379  1.00  0.00     0.180 HD
BRANCH  13  15
HETATM   15  C3  UNL     1      28.143   1.264  53.953  1.00  0.00     0.166 C 
BRANCH  15  16
HETATM   16  C2  UNL     1      28.853   0.082  54.548  1.00  0.00    -0.016 C 
HETATM   17  C1  UNL     1      29.635  -0.753  53.832  1.00  0.00     0.008 C 
ENDBRANCH  15  16
ENDBRANCH  13  15
ENDBRANCH  11  13
ENDBRANCH   1  11
BRANCH   8  18
HETATM   18  O2  UNL     1      21.624   1.289  51.050  1.00  0.00    -0.353 OA
HETATM   19  C12 UNL     1      22.646   1.885  50.270  1.00  0.00     0.210 C 
ENDBRANCH   8  18
BRANCH   7  20
HETATM   20  O1  UNL     1      19.675   0.076  52.539  1.00  0.00    -0.353 OA
HETATM   21  C10 UNL     1      18.717  -0.811  53.048  1.00  0.00     0.210 C 
ENDBRANCH   7  20
TORSDOF 6
ENDMDL
MODEL 2
REMARK VINA RESULT:      -6.6      1.441      1.931
REMARK  6 active torsions:
REMARK  status: ('A' for Active; 'I' for Inactive)
REMARK    1  A    between atoms: C2_2  and  C3_3 
REMARK    2  A    between atoms: C3_3  and  N1_4 
REMARK    3  A    between atoms: N1_4  and  N2_5 
REMARK    4  A    between atoms: N2_5  and  C5_7 
REMARK    5  A    between atoms: C9_13  and  O1_14 
REMARK    6  A    between atoms: C11_16  and  O2_17 
ROOT
HETATM    1  C5  UNL     1      25.080  -0.633  54.233  1.00  0.00     0.157 A 
HETATM    2  N3  UNL     1      24.667  -1.370  55.285  1.00  0.00    -0.222 NA
HETATM    3  C6  UNL     1      23.363  -1.454  55.634  1.00  0.00     0.236 A 
HETATM    4  N4  UNL     1      22.380  -0.818  54.969  1.00  0.00    -0.241 NA
HETATM    5  C7  UNL     1      22.753  -0.066  53.904  1.00  0.00     0.075 A 
HETATM    6  C8  UNL     1      21.763   0.599  53.202  1.00  0.00     0.072 A 
HETATM    7  C9  UNL     1      22.091   1.383  52.105  1.00  0.00     0.103 A 
HETATM    8  C11 UNL     1      23.411   1.496  51.715  1.00  0.00     0.102 A 
HETATM    9  C13 UNL     1      24.378   0.824  52.431  1.00  0.00     0.057 A 
HETATM   10  C14 UNL     1      24.087   0.033  53.531  1.00  0.00     0.043 A 
ENDROOT
BRANCH   1  11
HETATM   11  N2  UNL     1      26.432  -0.516  53.834  1.00  0.00    -0.283 N 
HETATM   12  C4  UNL     1      27.216  -1.072  52.742  1.00  0.00     0.179 C 
BRANCH  11  13
HETATM   13  N1  UNL     1      27.060   0.320  54.730  1.00  0.00    -0.330 N 
HETATM   14  H6  UNL     1      26.723   1.284  54.782  1.00  0.00     0.180 HD
BRANCH  13  15
HETATM   15  C3  UNL     1      28.504   0.209  54.749  1.00  0.00     0.166 C 
BRANCH  15  16
HETATM   16  C2  UNL     1      29.159   1.520  54.421  1.00  0.00    -0.016 C 
HETATM   17  C1  UNL     1      28.623   2.429  53.580  1.00  0.00     0.008 C 
ENDBRANCH  15  16
ENDBRANCH  13  15
ENDBRANCH  11  13
ENDBRANCH   1  11
BRANCH   8  18
HETATM   18  O2  UNL     1      23.712   2.287  50.612  1.00  0.00    -0.353 OA
HETATM   19  C12 UNL     1      24.325   3.544  50.844  1.00  0.00     0.210 C 
ENDBRANCH   8  18
BRANCH   7  20
HETATM   20  O1  UNL     1      21.097   2.062  51.384  1.00  0.00    -0.353 OA
HETATM   21  C10 UNL     1      20.488   3.204  51.922  1.00  0.00     0.210 C 
ENDBRANCH   7  20
TORSDOF 6
ENDMDL
MODEL 3
REMARK VINA RESULT:      -6.6      3.454      5.593
REMARK  6 active torsions:
REMARK  status: ('A' for Active; 'I' for Inactive)
REMARK    1  A    between atoms: C2_2  and  C3_3 
REMARK    2  A    between atoms: C3_3  and  N1_4 
REMARK    3  A    between atoms: N1_4  and  N2_5 
REMARK    4  A    between atoms: N2_5  and  C5_7 
REMARK    5  A    between atoms: C9_13  and  O1_14 
REMARK    6  A    between atoms: C11_16  and  O2_17 
ROOT
HETATM    1  C5  UNL     1      23.261   1.960  52.380  1.00  0.00     0.157 A 
HETATM    2  N3  UNL     1      22.227   1.120  52.168  1.00  0.00    -0.222 NA
HETATM    3  C6  UNL     1      22.257  -0.169  52.575  1.00  0.00     0.236 A 
HETATM    4  N4  UNL     1      23.307  -0.716  53.217  1.00  0.00    -0.241 NA
HETATM    5  C7  UNL     1      24.368   0.095  53.448  1.00  0.00     0.075 A 
HETATM    6  C8  UNL     1      25.462  -0.440  54.106  1.00  0.00     0.072 A 
HETATM    7  C9  UNL     1      26.574   0.348  54.368  1.00  0.00     0.103 A 
HETATM    8  C11 UNL     1      26.585   1.670  53.970  1.00  0.00     0.102 A 
HETATM    9  C13 UNL     1      25.484   2.179  53.316  1.00  0.00     0.057 A 
HETATM   10  C14 UNL     1      24.356   1.422  53.039  1.00  0.00     0.043 A 
ENDROOT
BRANCH   1  11
HETATM   11  N2  UNL     1      23.274   3.315  51.971  1.00  0.00    -0.283 N 
HETATM   12  C4  UNL     1      22.972   4.574  52.635  1.00  0.00     0.179 C 
BRANCH  11  13
HETATM   13  N1  UNL     1      23.665   3.348  50.652  1.00  0.00    -0.330 N 
HETATM   14  H6  UNL     1      24.062   2.489  50.262  1.00  0.00     0.180 HD
BRANCH  13  15
HETATM   15  C3  UNL     1      24.384   4.545  50.264  1.00  0.00     0.166 C 
BRANCH  15  16
HETATM   16  C2  UNL     1      25.655   4.211  49.537  1.00  0.00    -0.016 C 
HETATM   17  C1  UNL     1      26.424   3.143  49.837  1.00  0.00     0.008 C 
ENDBRANCH  15  16
ENDBRANCH  13  15
ENDBRANCH  11  13
ENDBRANCH   1  11
BRANCH   8  18
HETATM   18  O2  UNL     1      27.712   2.436  54.245  1.00  0.00    -0.353 OA
HETATM   19  C12 UNL     1      28.676   2.592  53.217  1.00  0.00     0.210 C 
ENDBRANCH   8  18
BRANCH   7  20
HETATM   20  O1  UNL     1      27.689  -0.183  55.034  1.00  0.00    -0.353 OA
HETATM   21  C10 UNL     1      28.772  -0.693  54.306  1.00  0.00     0.210 C 
ENDBRANCH   7  20
TORSDOF 6
ENDMDL
MODEL 4
REMARK VINA RESULT:      -6.5      1.944      3.554
REMARK  6 active torsions:
REMARK  status: ('A' for Active; 'I' for Inactive)
REMARK    1  A    between atoms: C2_2  and  C3_3 
REMARK    2  A    between atoms: C3_3  and  N1_4 
REMARK    3  A    between atoms: N1_4  and  N2_5 
REMARK    4  A    between atoms: N2_5  and  C5_7 
REMARK    5  A    between atoms: C9_13  and  O1_14 
REMARK    6  A    between atoms: C11_16  and  O2_17 
ROOT
HETATM    1  C5  UNL     1      26.060   0.778  52.245  1.00  0.00     0.157 A 
HETATM    2  N3  UNL     1      26.757   1.593  51.427  1.00  0.00    -0.222 NA
HETATM    3  C6  UNL     1      26.166   2.606  50.752  1.00  0.00     0.236 A 
HETATM    4  N4  UNL     1      24.851   2.881  50.837  1.00  0.00    -0.241 NA
HETATM    5  C7  UNL     1      24.114   2.083  51.650  1.00  0.00     0.075 A 
HETATM    6  C8  UNL     1      22.759   2.342  51.758  1.00  0.00     0.072 A 
HETATM    7  C9  UNL     1      21.960   1.556  52.576  1.00  0.00     0.103 A 
HETATM    8  C11 UNL     1      22.524   0.512  53.283  1.00  0.00     0.102 A 
HETATM    9  C13 UNL     1      23.875   0.274  53.159  1.00  0.00     0.057 A 
HETATM   10  C14 UNL     1      24.703   1.039  52.352  1.00  0.00     0.043 A 
ENDROOT
BRANCH   1  11
HETATM   11  N2  UNL     1      26.636  -0.292  52.970  1.00  0.00    -0.283 N 
HETATM   12  C4  UNL     1      26.848  -1.704  52.691  1.00  0.00     0.179 C 
BRANCH  11  13
HETATM   13  N1  UNL     1      27.054   0.205  54.184  1.00  0.00    -0.330 N 
HETATM   14  H6  UNL     1      26.762   1.156  54.423  1.00  0.00     0.180 HD
BRANCH  13  15
HETATM   15  C3  UNL     1      28.439  -0.072  54.506  1.00  0.00     0.166 C 
BRANCH  15  16
HETATM   16  C2  UNL     1      29.350   1.001  53.982  1.00  0.00    -0.016 C 
HETATM   17  C1  UNL     1      29.028   2.311  53.977  1.00  0.00     0.008 C 
ENDBRANCH  15  16
ENDBRANCH  13  15
ENDBRANCH  11  13
ENDBRANCH   1  11
BRANCH   8  18
HETATM   18  O2  UNL     1      21.700  -0.259  54.095  1.00  0.00    -0.353 OA
HETATM   19  C12 UNL     1      22.314  -1.189  54.972  1.00  0.00     0.210 C 
ENDBRANCH   8  18
BRANCH   7  20
HETATM   20  O1  UNL     1      20.585   1.809  52.694  1.00  0.00    -0.353 OA
HETATM   21  C10 UNL     1      20.045   3.017  52.233  1.00  0.00     0.210 C 
ENDBRANCH   7  20
TORSDOF 6
ENDMDL
MODEL 5
REMARK VINA RESULT:      -6.4      3.037      6.336
REMARK  6 active torsions:
REMARK  status: ('A' for Active; 'I' for Inactive)
REMARK    1  A    between atoms: C2_2  and  C3_3 
REMARK    2  A    between atoms: C3_3  and  N1_4 
REMARK    3  A    between atoms: N1_4  and  N2_5 
REMARK    4  A    between atoms: N2_5  and  C5_7 
REMARK    5  A    between atoms: C9_13  and  O1_14 
REMARK    6  A    between atoms: C11_16  and  O2_17 
ROOT
HETATM    1  C5  UNL     1      24.180   1.935  51.327  1.00  0.00     0.157 A 
HETATM    2  N3  UNL     1      24.589   2.940  50.525  1.00  0.00    -0.222 NA
HETATM    3  C6  UNL     1      25.885   3.320  50.456  1.00  0.00     0.236 A 
HETATM    4  N4  UNL     1      26.864   2.737  51.174  1.00  0.00    -0.241 NA
HETATM    5  C7  UNL     1      26.494   1.722  51.994  1.00  0.00     0.075 A 
HETATM    6  C8  UNL     1      27.480   1.104  52.744  1.00  0.00     0.072 A 
HETATM    7  C9  UNL     1      27.155   0.060  53.599  1.00  0.00     0.103 A 
HETATM    8  C11 UNL     1      25.843  -0.360  53.699  1.00  0.00     0.102 A 
HETATM    9  C13 UNL     1      24.881   0.272  52.942  1.00  0.00     0.057 A 
HETATM   10  C14 UNL     1      25.169   1.317  52.078  1.00  0.00     0.043 A 
ENDROOT
BRANCH   1  11
HETATM   11  N2  UNL     1      22.837   1.504  51.431  1.00  0.00    -0.283 N 
HETATM   12  C4  UNL     1      21.934   0.787  50.544  1.00  0.00     0.179 C 
BRANCH  11  13
HETATM   13  N1  UNL     1      22.369   1.894  52.666  1.00  0.00    -0.330 N 
HETATM   14  H6  UNL     1      23.038   1.891  53.440  1.00  0.00     0.180 HD
BRANCH  13  15
HETATM   15  C3  UNL     1      21.072   1.353  53.019  1.00  0.00     0.166 C 
BRANCH  15  16
HETATM   16  C2  UNL     1      21.175   0.387  54.164  1.00  0.00    -0.016 C 
HETATM   17  C1  UNL     1      21.421  -0.931  54.006  1.00  0.00     0.008 C 
ENDBRANCH  15  16
ENDBRANCH  13  15
ENDBRANCH  11  13
ENDBRANCH   1  11
BRANCH   8  18
HETATM   18  O2  UNL     1      25.547  -1.408  54.563  1.00  0.00    -0.353 OA
HETATM   19  C12 UNL     1      24.719  -1.133  55.680  1.00  0.00     0.210 C 
ENDBRANCH   8  18
BRANCH   7  20
HETATM   20  O1  UNL     1      28.145  -0.575  54.364  1.00  0.00    -0.353 OA
HETATM   21  C10 UNL     1      29.435  -0.756  53.845  1.00  0.00     0.210 C 
ENDBRANCH   7  20
TORSDOF 6
ENDMDL
MODEL 6
REMARK VINA RESULT:      -6.4      1.778      1.950
REMARK  6 active torsions:
REMARK  status: ('A' for Active; 'I' for Inactive)
REMARK    1  A    between atoms: C2_2  and  C3_3 
REMARK    2  A    between atoms: C3_3  and  N1_4 
REMARK    3  A    between atoms: N1_4  and  N2_5 
REMARK    4  A    between atoms: N2_5  and  C5_7 
REMARK    5  A    between atoms: C9_13  and  O1_14 
REMARK    6  A    between atoms: C11_16  and  O2_17 
ROOT
HETATM    1  C5  UNL     1      25.516   1.073  53.203  1.00  0.00     0.157 A 
HETATM    2  N3  UNL     1      25.870  -0.052  53.859  1.00  0.00    -0.222 NA
HETATM    3  C6  UNL     1      24.951  -0.929  54.325  1.00  0.00     0.236 A 
HETATM    4  N4  UNL     1      23.624  -0.754  54.177  1.00  0.00    -0.241 NA
HETATM    5  C7  UNL     1      23.227   0.365  53.523  1.00  0.00     0.075 A 
HETATM    6  C8  UNL     1      21.868   0.571  53.356  1.00  0.00     0.072 A 
HETATM    7  C9  UNL     1      21.408   1.701  52.695  1.00  0.00     0.103 A 
HETATM    8  C11 UNL     1      22.313   2.621  52.203  1.00  0.00     0.102 A 
HETATM    9  C13 UNL     1      23.660   2.394  52.382  1.00  0.00     0.057 A 
HETATM   10  C14 UNL     1      24.155   1.277  53.037  1.00  0.00     0.043 A 
ENDROOT
BRANCH   1  11
HETATM   11  N2  UNL     1      26.442   2.016  52.699  1.00  0.00    -0.283 N 
HETATM   12  C4  UNL     1      26.749   2.521  51.370  1.00  0.00     0.179 C 
BRANCH  11  13
HETATM   13  N1  UNL     1      27.161   2.505  53.767  1.00  0.00    -0.330 N 
HETATM   14  H6  UNL     1      26.834   3.378  54.189  1.00  0.00     0.180 HD
BRANCH  13  15
HETATM   15  C3  UNL     1      28.600   2.443  53.606  1.00  0.00     0.166 C 
BRANCH  15  16
HETATM   16  C2  UNL     1      29.180   1.249  54.308  1.00  0.00    -0.016 C 
HETATM   17  C1  UNL     1      29.555   0.121  53.669  1.00  0.00     0.008 C 
ENDBRANCH  15  16
ENDBRANCH  13  15
ENDBRANCH  11  13
ENDBRANCH   1  11
BRANCH   8  18
HETATM   18  O2  UNL     1      21.824   3.744  51.544  1.00  0.00    -0.353 OA
HETATM   19  C12 UNL     1      22.297   5.014  51.959  1.00  0.00     0.210 C 
ENDBRANCH   8  18
BRANCH   7  20
HETATM   20  O1  UNL     1      20.033   1.920  52.519  1.00  0.00    -0.353 OA
HETATM   21  C10 UNL     1      19.315   1.183  51.568  1.00  0.00     0.210 C 
ENDBRANCH   7  20
TORSDOF 6
ENDMDL
MODEL 7
REMARK VINA RESULT:      -6.4      1.666      2.467
REMARK  6 active torsions:
REMARK  status: ('A' for Active; 'I' for Inactive)
REMARK    1  A    between atoms: C2_2  and  C3_3 
REMARK    2  A    between atoms: C3_3  and  N1_4 
REMARK    3  A    between atoms: N1_4  and  N2_5 
REMARK    4  A    between atoms: N2_5  and  C5_7 
REMARK    5  A    between atoms: C9_13  and  O1_14 
REMARK    6  A    between atoms: C11_16  and  O2_17 
ROOT
HETATM    1  C5  UNL     1      24.416  -0.452  54.154  1.00  0.00     0.157 A 
HETATM    2  N3  UNL     1      23.698  -1.258  54.963  1.00  0.00    -0.222 NA
HETATM    3  C6  UNL     1      22.367  -1.435  54.799  1.00  0.00     0.236 A 
HETATM    4  N4  UNL     1      21.656  -0.830  53.828  1.00  0.00    -0.241 NA
HETATM    5  C7  UNL     1      22.342  -0.010  52.993  1.00  0.00     0.075 A 
HETATM    6  C8  UNL     1      21.637   0.626  51.986  1.00  0.00     0.072 A 
HETATM    7  C9  UNL     1      22.291   1.475  51.105  1.00  0.00     0.103 A 
HETATM    8  C11 UNL     1      23.650   1.684  51.237  1.00  0.00     0.102 A 
HETATM    9  C13 UNL     1      24.329   1.039  52.248  1.00  0.00     0.057 A 
HETATM   10  C14 UNL     1      23.708   0.184  53.145  1.00  0.00     0.043 A 
ENDROOT
BRANCH   1  11
HETATM   11  N2  UNL     1      25.808  -0.237  54.289  1.00  0.00    -0.283 N 
HETATM   12  C4  UNL     1      26.615   0.810  54.897  1.00  0.00     0.179 C 
BRANCH  11  13
HETATM   13  N1  UNL     1      26.452  -1.293  53.684  1.00  0.00    -0.330 N 
HETATM   14  H6  UNL     1      26.652  -2.111  54.265  1.00  0.00     0.180 HD
BRANCH  13  15
HETATM   15  C3  UNL     1      27.553  -0.915  52.820  1.00  0.00     0.166 C 
BRANCH  15  16
HETATM   16  C2  UNL     1      28.838  -1.556  53.257  1.00  0.00    -0.016 C 
HETATM   17  C1  UNL     1      29.925  -0.854  53.641  1.00  0.00     0.008 C 
ENDBRANCH  15  16
ENDBRANCH  13  15
ENDBRANCH  11  13
ENDBRANCH   1  11
BRANCH   8  18
HETATM   18  O2  UNL     1      24.279   2.540  50.340  1.00  0.00    -0.353 OA
HETATM   19  C12 UNL     1      24.753   3.782  50.830  1.00  0.00     0.210 C 
ENDBRANCH   8  18
BRANCH   7  20
HETATM   20  O1  UNL     1      21.588   2.125  50.079  1.00  0.00    -0.353 OA
HETATM   21  C10 UNL     1      21.000   1.385  49.043  1.00  0.00     0.210 C 
ENDBRANCH   7  20
TORSDOF 6
ENDMDL
MODEL 8
REMARK VINA RESULT:      -6.3      3.165      4.623
REMARK  6 active torsions:
REMARK  status: ('A' for Active; 'I' for Inactive)
REMARK    1  A    between atoms: C2_2  and  C3_3 
REMARK    2  A    between atoms: C3_3  and  N1_4 
REMARK    3  A    between atoms: N1_4  and  N2_5 
REMARK    4  A    between atoms: N2_5  and  C5_7 
REMARK    5  A    between atoms: C9_13  and  O1_14 
REMARK    6  A    between atoms: C11_16  and  O2_17 
ROOT
HETATM    1  C5  UNL     1      25.826   2.538  51.320  1.00  0.00     0.157 A 
HETATM    2  N3  UNL     1      27.134   2.519  51.650  1.00  0.00    -0.222 NA
HETATM    3  C6  UNL     1      27.624   1.679  52.589  1.00  0.00     0.236 A 
HETATM    4  N4  UNL     1      26.858   0.802  53.266  1.00  0.00    -0.241 NA
HETATM    5  C7  UNL     1      25.536   0.790  52.964  1.00  0.00     0.075 A 
HETATM    6  C8  UNL     1      24.725  -0.101  53.644  1.00  0.00     0.072 A 
HETATM    7  C9  UNL     1      23.365  -0.154  53.373  1.00  0.00     0.103 A 
HETATM    8  C11 UNL     1      22.824   0.687  52.421  1.00  0.00     0.102 A 
HETATM    9  C13 UNL     1      23.653   1.565  51.758  1.00  0.00     0.057 A 
HETATM   10  C14 UNL     1      25.015   1.645  52.003  1.00  0.00     0.043 A 
ENDROOT
BRANCH   1  11
HETATM   11  N2  UNL     1      25.271   3.400  50.345  1.00  0.00    -0.283 N 
HETATM   12  C4  UNL     1      24.249   3.243  49.322  1.00  0.00     0.179 C 
BRANCH  11  13
HETATM   13  N1  UNL     1      25.894   4.622  50.466  1.00  0.00    -0.330 N 
HETATM   14  H6  UNL     1      25.526   5.265  51.171  1.00  0.00     0.180 HD
BRANCH  13  15
HETATM   15  C3  UNL     1      26.213   5.264  49.207  1.00  0.00     0.166 C 
BRANCH  15  16
HETATM   16  C2  UNL     1      27.559   4.836  48.698  1.00  0.00    -0.016 C 
HETATM   17  C1  UNL     1      28.503   5.701  48.271  1.00  0.00     0.008 C 
ENDBRANCH  15  16
ENDBRANCH  13  15
ENDBRANCH  11  13
ENDBRANCH   1  11
BRANCH   8  18
HETATM   18  O2  UNL     1      21.458   0.612  52.170  1.00  0.00    -0.353 OA
HETATM   19  C12 UNL     1      21.035   0.523  50.820  1.00  0.00     0.210 C 
ENDBRANCH   8  18
BRANCH   7  20
HETATM   20  O1  UNL     1      22.531  -1.054  54.056  1.00  0.00    -0.353 OA
HETATM   21  C10 UNL     1      22.833  -1.443  55.368  1.00  0.00     0.210 C 
ENDBRANCH   7  20
TORSDOF 6
ENDMDL
MODEL 9
REMARK VINA RESULT:      -6.3      3.236      6.604
REMARK  6 active torsions:
REMARK  status: ('A' for Active; 'I' for Inactive)
REMARK    1  A    between atoms: C2_2  and  C3_3 
REMARK    2  A    between atoms: C3_3  and  N1_4 
REMARK    3  A    between atoms: N1_4  and  N2_5 
REMARK    4  A    between atoms: N2_5  and  C5_7 
REMARK    5  A    between atoms: C9_13  and  O1_14 
REMARK    6  A    between atoms: C11_16  and  O2_17 
ROOT
HETATM    1  C5  UNL     1      24.082   2.396  51.166  1.00  0.00     0.157 A 
HETATM    2  N3  UNL     1      24.662   3.221  50.270  1.00  0.00    -0.222 NA
HETATM    3  C6  UNL     1      26.006   3.343  50.174  1.00  0.00     0.236 A 
HETATM    4  N4  UNL     1      26.866   2.662  50.955  1.00  0.00    -0.241 NA
HETATM    5  C7  UNL     1      26.322   1.822  51.870  1.00  0.00     0.075 A 
HETATM    6  C8  UNL     1      27.182   1.108  52.686  1.00  0.00     0.072 A 
HETATM    7  C9  UNL     1      26.677   0.235  53.640  1.00  0.00     0.103 A 
HETATM    8  C11 UNL     1      25.311   0.080  53.770  1.00  0.00     0.102 A 
HETATM    9  C13 UNL     1      24.476   0.803  52.946  1.00  0.00     0.057 A 
HETATM   10  C14 UNL     1      24.945   1.682  51.983  1.00  0.00     0.043 A 
ENDROOT
BRANCH   1  11
HETATM   11  N2  UNL     1      22.683   2.238  51.302  1.00  0.00    -0.283 N 
HETATM   12  C4  UNL     1      21.655   2.930  52.065  1.00  0.00     0.179 C 
BRANCH  11  13
HETATM   13  N1  UNL     1      22.305   1.179  50.507  1.00  0.00    -0.330 N 
HETATM   14  H6  UNL     1      23.047   0.554  50.181  1.00  0.00     0.180 HD
BRANCH  13  15
HETATM   15  C3  UNL     1      21.334   1.507  49.482  1.00  0.00     0.166 C 
BRANCH  15  16
HETATM   16  C2  UNL     1      21.973   1.586  48.126  1.00  0.00    -0.016 C 
HETATM   17  C1  UNL     1      22.282   2.750  47.516  1.00  0.00     0.008 C 
ENDBRANCH  15  16
ENDBRANCH  13  15
ENDBRANCH  11  13
ENDBRANCH   1  11
BRANCH   8  18
HETATM   18  O2  UNL     1      24.833  -0.801  54.734  1.00  0.00    -0.353 OA
HETATM   19  C12 UNL     1      23.439  -1.051  54.770  1.00  0.00     0.210 C 
ENDBRANCH   8  18
BRANCH   7  20
HETATM   20  O1  UNL     1      27.540  -0.494  54.473  1.00  0.00    -0.353 OA
HETATM   21  C10 UNL     1      28.888  -0.131  54.589  1.00  0.00     0.210 C 
ENDBRANCH   7  20
TORSDOF 6
ENDMDL
