MODEL 1
REMARK VINA RESULT:      -7.6      0.000      0.000
REMARK  4 active torsions:
REMARK  status: ('A' for Active; 'I' for Inactive)
REMARK    1  A    between atoms: C8_9  and  O1_10 
REMARK    2  A    between atoms: O1_10  and  C9_11 
REMARK    3  A    between atoms: C9_11  and  C10_12 
REMARK    4  A    between atoms: C10_12  and  N2_13 
ROOT
HETATM    1  C1  UNL     1      23.004   3.187  48.284  1.00  0.00     0.047 C 
HETATM    2  C2  UNL     1      23.233   3.804  49.627  1.00  0.00    -0.041 C 
HETATM    3  C3  UNL     1      22.607   4.948  49.784  1.00  0.00     0.007 C 
HETATM    4  C4  UNL     1      22.660   5.757  50.994  1.00  0.00     0.017 C 
HETATM    5  C5  UNL     1      23.177   5.527  52.210  1.00  0.00     0.085 C 
HETATM    6  N1  UNL     1      23.832   4.329  52.571  1.00  0.00    -0.370 N 
HETATM    7  C6  UNL     1      23.585   2.991  51.970  1.00  0.00     0.143 C 
HETATM    8  C7  UNL     1      24.340   1.998  52.713  1.00  0.00     0.089 C 
HETATM    9  C8  UNL     1      24.876   0.949  53.282  1.00  0.00     0.124 C 
HETATM   10  C13 UNL     1      24.679  -0.549  53.310  1.00  0.00     0.216 C 
HETATM   11  O2  UNL     1      24.394  -0.870  54.675  1.00  0.00    -0.360 OA
HETATM   12  C14 UNL     1      23.074  -1.125  54.993  1.00  0.00     0.136 C 
HETATM   13  C15 UNL     1      21.727  -1.002  55.003  1.00  0.00     0.043 C 
HETATM   14  C16 UNL     1      21.116   0.044  54.202  1.00  0.00     0.120 C 
HETATM   15  N3  UNL     1      21.946   0.748  53.568  1.00  0.00    -0.254 NA
HETATM   16  C17 UNL     1      21.629   1.830  52.715  1.00  0.00     0.397 C 
HETATM   17  N4  UNL     1      22.129   2.776  52.025  1.00  0.00    -0.376 NA
HETATM   18  C18 UNL     1      24.101   3.064  50.556  1.00  0.00     0.166 C 
HETATM   19  C19 UNL     1      25.463   3.769  50.569  1.00  0.00     0.062 C 
HETATM   20  F1  UNL     1      24.298   1.760  50.143  1.00  0.00    -0.234 F 
HETATM   21  H7  UNL     1      24.529   4.501  53.335  1.00  0.00     0.161 HD
ENDROOT
BRANCH   9  22
HETATM   22  O1  UNL     1      25.921   1.292  54.097  1.00  0.00    -0.372 OA
BRANCH  22  23
HETATM   23  C9  UNL     1      27.283   1.194  53.858  1.00  0.00     0.199 C 
BRANCH  23  24
HETATM   24  C10 UNL     1      27.983   0.208  54.769  1.00  0.00     0.297 C 
BRANCH  24  25
HETATM   25  N2  UNL     1      28.907  -0.657  54.114  1.00  0.00     0.082 N 
HETATM   26  C11 UNL     1      30.050  -0.014  53.519  1.00  0.00     0.309 C 
HETATM   27  C12 UNL     1      28.176  -1.357  53.070  1.00  0.00     0.309 C 
ENDBRANCH  24  25
ENDBRANCH  23  24
ENDBRANCH  22  23
ENDBRANCH   9  22
TORSDOF 4
ENDMDL
MODEL 2
REMARK VINA RESULT:      -7.1      1.809      2.305
REMARK  4 active torsions:
REMARK  status: ('A' for Active; 'I' for Inactive)
REMARK    1  A    between atoms: C8_9  and  O1_10 
REMARK    2  A    between atoms: O1_10  and  C9_11 
REMARK    3  A    between atoms: C9_11  and  C10_12 
REMARK    4  A    between atoms: C10_12  and  N2_13 
ROOT
HETATM    1  C1  UNL     1      22.801   5.512  47.174  1.00  0.00     0.047 C 
HETATM    2  C2  UNL     1      23.312   5.825  48.544  1.00  0.00    -0.041 C 
HETATM    3  C3  UNL     1      23.114   7.075  48.897  1.00  0.00     0.007 C 
HETATM    4  C4  UNL     1      23.515   7.642  50.177  1.00  0.00     0.017 C 
HETATM    5  C5  UNL     1      24.008   7.088  51.295  1.00  0.00     0.085 C 
HETATM    6  N1  UNL     1      24.250   5.705  51.443  1.00  0.00    -0.370 N 
HETATM    7  C6  UNL     1      23.531   4.617  50.727  1.00  0.00     0.143 C 
HETATM    8  C7  UNL     1      23.963   3.339  51.266  1.00  0.00     0.089 C 
HETATM    9  C8  UNL     1      24.157   2.104  51.650  1.00  0.00     0.124 C 
HETATM   10  C13 UNL     1      23.476   0.760  51.531  1.00  0.00     0.216 C 
HETATM   11  O2  UNL     1      23.193   0.356  52.874  1.00  0.00    -0.360 OA
HETATM   12  C14 UNL     1      21.889   0.495  53.306  1.00  0.00     0.136 C 
HETATM   13  C15 UNL     1      20.663   1.040  53.479  1.00  0.00     0.043 C 
HETATM   14  C16 UNL     1      20.381   2.330  52.874  1.00  0.00     0.120 C 
HETATM   15  N3  UNL     1      21.353   2.814  52.235  1.00  0.00    -0.254 NA
HETATM   16  C17 UNL     1      21.357   4.050  51.549  1.00  0.00     0.397 C 
HETATM   17  N4  UNL     1      22.094   4.874  50.919  1.00  0.00    -0.376 NA
HETATM   18  C18 UNL     1      23.946   4.721  49.282  1.00  0.00     0.166 C 
HETATM   19  C19 UNL     1      25.463   4.943  49.223  1.00  0.00     0.062 C 
HETATM   20  F1  UNL     1      23.670   3.496  48.705  1.00  0.00    -0.234 F 
HETATM   21  H7  UNL     1      25.014   5.533  52.140  1.00  0.00     0.161 HD
ENDROOT
BRANCH   9  22
HETATM   22  O1  UNL     1      25.309   1.974  52.377  1.00  0.00    -0.372 OA
BRANCH  22  23
HETATM   23  C9  UNL     1      26.572   1.592  51.951  1.00  0.00     0.199 C 
BRANCH  23  24
HETATM   24  C10 UNL     1      27.258   0.627  52.895  1.00  0.00     0.297 C 
BRANCH  24  25
HETATM   25  N2  UNL     1      27.916   1.240  54.001  1.00  0.00     0.082 N 
HETATM   26  C11 UNL     1      28.728   2.388  53.686  1.00  0.00     0.309 C 
HETATM   27  C12 UNL     1      28.763   0.229  54.611  1.00  0.00     0.309 C 
ENDBRANCH  24  25
ENDBRANCH  23  24
ENDBRANCH  22  23
ENDBRANCH   9  22
TORSDOF 4
ENDMDL
MODEL 3
REMARK VINA RESULT:      -6.8      2.940      6.197
REMARK  4 active torsions:
REMARK  status: ('A' for Active; 'I' for Inactive)
REMARK    1  A    between atoms: C8_9  and  O1_10 
REMARK    2  A    between atoms: O1_10  and  C9_11 
REMARK    3  A    between atoms: C9_11  and  C10_12 
REMARK    4  A    between atoms: C10_12  and  N2_13 
ROOT
HETATM    1  C1  UNL     1      22.324   5.602  51.261  1.00  0.00     0.047 C 
HETATM    2  C2  UNL     1      22.120   4.289  50.575  1.00  0.00    -0.041 C 
HETATM    3  C3  UNL     1      22.706   4.224  49.401  1.00  0.00     0.007 C 
HETATM    4  C4  UNL     1      22.664   3.061  48.524  1.00  0.00     0.017 C 
HETATM    5  C5  UNL     1      22.200   1.815  48.699  1.00  0.00     0.085 C 
HETATM    6  N1  UNL     1      21.606   1.361  49.898  1.00  0.00    -0.370 N 
HETATM    7  C6  UNL     1      21.885   1.892  51.259  1.00  0.00     0.143 C 
HETATM    8  C7  UNL     1      21.196   1.064  52.233  1.00  0.00     0.089 C 
HETATM    9  C8  UNL     1      20.722   0.415  53.266  1.00  0.00     0.124 C 
HETATM   10  C13 UNL     1      20.978   0.307  54.751  1.00  0.00     0.216 C 
HETATM   11  O2  UNL     1      21.325  -1.063  54.980  1.00  0.00    -0.360 OA
HETATM   12  C14 UNL     1      22.664  -1.344  55.166  1.00  0.00     0.136 C 
HETATM   13  C15 UNL     1      24.005  -1.296  54.992  1.00  0.00     0.043 C 
HETATM   14  C16 UNL     1      24.546  -0.413  53.975  1.00  0.00     0.120 C 
HETATM   15  N3  UNL     1      23.666   0.229  53.340  1.00  0.00    -0.254 NA
HETATM   16  C17 UNL     1      23.910   1.156  52.300  1.00  0.00     0.397 C 
HETATM   17  N4  UNL     1      23.349   1.880  51.416  1.00  0.00    -0.376 NA
HETATM   18  C18 UNL     1      21.315   3.287  51.290  1.00  0.00     0.166 C 
HETATM   19  C19 UNL     1      19.928   3.263  50.636  1.00  0.00     0.062 C 
HETATM   20  F1  UNL     1      21.155   3.616  52.623  1.00  0.00    -0.234 F 
HETATM   21  H7  UNL     1      20.932   0.582  49.707  1.00  0.00     0.161 HD
ENDROOT
BRANCH   9  22
HETATM   22  O1  UNL     1      19.695  -0.418  52.913  1.00  0.00    -0.372 OA
BRANCH  22  23
HETATM   23  C9  UNL     1      18.675  -0.207  51.998  1.00  0.00     0.199 C 
BRANCH  23  24
HETATM   24  C10 UNL     1      17.327  -0.701  52.476  1.00  0.00     0.297 C 
BRANCH  24  25
HETATM   25  N2  UNL     1      16.207  -0.074  51.856  1.00  0.00     0.082 N 
HETATM   26  C11 UNL     1      16.448   1.238  51.313  1.00  0.00     0.309 C 
HETATM   27  C12 UNL     1      15.159   0.026  52.859  1.00  0.00     0.309 C 
ENDBRANCH  24  25
ENDBRANCH  23  24
ENDBRANCH  22  23
ENDBRANCH   9  22
TORSDOF 4
ENDMDL
MODEL 4
REMARK VINA RESULT:      -6.7      3.454      6.909
REMARK  4 active torsions:
REMARK  status: ('A' for Active; 'I' for Inactive)
REMARK    1  A    between atoms: C8_9  and  O1_10 
REMARK    2  A    between atoms: O1_10  and  C9_11 
REMARK    3  A    between atoms: C9_11  and  C10_12 
REMARK    4  A    between atoms: C10_12  and  N2_13 
ROOT
HETATM    1  C1  UNL     1      23.067   0.493  52.931  1.00  0.00     0.047 C 
HETATM    2  C2  UNL     1      24.060   1.470  52.388  1.00  0.00    -0.041 C 
HETATM    3  C3  UNL     1      25.217   0.922  52.093  1.00  0.00     0.007 C 
HETATM    4  C4  UNL     1      26.357   1.648  51.550  1.00  0.00     0.017 C 
HETATM    5  C5  UNL     1      26.497   2.905  51.103  1.00  0.00     0.085 C 
HETATM    6  N1  UNL     1      25.446   3.849  51.077  1.00  0.00    -0.370 N 
HETATM    7  C6  UNL     1      23.997   3.532  50.966  1.00  0.00     0.143 C 
HETATM    8  C7  UNL     1      23.258   4.773  50.819  1.00  0.00     0.089 C 
HETATM    9  C8  UNL     1      22.418   5.753  50.607  1.00  0.00     0.124 C 
HETATM   10  C13 UNL     1      21.009   5.948  50.097  1.00  0.00     0.216 C 
HETATM   11  O2  UNL     1      21.134   6.786  48.943  1.00  0.00    -0.360 OA
HETATM   12  C14 UNL     1      21.033   6.170  47.711  1.00  0.00     0.136 C 
HETATM   13  C15 UNL     1      21.199   5.241  46.742  1.00  0.00     0.043 C 
HETATM   14  C16 UNL     1      21.966   4.046  47.045  1.00  0.00     0.120 C 
HETATM   15  N3  UNL     1      22.413   4.014  48.223  1.00  0.00    -0.254 NA
HETATM   16  C17 UNL     1      23.189   2.974  48.785  1.00  0.00     0.397 C 
HETATM   17  N4  UNL     1      23.859   2.630  49.810  1.00  0.00    -0.376 NA
HETATM   18  C18 UNL     1      23.613   2.867  52.263  1.00  0.00     0.166 C 
HETATM   19  C19 UNL     1      24.243   3.653  53.420  1.00  0.00     0.062 C 
HETATM   20  F1  UNL     1      22.240   2.976  52.368  1.00  0.00    -0.234 F 
HETATM   21  H7  UNL     1      25.822   4.825  51.143  1.00  0.00     0.161 HD
ENDROOT
BRANCH   9  22
HETATM   22  O1  UNL     1      22.961   6.966  50.937  1.00  0.00    -0.372 OA
BRANCH  22  23
HETATM   23  C9  UNL     1      24.293   7.345  50.971  1.00  0.00     0.199 C 
BRANCH  23  24
HETATM   24  C10 UNL     1      24.656   8.364  49.912  1.00  0.00     0.297 C 
BRANCH  24  25
HETATM   25  N2  UNL     1      25.361   7.835  48.791  1.00  0.00     0.082 N 
HETATM   26  C11 UNL     1      24.545   7.224  47.773  1.00  0.00     0.309 C 
HETATM   27  C12 UNL     1      26.290   6.838  49.299  1.00  0.00     0.309 C 
ENDBRANCH  24  25
ENDBRANCH  23  24
ENDBRANCH  22  23
ENDBRANCH   9  22
TORSDOF 4
ENDMDL
MODEL 5
REMARK VINA RESULT:      -6.7      2.217      5.291
REMARK  4 active torsions:
REMARK  status: ('A' for Active; 'I' for Inactive)
REMARK    1  A    between atoms: C8_9  and  O1_10 
REMARK    2  A    between atoms: O1_10  and  C9_11 
REMARK    3  A    between atoms: C9_11  and  C10_12 
REMARK    4  A    between atoms: C10_12  and  N2_13 
ROOT
HETATM    1  C1  UNL     1      23.792   6.481  51.732  1.00  0.00     0.047 C 
HETATM    2  C2  UNL     1      23.451   5.334  50.834  1.00  0.00    -0.041 C 
HETATM    3  C3  UNL     1      23.599   5.615  49.559  1.00  0.00     0.007 C 
HETATM    4  C4  UNL     1      23.334   4.679  48.475  1.00  0.00     0.017 C 
HETATM    5  C5  UNL     1      23.043   3.370  48.463  1.00  0.00     0.085 C 
HETATM    6  N1  UNL     1      22.931   2.581  49.630  1.00  0.00    -0.370 N 
HETATM    7  C6  UNL     1      23.627   2.837  50.920  1.00  0.00     0.143 C 
HETATM    8  C7  UNL     1      23.373   1.723  51.816  1.00  0.00     0.089 C 
HETATM    9  C8  UNL     1      23.330   0.801  52.743  1.00  0.00     0.124 C 
HETATM   10  C13 UNL     1      24.090   0.411  53.990  1.00  0.00     0.216 C 
HETATM   11  O2  UNL     1      24.585  -0.908  53.737  1.00  0.00    -0.360 OA
HETATM   12  C14 UNL     1      25.921  -1.020  53.408  1.00  0.00     0.136 C 
HETATM   13  C15 UNL     1      27.113  -0.736  52.835  1.00  0.00     0.043 C 
HETATM   14  C16 UNL     1      27.209   0.419  51.960  1.00  0.00     0.120 C 
HETATM   15  N3  UNL     1      26.124   1.045  51.826  1.00  0.00    -0.254 NA
HETATM   16  C17 UNL     1      25.931   2.202  51.036  1.00  0.00     0.397 C 
HETATM   17  N4  UNL     1      25.053   3.010  50.594  1.00  0.00    -0.376 NA
HETATM   18  C18 UNL     1      23.012   4.091  51.487  1.00  0.00     0.166 C 
HETATM   19  C19 UNL     1      21.489   4.004  51.325  1.00  0.00     0.062 C 
HETATM   20  F1  UNL     1      23.300   4.093  52.838  1.00  0.00    -0.234 F 
HETATM   21  H7  UNL     1      22.286   1.772  49.471  1.00  0.00     0.161 HD
ENDROOT
BRANCH   9  22
HETATM   22  O1  UNL     1      22.302  -0.078  52.536  1.00  0.00    -0.372 OA
BRANCH  22  23
HETATM   23  C9  UNL     1      20.955   0.185  52.342  1.00  0.00     0.199 C 
BRANCH  23  24
HETATM   24  C10 UNL     1      20.055  -0.531  53.328  1.00  0.00     0.297 C 
BRANCH  24  25
HETATM   25  N2  UNL     1      18.664  -0.461  53.026  1.00  0.00     0.082 N 
HETATM   26  C11 UNL     1      17.907  -1.657  53.294  1.00  0.00     0.309 C 
HETATM   27  C12 UNL     1      18.546  -0.147  51.611  1.00  0.00     0.309 C 
ENDBRANCH  24  25
ENDBRANCH  23  24
ENDBRANCH  22  23
ENDBRANCH   9  22
TORSDOF 4
ENDMDL
MODEL 6
REMARK VINA RESULT:      -6.5      4.348      8.100
REMARK  4 active torsions:
REMARK  status: ('A' for Active; 'I' for Inactive)
REMARK    1  A    between atoms: C8_9  and  O1_10 
REMARK    2  A    between atoms: O1_10  and  C9_11 
REMARK    3  A    between atoms: C9_11  and  C10_12 
REMARK    4  A    between atoms: C10_12  and  N2_13 
ROOT
HETATM    1  C1  UNL     1      22.320   1.772  48.342  1.00  0.00     0.047 C 
HETATM    2  C2  UNL     1      22.821   2.505  49.546  1.00  0.00    -0.041 C 
HETATM    3  C3  UNL     1      22.987   1.728  50.592  1.00  0.00     0.007 C 
HETATM    4  C4  UNL     1      23.463   2.187  51.890  1.00  0.00     0.017 C 
HETATM    5  C5  UNL     1      23.954   3.362  52.307  1.00  0.00     0.085 C 
HETATM    6  N1  UNL     1      24.115   4.487  51.468  1.00  0.00    -0.370 N 
HETATM    7  C6  UNL     1      24.336   4.447  49.997  1.00  0.00     0.143 C 
HETATM    8  C7  UNL     1      24.606   5.795  49.529  1.00  0.00     0.089 C 
HETATM    9  C8  UNL     1      24.935   6.904  48.916  1.00  0.00     0.124 C 
HETATM   10  C13 UNL     1      25.574   7.332  47.616  1.00  0.00     0.216 C 
HETATM   11  O2  UNL     1      26.750   8.057  47.990  1.00  0.00    -0.360 OA
HETATM   12  C14 UNL     1      27.956   7.395  47.865  1.00  0.00     0.136 C 
HETATM   13  C15 UNL     1      28.863   6.393  47.918  1.00  0.00     0.043 C 
HETATM   14  C16 UNL     1      28.439   5.094  48.411  1.00  0.00     0.120 C 
HETATM   15  N3  UNL     1      27.226   5.052  48.752  1.00  0.00    -0.254 NA
HETATM   16  C17 UNL     1      26.552   3.919  49.263  1.00  0.00     0.397 C 
HETATM   17  N4  UNL     1      25.457   3.518  49.773  1.00  0.00    -0.376 NA
HETATM   18  C18 UNL     1      23.048   3.951  49.393  1.00  0.00     0.166 C 
HETATM   19  C19 UNL     1      21.879   4.672  50.074  1.00  0.00     0.062 C 
HETATM   20  F1  UNL     1      23.068   4.327  48.063  1.00  0.00    -0.234 F 
HETATM   21  H7  UNL     1      24.063   5.375  52.022  1.00  0.00     0.161 HD
ENDROOT
BRANCH   9  22
HETATM   22  O1  UNL     1      24.616   8.007  49.660  1.00  0.00    -0.372 OA
BRANCH  22  23
HETATM   23  C9  UNL     1      23.367   8.470  50.045  1.00  0.00     0.199 C 
BRANCH  23  24
HETATM   24  C10 UNL     1      22.600   9.135  48.922  1.00  0.00     0.297 C 
BRANCH  24  25
HETATM   25  N2  UNL     1      21.294   8.611  48.698  1.00  0.00     0.082 N 
HETATM   26  C11 UNL     1      20.591   8.167  49.874  1.00  0.00     0.309 C 
HETATM   27  C12 UNL     1      21.432   7.484  47.790  1.00  0.00     0.309 C 
ENDBRANCH  24  25
ENDBRANCH  23  24
ENDBRANCH  22  23
ENDBRANCH   9  22
TORSDOF 4
ENDMDL
MODEL 7
REMARK VINA RESULT:      -6.2      2.907      5.640
REMARK  4 active torsions:
REMARK  status: ('A' for Active; 'I' for Inactive)
REMARK    1  A    between atoms: C8_9  and  O1_10 
REMARK    2  A    between atoms: O1_10  and  C9_11 
REMARK    3  A    between atoms: C9_11  and  C10_12 
REMARK    4  A    between atoms: C10_12  and  N2_13 
ROOT
HETATM    1  C1  UNL     1      25.091   8.798  50.089  1.00  0.00     0.047 C 
HETATM    2  C2  UNL     1      24.265   7.706  49.488  1.00  0.00    -0.041 C 
HETATM    3  C3  UNL     1      24.211   7.761  48.177  1.00  0.00     0.007 C 
HETATM    4  C4  UNL     1      23.475   6.820  47.343  1.00  0.00     0.017 C 
HETATM    5  C5  UNL     1      22.838   5.674  47.624  1.00  0.00     0.085 C 
HETATM    6  N1  UNL     1      22.761   5.115  48.919  1.00  0.00    -0.370 N 
HETATM    7  C6  UNL     1      23.756   5.309  50.007  1.00  0.00     0.143 C 
HETATM    8  C7  UNL     1      23.400   4.453  51.124  1.00  0.00     0.089 C 
HETATM    9  C8  UNL     1      23.299   3.716  52.201  1.00  0.00     0.124 C 
HETATM   10  C13 UNL     1      24.167   3.276  53.357  1.00  0.00     0.216 C 
HETATM   11  O2  UNL     1      24.213   1.848  53.277  1.00  0.00    -0.360 OA
HETATM   12  C14 UNL     1      25.365   1.288  52.761  1.00  0.00     0.136 C 
HETATM   13  C15 UNL     1      26.440   1.115  51.958  1.00  0.00     0.043 C 
HETATM   14  C16 UNL     1      26.664   2.062  50.879  1.00  0.00     0.120 C 
HETATM   15  N3  UNL     1      25.792   2.969  50.810  1.00  0.00    -0.254 NA
HETATM   16  C17 UNL     1      25.765   4.017  49.861  1.00  0.00     0.397 C 
HETATM   17  N4  UNL     1      25.071   4.991  49.426  1.00  0.00    -0.376 NA
HETATM   18  C18 UNL     1      23.647   6.754  50.424  1.00  0.00     0.166 C 
HETATM   19  C19 UNL     1      22.161   7.119  50.533  1.00  0.00     0.062 C 
HETATM   20  F1  UNL     1      24.203   6.842  51.685  1.00  0.00    -0.234 F 
HETATM   21  H7  UNL     1      21.898   4.530  49.021  1.00  0.00     0.161 HD
ENDROOT
BRANCH   9  22
HETATM   22  O1  UNL     1      22.048   3.177  52.332  1.00  0.00    -0.372 OA
BRANCH  22  23
HETATM   23  C9  UNL     1      20.834   3.670  51.879  1.00  0.00     0.199 C 
BRANCH  23  24
HETATM   24  C10 UNL     1      20.082   2.695  50.998  1.00  0.00     0.297 C 
BRANCH  24  25
HETATM   25  N2  UNL     1      20.623   1.377  50.967  1.00  0.00     0.082 N 
HETATM   26  C11 UNL     1      21.230   0.982  49.722  1.00  0.00     0.309 C 
HETATM   27  C12 UNL     1      19.536   0.458  51.264  1.00  0.00     0.309 C 
ENDBRANCH  24  25
ENDBRANCH  23  24
ENDBRANCH  22  23
ENDBRANCH   9  22
TORSDOF 4
ENDMDL
MODEL 8
REMARK VINA RESULT:      -6.2      3.489      4.831
REMARK  4 active torsions:
REMARK  status: ('A' for Active; 'I' for Inactive)
REMARK    1  A    between atoms: C8_9  and  O1_10 
REMARK    2  A    between atoms: O1_10  and  C9_11 
REMARK    3  A    between atoms: C9_11  and  C10_12 
REMARK    4  A    between atoms: C10_12  and  N2_13 
ROOT
HETATM    1  C1  UNL     1      25.045   8.361  46.329  1.00  0.00     0.047 C 
HETATM    2  C2  UNL     1      25.621   8.326  47.708  1.00  0.00    -0.041 C 
HETATM    3  C3  UNL     1      25.834   9.521  48.210  1.00  0.00     0.007 C 
HETATM    4  C4  UNL     1      26.388   9.771  49.534  1.00  0.00     0.017 C 
HETATM    5  C5  UNL     1      26.670   8.957  50.562  1.00  0.00     0.085 C 
HETATM    6  N1  UNL     1      26.454   7.561  50.540  1.00  0.00    -0.370 N 
HETATM    7  C6  UNL     1      25.428   6.856  49.727  1.00  0.00     0.143 C 
HETATM    8  C7  UNL     1      25.423   5.452  50.098  1.00  0.00     0.089 C 
HETATM    9  C8  UNL     1      25.207   4.182  50.329  1.00  0.00     0.124 C 
HETATM   10  C13 UNL     1      24.131   3.151  50.077  1.00  0.00     0.216 C 
HETATM   11  O2  UNL     1      23.725   2.700  51.373  1.00  0.00    -0.360 OA
HETATM   12  C14 UNL     1      22.532   3.195  51.861  1.00  0.00     0.136 C 
HETATM   13  C15 UNL     1      21.546   4.079  52.138  1.00  0.00     0.043 C 
HETATM   14  C16 UNL     1      21.697   5.454  51.697  1.00  0.00     0.120 C 
HETATM   15  N3  UNL     1      22.777   5.676  51.086  1.00  0.00    -0.254 NA
HETATM   16  C17 UNL     1      23.182   6.919  50.549  1.00  0.00     0.397 C 
HETATM   17  N4  UNL     1      24.149   7.534  49.995  1.00  0.00    -0.376 NA
HETATM   18  C18 UNL     1      25.862   6.996  48.290  1.00  0.00     0.166 C 
HETATM   19  C19 UNL     1      27.370   6.727  48.207  1.00  0.00     0.062 C 
HETATM   20  F1  UNL     1      25.210   6.003  47.584  1.00  0.00    -0.234 F 
HETATM   21  H7  UNL     1      27.118   7.072  51.186  1.00  0.00     0.161 HD
ENDROOT
BRANCH   9  22
HETATM   22  O1  UNL     1      26.252   3.604  50.997  1.00  0.00    -0.372 OA
BRANCH  22  23
HETATM   23  C9  UNL     1      26.553   2.260  51.151  1.00  0.00     0.199 C 
BRANCH  23  24
HETATM   24  C10 UNL     1      27.161   1.931  52.498  1.00  0.00     0.297 C 
BRANCH  24  25
HETATM   25  N2  UNL     1      27.543   0.567  52.664  1.00  0.00     0.082 N 
HETATM   26  C11 UNL     1      26.628  -0.406  52.125  1.00  0.00     0.309 C 
HETATM   27  C12 UNL     1      27.681   0.330  54.092  1.00  0.00     0.309 C 
ENDBRANCH  24  25
ENDBRANCH  23  24
ENDBRANCH  22  23
ENDBRANCH   9  22
TORSDOF 4
ENDMDL
MODEL 9
REMARK VINA RESULT:      -6.1      7.503      9.800
REMARK  4 active torsions:
REMARK  status: ('A' for Active; 'I' for Inactive)
REMARK    1  A    between atoms: C8_9  and  O1_10 
REMARK    2  A    between atoms: O1_10  and  C9_11 
REMARK    3  A    between atoms: C9_11  and  C10_12 
REMARK    4  A    between atoms: C10_12  and  N2_13 
ROOT
HETATM    1  C1  UNL     1      23.896   7.732  50.832  1.00  0.00     0.047 C 
HETATM    2  C2  UNL     1      24.393   7.826  49.425  1.00  0.00    -0.041 C 
HETATM    3  C3  UNL     1      23.440   8.072  48.556  1.00  0.00     0.007 C 
HETATM    4  C4  UNL     1      23.650   8.211  47.121  1.00  0.00     0.017 C 
HETATM    5  C5  UNL     1      24.762   8.271  46.374  1.00  0.00     0.085 C 
HETATM    6  N1  UNL     1      26.069   8.204  46.906  1.00  0.00    -0.370 N 
HETATM    7  C6  UNL     1      26.470   8.623  48.275  1.00  0.00     0.143 C 
HETATM    8  C7  UNL     1      27.916   8.542  48.384  1.00  0.00     0.089 C 
HETATM    9  C8  UNL     1      29.192   8.607  48.668  1.00  0.00     0.124 C 
HETATM   10  C13 UNL     1      30.092   9.261  49.692  1.00  0.00     0.216 C 
HETATM   11  O2  UNL     1      30.969  10.108  48.942  1.00  0.00    -0.360 OA
HETATM   12  C14 UNL     1      30.692  11.461  48.957  1.00  0.00     0.136 C 
HETATM   13  C15 UNL     1      29.975  12.608  48.934  1.00  0.00     0.043 C 
HETATM   14  C16 UNL     1      28.530  12.525  48.824  1.00  0.00     0.120 C 
HETATM   15  N3  UNL     1      28.093  11.345  48.752  1.00  0.00    -0.254 NA
HETATM   16  C17 UNL     1      26.733  10.973  48.640  1.00  0.00     0.397 C 
HETATM   17  N4  UNL     1      25.949   9.988  48.459  1.00  0.00    -0.376 NA
HETATM   18  C18 UNL     1      25.837   7.634  49.220  1.00  0.00     0.166 C 
HETATM   19  C19 UNL     1      26.034   6.222  48.653  1.00  0.00     0.062 C 
HETATM   20  F1  UNL     1      26.539   7.721  50.407  1.00  0.00    -0.234 F 
HETATM   21  H7  UNL     1      26.739   7.816  46.199  1.00  0.00     0.161 HD
ENDROOT
BRANCH   9  22
HETATM   22  O1  UNL     1      29.945   7.879  47.789  1.00  0.00    -0.372 OA
BRANCH  22  23
HETATM   23  C9  UNL     1      30.167   6.511  47.754  1.00  0.00     0.199 C 
BRANCH  23  24
HETATM   24  C10 UNL     1      31.624   6.143  47.565  1.00  0.00     0.297 C 
BRANCH  24  25
HETATM   25  N2  UNL     1      32.476   6.503  48.650  1.00  0.00     0.082 N 
HETATM   26  C11 UNL     1      33.861   6.134  48.504  1.00  0.00     0.309 C 
HETATM   27  C12 UNL     1      31.950   5.858  49.842  1.00  0.00     0.309 C 
ENDBRANCH  24  25
ENDBRANCH  23  24
ENDBRANCH  22  23
ENDBRANCH   9  22
TORSDOF 4
ENDMDL
