MODEL 1
REMARK VINA RESULT:      -7.9      0.000      0.000
REMARK  4 active torsions:
REMARK  status: ('A' for Active; 'I' for Inactive)
REMARK    1  A    between atoms: C1_2  and  C2_3 
REMARK       I    between atoms: C1_2  and  N2_11 
REMARK    2  A    between atoms: C2_3  and  C3_4 
REMARK    3  A    between atoms: C3_4  and  N1_5 
REMARK    4  A    between atoms: N2_11  and  C8_12 
ROOT
HETATM    1  C8  UNL     1      26.731   2.464  51.611  1.00  0.00     0.087 C 
HETATM    2  C9  UNL     1      27.245   1.520  52.291  1.00  0.00     0.016 C 
HETATM    3  C10 UNL     1      26.659   0.215  52.479  1.00  0.00     0.057 C 
HETATM    4  C11 UNL     1      26.501  -0.398  53.795  1.00  0.00    -0.023 C 
HETATM    5  C12 UNL     1      25.241  -0.610  54.128  1.00  0.00    -0.007 C 
HETATM    6  C13 UNL     1      23.785  -0.666  54.123  1.00  0.00    -0.021 C 
HETATM    7  C14 UNL     1      22.430  -0.829  54.339  1.00  0.00     0.054 C 
HETATM    8  C15 UNL     1      21.524  -0.326  53.262  1.00  0.00     0.018 C 
HETATM    9  C16 UNL     1      21.032   0.251  52.115  1.00  0.00    -0.005 C 
HETATM   10 BR1  UNL     1      19.286   0.471  51.392  1.00  0.00    -0.058 Br
HETATM   11  C17 UNL     1      22.268   0.885  51.666  1.00  0.00     0.357 C 
HETATM   12  N3  UNL     1      22.948   1.561  50.813  1.00  0.00    -0.362 NA
HETATM   13  C18 UNL     1      24.257   1.849  51.086  1.00  0.00     0.003 C 
HETATM   14  C19 UNL     1      25.363   2.112  51.318  1.00  0.00    -0.027 C 
ENDROOT
BRANCH   1  15
HETATM   15  N2  UNL     1      26.259   3.597  50.877  1.00  0.00    -0.320 N 
HETATM   16  C1  UNL     1      26.114   4.545  49.863  1.00  0.00     0.224 C 
HETATM   17  O1  UNL     1      26.940   4.215  48.989  1.00  0.00    -0.273 OA
HETATM   18  H13 UNL     1      25.607   3.678  51.743  1.00  0.00     0.169 HD
BRANCH  16  19
HETATM   19  C2  UNL     1      25.080   5.634  50.115  1.00  0.00     0.133 C 
BRANCH  19  20
HETATM   20  C3  UNL     1      23.785   5.115  49.594  1.00  0.00     0.282 C 
BRANCH  20  21
HETATM   21  N1  UNL     1      22.630   5.897  49.786  1.00  0.00     0.093 N 
HETATM   22  C4  UNL     1      21.415   5.498  49.171  1.00  0.00     0.298 C 
HETATM   23  C5  UNL     1      20.856   4.276  49.846  1.00  0.00     0.198 C 
HETATM   24  O2  UNL     1      20.682   4.544  51.188  1.00  0.00    -0.388 OA
HETATM   25  C6  UNL     1      21.858   4.832  51.830  1.00  0.00     0.198 C 
HETATM   26  C7  UNL     1      22.378   6.129  51.199  1.00  0.00     0.298 C 
ENDBRANCH  20  21
ENDBRANCH  19  20
ENDBRANCH  16  19
ENDBRANCH   1  15
TORSDOF 4
ENDMDL
MODEL 2
REMARK VINA RESULT:      -7.8      3.853      8.174
REMARK  4 active torsions:
REMARK  status: ('A' for Active; 'I' for Inactive)
REMARK    1  A    between atoms: C1_2  and  C2_3 
REMARK       I    between atoms: C1_2  and  N2_11 
REMARK    2  A    between atoms: C2_3  and  C3_4 
REMARK    3  A    between atoms: C3_4  and  N1_5 
REMARK    4  A    between atoms: N2_11  and  C8_12 
ROOT
HETATM    1  C8  UNL     1      23.397   3.840  50.240  1.00  0.00     0.087 C 
HETATM    2  C9  UNL     1      22.687   4.532  49.444  1.00  0.00     0.016 C 
HETATM    3  C10 UNL     1      23.136   5.070  48.182  1.00  0.00     0.057 C 
HETATM    4  C11 UNL     1      22.956   6.471  47.812  1.00  0.00    -0.023 C 
HETATM    5  C12 UNL     1      24.094   7.118  47.638  1.00  0.00    -0.007 C 
HETATM    6  C13 UNL     1      25.507   7.462  47.553  1.00  0.00    -0.021 C 
HETATM    7  C14 UNL     1      26.767   8.011  47.405  1.00  0.00     0.054 C 
HETATM    8  C15 UNL     1      27.920   7.105  47.689  1.00  0.00     0.018 C 
HETATM    9  C16 UNL     1      28.692   6.023  48.042  1.00  0.00    -0.005 C 
HETATM   10 BR1  UNL     1      30.566   5.699  48.094  1.00  0.00    -0.058 Br
HETATM   11  C17 UNL     1      27.629   5.198  48.610  1.00  0.00     0.357 C 
HETATM   12  N3  UNL     1      27.202   4.109  49.135  1.00  0.00    -0.362 NA
HETATM   13  C18 UNL     1      25.884   4.017  49.493  1.00  0.00     0.003 C 
HETATM   14  C19 UNL     1      24.772   3.937  49.815  1.00  0.00    -0.027 C 
ENDROOT
BRANCH   1  15
HETATM   15  N2  UNL     1      24.090   3.055  51.214  1.00  0.00    -0.320 N 
HETATM   16  C1  UNL     1      24.440   1.987  52.041  1.00  0.00     0.224 C 
HETATM   17  O1  UNL     1      23.604   1.095  51.791  1.00  0.00    -0.273 OA
HETATM   18  H13 UNL     1      24.711   3.946  51.249  1.00  0.00     0.169 HD
BRANCH  16  19
HETATM   19  C2  UNL     1      25.639   2.216  52.952  1.00  0.00     0.133 C 
BRANCH  19  20
HETATM   20  C3  UNL     1      26.602   1.117  52.668  1.00  0.00     0.282 C 
BRANCH  20  21
HETATM   21  N1  UNL     1      26.475  -0.082  53.394  1.00  0.00     0.093 N 
HETATM   22  C4  UNL     1      27.154  -1.242  52.938  1.00  0.00     0.298 C 
HETATM   23  C5  UNL     1      28.635  -1.111  53.164  1.00  0.00     0.198 C 
HETATM   24  O2  UNL     1      28.867  -0.881  54.504  1.00  0.00    -0.388 OA
HETATM   25  C6  UNL     1      28.307   0.289  54.948  1.00  0.00     0.198 C 
HETATM   26  C7  UNL     1      26.791   0.116  54.800  1.00  0.00     0.298 C 
ENDBRANCH  20  21
ENDBRANCH  19  20
ENDBRANCH  16  19
ENDBRANCH   1  15
TORSDOF 4
ENDMDL
MODEL 3
REMARK VINA RESULT:      -7.7      2.137      3.387
REMARK  4 active torsions:
REMARK  status: ('A' for Active; 'I' for Inactive)
REMARK    1  A    between atoms: C1_2  and  C2_3 
REMARK       I    between atoms: C1_2  and  N2_11 
REMARK    2  A    between atoms: C2_3  and  C3_4 
REMARK    3  A    between atoms: C3_4  and  N1_5 
REMARK    4  A    between atoms: N2_11  and  C8_12 
ROOT
HETATM    1  C8  UNL     1      26.643   2.460  51.507  1.00  0.00     0.087 C 
HETATM    2  C9  UNL     1      27.127   1.525  52.222  1.00  0.00     0.016 C 
HETATM    3  C10 UNL     1      26.516   0.234  52.429  1.00  0.00     0.057 C 
HETATM    4  C11 UNL     1      26.320  -0.343  53.756  1.00  0.00    -0.023 C 
HETATM    5  C12 UNL     1      25.050  -0.528  54.065  1.00  0.00    -0.007 C 
HETATM    6  C13 UNL     1      23.593  -0.562  54.030  1.00  0.00    -0.021 C 
HETATM    7  C14 UNL     1      22.232  -0.699  54.219  1.00  0.00     0.054 C 
HETATM    8  C15 UNL     1      21.358  -0.209  53.111  1.00  0.00     0.018 C 
HETATM    9  C16 UNL     1      20.899   0.347  51.940  1.00  0.00    -0.005 C 
HETATM   10 BR1  UNL     1      19.173   0.576  51.174  1.00  0.00    -0.058 Br
HETATM   11  C17 UNL     1      22.155   0.952  51.503  1.00  0.00     0.357 C 
HETATM   12  N3  UNL     1      22.863   1.596  50.649  1.00  0.00    -0.362 NA
HETATM   13  C18 UNL     1      24.171   1.870  50.943  1.00  0.00     0.003 C 
HETATM   14  C19 UNL     1      25.276   2.122  51.193  1.00  0.00    -0.027 C 
ENDROOT
BRANCH   1  15
HETATM   15  N2  UNL     1      26.204   3.581  50.736  1.00  0.00    -0.320 N 
HETATM   16  C1  UNL     1      26.140   4.547  49.731  1.00  0.00     0.224 C 
HETATM   17  O1  UNL     1      27.100   4.292  48.975  1.00  0.00    -0.273 OA
HETATM   18  H13 UNL     1      25.435   3.598  51.503  1.00  0.00     0.169 HD
BRANCH  16  19
HETATM   19  C2  UNL     1      25.013   5.562  49.855  1.00  0.00     0.133 C 
BRANCH  19  20
HETATM   20  C3  UNL     1      25.641   6.839  50.293  1.00  0.00     0.282 C 
BRANCH  20  21
HETATM   21  N1  UNL     1      25.599   7.937  49.412  1.00  0.00     0.093 N 
HETATM   22  C4  UNL     1      25.934   9.227  49.899  1.00  0.00     0.298 C 
HETATM   23  C5  UNL     1      27.412   9.327  50.159  1.00  0.00     0.198 C 
HETATM   24  O2  UNL     1      28.094   9.030  48.997  1.00  0.00    -0.388 OA
HETATM   25  C6  UNL     1      27.868   7.751  48.560  1.00  0.00     0.198 C 
HETATM   26  C7  UNL     1      26.377   7.680  48.211  1.00  0.00     0.298 C 
ENDBRANCH  20  21
ENDBRANCH  19  20
ENDBRANCH  16  19
ENDBRANCH   1  15
TORSDOF 4
ENDMDL
MODEL 4
REMARK VINA RESULT:      -7.6      2.746      5.417
REMARK  4 active torsions:
REMARK  status: ('A' for Active; 'I' for Inactive)
REMARK    1  A    between atoms: C1_2  and  C2_3 
REMARK       I    between atoms: C1_2  and  N2_11 
REMARK    2  A    between atoms: C2_3  and  C3_4 
REMARK    3  A    between atoms: C3_4  and  N1_5 
REMARK    4  A    between atoms: N2_11  and  C8_12 
ROOT
HETATM    1  C8  UNL     1      23.725  -0.510  53.470  1.00  0.00     0.087 C 
HETATM    2  C9  UNL     1      24.981  -0.691  53.377  1.00  0.00     0.016 C 
HETATM    3  C10 UNL     1      25.967   0.356  53.270  1.00  0.00     0.057 C 
HETATM    4  C11 UNL     1      27.002   0.365  52.239  1.00  0.00    -0.023 C 
HETATM    5  C12 UNL     1      26.913   1.394  51.416  1.00  0.00    -0.007 C 
HETATM    6  C13 UNL     1      26.484   2.615  50.746  1.00  0.00    -0.021 C 
HETATM    7  C14 UNL     1      26.273   3.735  49.965  1.00  0.00     0.054 C 
HETATM    8  C15 UNL     1      25.088   4.574  50.319  1.00  0.00     0.018 C 
HETATM    9  C16 UNL     1      23.946   5.060  50.909  1.00  0.00    -0.005 C 
HETATM   10 BR1  UNL     1      22.878   6.612  50.639  1.00  0.00    -0.058 Br
HETATM   11  C17 UNL     1      23.621   3.885  51.712  1.00  0.00     0.357 C 
HETATM   12  N3  UNL     1      22.905   3.273  52.583  1.00  0.00    -0.362 NA
HETATM   13  C18 UNL     1      23.208   1.977  52.899  1.00  0.00     0.003 C 
HETATM   14  C19 UNL     1      23.448   0.871  53.159  1.00  0.00    -0.027 C 
ENDROOT
BRANCH   1  15
HETATM   15  N2  UNL     1      22.302  -0.436  53.580  1.00  0.00    -0.320 N 
HETATM   16  C1  UNL     1      20.991  -0.727  53.961  1.00  0.00     0.224 C 
HETATM   17  O1  UNL     1      21.085  -1.716  54.716  1.00  0.00    -0.273 OA
HETATM   18  H13 UNL     1      22.461   0.421  52.931  1.00  0.00     0.169 HD
BRANCH  16  19
HETATM   19  C2  UNL     1      19.912   0.171  53.371  1.00  0.00     0.133 C 
BRANCH  19  20
HETATM   20  C3  UNL     1      20.179   0.245  51.908  1.00  0.00     0.282 C 
BRANCH  20  21
HETATM   21  N1  UNL     1      19.227   0.882  51.090  1.00  0.00     0.093 N 
HETATM   22  C4  UNL     1      18.573   2.047  51.569  1.00  0.00     0.298 C 
HETATM   23  C5  UNL     1      19.521   3.214  51.595  1.00  0.00     0.198 C 
HETATM   24  O2  UNL     1      20.035   3.403  50.328  1.00  0.00    -0.388 OA
HETATM   25  C6  UNL     1      20.760   2.331  49.881  1.00  0.00     0.198 C 
HETATM   26  C7  UNL     1      19.770   1.166  49.771  1.00  0.00     0.298 C 
ENDBRANCH  20  21
ENDBRANCH  19  20
ENDBRANCH  16  19
ENDBRANCH   1  15
TORSDOF 4
ENDMDL
MODEL 5
REMARK VINA RESULT:      -7.5      1.508      1.877
REMARK  4 active torsions:
REMARK  status: ('A' for Active; 'I' for Inactive)
REMARK    1  A    between atoms: C1_2  and  C2_3 
REMARK       I    between atoms: C1_2  and  N2_11 
REMARK    2  A    between atoms: C2_3  and  C3_4 
REMARK    3  A    between atoms: C3_4  and  N1_5 
REMARK    4  A    between atoms: N2_11  and  C8_12 
ROOT
HETATM    1  C8  UNL     1      26.189   2.456  51.559  1.00  0.00     0.087 C 
HETATM    2  C9  UNL     1      26.891   1.575  52.149  1.00  0.00     0.016 C 
HETATM    3  C10 UNL     1      26.466   0.226  52.434  1.00  0.00     0.057 C 
HETATM    4  C11 UNL     1      26.581  -0.375  53.761  1.00  0.00    -0.023 C 
HETATM    5  C12 UNL     1      25.416  -0.694  54.295  1.00  0.00    -0.007 C 
HETATM    6  C13 UNL     1      23.990  -0.881  54.529  1.00  0.00    -0.021 C 
HETATM    7  C14 UNL     1      22.709  -1.162  54.963  1.00  0.00     0.054 C 
HETATM    8  C15 UNL     1      21.598  -0.762  54.046  1.00  0.00     0.018 C 
HETATM    9  C16 UNL     1      20.875  -0.253  52.994  1.00  0.00    -0.005 C 
HETATM   10 BR1  UNL     1      19.023  -0.205  52.565  1.00  0.00    -0.058 Br
HETATM   11  C17 UNL     1      21.959   0.482  52.347  1.00  0.00     0.357 C 
HETATM   12  N3  UNL     1      22.426   1.201  51.392  1.00  0.00    -0.362 NA
HETATM   13  C18 UNL     1      23.730   1.610  51.447  1.00  0.00     0.003 C 
HETATM   14  C19 UNL     1      24.830   1.976  51.494  1.00  0.00    -0.027 C 
ENDROOT
BRANCH   1  15
HETATM   15  N2  UNL     1      25.502   3.528  50.908  1.00  0.00    -0.320 N 
HETATM   16  C1  UNL     1      25.189   4.527  49.986  1.00  0.00     0.224 C 
HETATM   17  O1  UNL     1      26.111   4.494  49.146  1.00  0.00    -0.273 OA
HETATM   18  H13 UNL     1      24.808   3.361  51.728  1.00  0.00     0.169 HD
BRANCH  16  19
HETATM   19  C2  UNL     1      23.918   5.318  50.268  1.00  0.00     0.133 C 
BRANCH  19  20
HETATM   20  C3  UNL     1      22.798   4.544  49.665  1.00  0.00     0.282 C 
BRANCH  20  21
HETATM   21  N1  UNL     1      22.962   4.043  48.361  1.00  0.00     0.093 N 
HETATM   22  C4  UNL     1      22.605   2.696  48.088  1.00  0.00     0.298 C 
HETATM   23  C5  UNL     1      21.110   2.532  48.101  1.00  0.00     0.198 C 
HETATM   24  O2  UNL     1      20.554   3.401  47.185  1.00  0.00    -0.388 OA
HETATM   25  C6  UNL     1      20.798   4.716  47.483  1.00  0.00     0.198 C 
HETATM   26  C7  UNL     1      22.316   4.900  47.380  1.00  0.00     0.298 C 
ENDBRANCH  20  21
ENDBRANCH  19  20
ENDBRANCH  16  19
ENDBRANCH   1  15
TORSDOF 4
ENDMDL
MODEL 6
REMARK VINA RESULT:      -7.3      5.683      9.207
REMARK  4 active torsions:
REMARK  status: ('A' for Active; 'I' for Inactive)
REMARK    1  A    between atoms: C1_2  and  C2_3 
REMARK       I    between atoms: C1_2  and  N2_11 
REMARK    2  A    between atoms: C2_3  and  C3_4 
REMARK    3  A    between atoms: C3_4  and  N1_5 
REMARK    4  A    between atoms: N2_11  and  C8_12 
ROOT
HETATM    1  C8  UNL     1      27.726   7.322  48.677  1.00  0.00     0.087 C 
HETATM    2  C9  UNL     1      28.135   8.507  48.459  1.00  0.00     0.016 C 
HETATM    3  C10 UNL     1      29.324   8.855  47.720  1.00  0.00     0.057 C 
HETATM    4  C11 UNL     1      30.332   9.778  48.234  1.00  0.00    -0.023 C 
HETATM    5  C12 UNL     1      31.514   9.216  48.413  1.00  0.00    -0.007 C 
HETATM    6  C13 UNL     1      32.612   8.261  48.477  1.00  0.00    -0.021 C 
HETATM    7  C14 UNL     1      33.787   7.547  48.615  1.00  0.00     0.054 C 
HETATM    8  C15 UNL     1      33.722   6.094  48.271  1.00  0.00     0.018 C 
HETATM    9  C16 UNL     1      33.285   4.845  47.900  1.00  0.00    -0.005 C 
HETATM   10 BR1  UNL     1      34.139   3.161  47.670  1.00  0.00    -0.058 Br
HETATM   11  C17 UNL     1      31.851   5.119  47.937  1.00  0.00     0.357 C 
HETATM   12  N3  UNL     1      30.628   4.773  47.756  1.00  0.00    -0.362 NA
HETATM   13  C18 UNL     1      29.635   5.666  48.055  1.00  0.00     0.003 C 
HETATM   14  C19 UNL     1      28.787   6.411  48.323  1.00  0.00    -0.027 C 
ENDROOT
BRANCH   1  15
HETATM   15  N2  UNL     1      27.166   6.044  48.987  1.00  0.00    -0.320 N 
HETATM   16  C1  UNL     1      26.236   5.051  49.296  1.00  0.00     0.224 C 
HETATM   17  O1  UNL     1      25.137   5.640  49.344  1.00  0.00    -0.273 OA
HETATM   18  H13 UNL     1      28.205   5.744  48.869  1.00  0.00     0.169 HD
BRANCH  16  19
HETATM   19  C2  UNL     1      26.798   3.649  49.488  1.00  0.00     0.133 C 
BRANCH  19  20
HETATM   20  C3  UNL     1      25.782   2.889  50.267  1.00  0.00     0.282 C 
BRANCH  20  21
HETATM   21  N1  UNL     1      25.910   2.852  51.668  1.00  0.00     0.093 N 
HETATM   22  C4  UNL     1      24.766   2.569  52.459  1.00  0.00     0.298 C 
HETATM   23  C5  UNL     1      24.376   1.122  52.327  1.00  0.00     0.198 C 
HETATM   24  O2  UNL     1      25.449   0.333  52.685  1.00  0.00    -0.388 OA
HETATM   25  C6  UNL     1      26.536   0.512  51.870  1.00  0.00     0.198 C 
HETATM   26  C7  UNL     1      26.985   1.963  52.077  1.00  0.00     0.298 C 
ENDBRANCH  20  21
ENDBRANCH  19  20
ENDBRANCH  16  19
ENDBRANCH   1  15
TORSDOF 4
ENDMDL
MODEL 7
REMARK VINA RESULT:      -7.3      2.581      4.644
REMARK  4 active torsions:
REMARK  status: ('A' for Active; 'I' for Inactive)
REMARK    1  A    between atoms: C1_2  and  C2_3 
REMARK       I    between atoms: C1_2  and  N2_11 
REMARK    2  A    between atoms: C2_3  and  C3_4 
REMARK    3  A    between atoms: C3_4  and  N1_5 
REMARK    4  A    between atoms: N2_11  and  C8_12 
ROOT
HETATM    1  C8  UNL     1      20.854   0.649  51.242  1.00  0.00     0.087 C 
HETATM    2  C9  UNL     1      20.385   0.070  52.273  1.00  0.00     0.016 C 
HETATM    3  C10 UNL     1      20.923   0.178  53.607  1.00  0.00     0.057 C 
HETATM    4  C11 UNL     1      21.217  -0.987  54.438  1.00  0.00    -0.023 C 
HETATM    5  C12 UNL     1      22.497  -1.107  54.738  1.00  0.00    -0.007 C 
HETATM    6  C13 UNL     1      23.936  -0.899  54.834  1.00  0.00    -0.021 C 
HETATM    7  C14 UNL     1      25.298  -0.900  55.070  1.00  0.00     0.054 C 
HETATM    8  C15 UNL     1      26.082   0.191  54.417  1.00  0.00     0.018 C 
HETATM    9  C16 UNL     1      26.453   1.283  53.669  1.00  0.00    -0.005 C 
HETATM   10 BR1  UNL     1      28.101   2.188  53.379  1.00  0.00    -0.058 Br
HETATM   11  C17 UNL     1      25.203   1.452  52.933  1.00  0.00     0.357 C 
HETATM   12  N3  UNL     1      24.455   2.084  52.104  1.00  0.00    -0.362 NA
HETATM   13  C18 UNL     1      23.207   1.595  51.830  1.00  0.00     0.003 C 
HETATM   14  C19 UNL     1      22.154   1.176  51.579  1.00  0.00    -0.027 C 
ENDROOT
BRANCH   1  15
HETATM   15  N2  UNL     1      21.285   1.243  50.016  1.00  0.00    -0.320 N 
HETATM   16  C1  UNL     1      21.252   1.895  48.782  1.00  0.00     0.224 C 
HETATM   17  O1  UNL     1      20.045   2.135  48.575  1.00  0.00    -0.273 OA
HETATM   18  H13 UNL     1      22.257   0.959  50.411  1.00  0.00     0.169 HD
BRANCH  16  19
HETATM   19  C2  UNL     1      22.597   2.087  48.095  1.00  0.00     0.133 C 
BRANCH  19  20
HETATM   20  C3  UNL     1      23.269   3.218  48.792  1.00  0.00     0.282 C 
BRANCH  20  21
HETATM   21  N1  UNL     1      22.549   4.415  48.965  1.00  0.00     0.093 N 
HETATM   22  C4  UNL     1      22.401   4.950  50.271  1.00  0.00     0.298 C 
HETATM   23  C5  UNL     1      23.706   5.513  50.763  1.00  0.00     0.198 C 
HETATM   24  O2  UNL     1      24.148   6.467  49.870  1.00  0.00    -0.388 OA
HETATM   25  C6  UNL     1      24.398   5.955  48.624  1.00  0.00     0.198 C 
HETATM   26  C7  UNL     1      23.048   5.463  48.090  1.00  0.00     0.298 C 
ENDBRANCH  20  21
ENDBRANCH  19  20
ENDBRANCH  16  19
ENDBRANCH   1  15
TORSDOF 4
ENDMDL
MODEL 8
REMARK VINA RESULT:      -7.1      3.159      7.315
REMARK  4 active torsions:
REMARK  status: ('A' for Active; 'I' for Inactive)
REMARK    1  A    between atoms: C1_2  and  C2_3 
REMARK       I    between atoms: C1_2  and  N2_11 
REMARK    2  A    between atoms: C2_3  and  C3_4 
REMARK    3  A    between atoms: C3_4  and  N1_5 
REMARK    4  A    between atoms: N2_11  and  C8_12 
ROOT
HETATM    1  C8  UNL     1      20.685  -0.084  52.772  1.00  0.00     0.087 C 
HETATM    2  C9  UNL     1      19.633   0.160  52.100  1.00  0.00     0.016 C 
HETATM    3  C10 UNL     1      19.605   0.739  50.779  1.00  0.00     0.057 C 
HETATM    4  C11 UNL     1      18.764   1.883  50.436  1.00  0.00    -0.023 C 
HETATM    5  C12 UNL     1      19.453   2.950  50.073  1.00  0.00    -0.007 C 
HETATM    6  C13 UNL     1      20.533   3.874  49.754  1.00  0.00    -0.021 C 
HETATM    7  C14 UNL     1      21.377   4.908  49.396  1.00  0.00     0.054 C 
HETATM    8  C15 UNL     1      22.842   4.629  49.491  1.00  0.00     0.018 C 
HETATM    9  C16 UNL     1      24.058   4.031  49.717  1.00  0.00    -0.005 C 
HETATM   10 BR1  UNL     1      25.864   4.571  49.461  1.00  0.00    -0.058 Br
HETATM   11  C17 UNL     1      23.573   2.869  50.457  1.00  0.00     0.357 C 
HETATM   12  N3  UNL     1      23.760   1.748  51.052  1.00  0.00    -0.362 NA
HETATM   13  C18 UNL     1      22.691   1.113  51.623  1.00  0.00     0.003 C 
HETATM   14  C19 UNL     1      21.792   0.576  52.124  1.00  0.00    -0.027 C 
ENDROOT
BRANCH   1  15
HETATM   15  N2  UNL     1      21.790  -0.403  53.622  1.00  0.00    -0.320 N 
HETATM   16  C1  UNL     1      22.582  -1.058  54.566  1.00  0.00     0.224 C 
HETATM   17  O1  UNL     1      21.892  -2.021  54.955  1.00  0.00    -0.273 OA
HETATM   18  H13 UNL     1      22.211   0.468  53.125  1.00  0.00     0.169 HD
BRANCH  16  19
HETATM   19  C2  UNL     1      23.945  -0.437  54.836  1.00  0.00     0.133 C 
BRANCH  19  20
HETATM   20  C3  UNL     1      24.831  -0.861  53.717  1.00  0.00     0.282 C 
BRANCH  20  21
HETATM   21  N1  UNL     1      25.771   0.065  53.226  1.00  0.00     0.093 N 
HETATM   22  C4  UNL     1      26.529   0.835  54.146  1.00  0.00     0.298 C 
HETATM   23  C5  UNL     1      27.547  -0.024  54.843  1.00  0.00     0.198 C 
HETATM   24  O2  UNL     1      28.353  -0.623  53.897  1.00  0.00    -0.388 OA
HETATM   25  C6  UNL     1      27.661  -1.456  53.057  1.00  0.00     0.198 C 
HETATM   26  C7  UNL     1      26.686  -0.560  52.284  1.00  0.00     0.298 C 
ENDBRANCH  20  21
ENDBRANCH  19  20
ENDBRANCH  16  19
ENDBRANCH   1  15
TORSDOF 4
ENDMDL
MODEL 9
REMARK VINA RESULT:      -7.0      2.893      5.316
REMARK  4 active torsions:
REMARK  status: ('A' for Active; 'I' for Inactive)
REMARK    1  A    between atoms: C1_2  and  C2_3 
REMARK       I    between atoms: C1_2  and  N2_11 
REMARK    2  A    between atoms: C2_3  and  C3_4 
REMARK    3  A    between atoms: C3_4  and  N1_5 
REMARK    4  A    between atoms: N2_11  and  C8_12 
ROOT
HETATM    1  C8  UNL     1      20.578  -0.486  53.417  1.00  0.00     0.087 C 
HETATM    2  C9  UNL     1      21.142  -0.974  54.447  1.00  0.00     0.016 C 
HETATM    3  C10 UNL     1      22.368  -0.489  55.034  1.00  0.00     0.057 C 
HETATM    4  C11 UNL     1      23.490  -1.366  55.357  1.00  0.00    -0.023 C 
HETATM    5  C12 UNL     1      24.586  -1.088  54.674  1.00  0.00    -0.007 C 
HETATM    6  C13 UNL     1      25.546  -0.492  53.754  1.00  0.00    -0.021 C 
HETATM    7  C14 UNL     1      26.615  -0.091  52.975  1.00  0.00     0.054 C 
HETATM    8  C15 UNL     1      26.356   1.034  52.026  1.00  0.00     0.018 C 
HETATM    9  C16 UNL     1      25.755   2.032  51.297  1.00  0.00    -0.005 C 
HETATM   10 BR1  UNL     1      26.376   3.273  49.996  1.00  0.00    -0.058 Br
HETATM   11  C17 UNL     1      24.371   1.729  51.649  1.00  0.00     0.357 C 
HETATM   12  N3  UNL     1      23.113   1.981  51.613  1.00  0.00    -0.362 NA
HETATM   13  C18 UNL     1      22.249   1.138  52.256  1.00  0.00     0.003 C 
HETATM   14  C19 UNL     1      21.507   0.418  52.784  1.00  0.00    -0.027 C 
ENDROOT
BRANCH   1  15
HETATM   15  N2  UNL     1      19.852  -0.029  52.274  1.00  0.00    -0.320 N 
HETATM   16  C1  UNL     1      18.798   0.398  51.464  1.00  0.00     0.224 C 
HETATM   17  O1  UNL     1      17.793   0.379  52.203  1.00  0.00    -0.273 OA
HETATM   18  H13 UNL     1      20.845  -0.065  51.833  1.00  0.00     0.169 HD
BRANCH  16  19
HETATM   19  C2  UNL     1      19.157   0.717  50.019  1.00  0.00     0.133 C 
BRANCH  19  20
HETATM   20  C3  UNL     1      19.703   2.103  50.016  1.00  0.00     0.282 C 
BRANCH  20  21
HETATM   21  N1  UNL     1      19.068   3.069  50.820  1.00  0.00     0.093 N 
HETATM   22  C4  UNL     1      19.863   3.959  51.588  1.00  0.00     0.298 C 
HETATM   23  C5  UNL     1      20.545   4.961  50.698  1.00  0.00     0.198 C 
HETATM   24  O2  UNL     1      19.590   5.635  49.965  1.00  0.00    -0.388 OA
HETATM   25  C6  UNL     1      18.876   4.811  49.136  1.00  0.00     0.198 C 
HETATM   26  C7  UNL     1      18.111   3.849  50.052  1.00  0.00     0.298 C 
ENDBRANCH  20  21
ENDBRANCH  19  20
ENDBRANCH  16  19
ENDBRANCH   1  15
TORSDOF 4
ENDMDL
