MODEL 1
REMARK VINA RESULT:      -9.3      0.000      0.000
REMARK  4 active torsions:
REMARK  status: ('A' for Active; 'I' for Inactive)
REMARK    1  A    between atoms: N1_2  and  C2_3 
REMARK    2  A    between atoms: C2_3  and  N2_4 
REMARK    3  A    between atoms: C2_3  and  C9_13 
REMARK    4  A    between atoms: N2_4  and  C3_5 
ROOT
HETATM    1  C9  UNL     1      23.964   2.268  51.637  1.00  0.00     0.045 C 
HETATM    2  C10 UNL     1      22.929   1.568  51.774  1.00  0.00     0.116 C 
HETATM    3  O1  UNL     1      23.723   0.556  52.350  1.00  0.00    -0.345 OA
HETATM    4  C11 UNL     1      23.598  -0.145  53.562  1.00  0.00     0.202 C 
HETATM    5  C12 UNL     1      22.569  -1.242  53.269  1.00  0.00     0.202 C 
HETATM    6  O2  UNL     1      21.615  -0.554  52.499  1.00  0.00    -0.346 OA
HETATM    7  C13 UNL     1      21.825   0.737  51.957  1.00  0.00     0.110 C 
HETATM    8  C14 UNL     1      20.612   1.176  51.507  1.00  0.00    -0.013 C 
HETATM    9  C15 UNL     1      19.367   0.351  51.687  1.00  0.00     0.027 C 
HETATM   10  C16 UNL     1      18.366   0.386  50.779  1.00  0.00     0.083 C 
HETATM   11  N3  UNL     1      18.383   1.170  49.609  1.00  0.00    -0.398 N 
HETATM   12  C17 UNL     1      19.581   1.902  49.430  1.00  0.00     0.130 C 
HETATM   13  C18 UNL     1      20.218   2.303  50.755  1.00  0.00     0.063 C 
HETATM   14  C19 UNL     1      19.450   3.490  51.175  1.00  0.00     0.179 C 
HETATM   15  O3  UNL     1      20.224   4.663  50.778  1.00  0.00    -0.387 OA
HETATM   16  C20 UNL     1      21.256   4.475  51.567  1.00  0.00     0.195 C 
HETATM   17  C21 UNL     1      22.639   4.833  51.472  1.00  0.00     0.000 C 
HETATM   18  C22 UNL     1      23.476   3.734  51.530  1.00  0.00     0.016 C 
HETATM   19  H14 UNL     1      17.428   0.957  49.222  1.00  0.00     0.158 HD
ENDROOT
BRANCH   1  20
HETATM   20  C2  UNL     1      25.377   2.523  51.749  1.00  0.00     0.135 C 
BRANCH  20  21
HETATM   21  N1  UNL     1      26.152   2.881  50.909  1.00  0.00    -0.277 NA
HETATM   22  C1  UNL     1      26.493   3.262  49.650  1.00  0.00     0.179 C 
ENDBRANCH  20  21
BRANCH  20  23
HETATM   23  N2  UNL     1      25.975   2.392  53.046  1.00  0.00    -0.341 N 
HETATM   24  H4  UNL     1      25.506   2.885  53.867  1.00  0.00     0.167 HD
BRANCH  23  25
HETATM   25  C3  UNL     1      27.175   1.621  53.301  1.00  0.00     0.035 A 
HETATM   26  C4  UNL     1      28.404   2.008  53.743  1.00  0.00     0.032 A 
HETATM   27  C5  UNL     1      29.476   1.167  53.921  1.00  0.00     0.046 A 
HETATM   28  C6  UNL     1      29.300  -0.195  53.630  1.00  0.00     0.138 A 
HETATM   29  F1  UNL     1      30.423  -0.923  53.837  1.00  0.00    -0.204 F 
HETATM   30  C7  UNL     1      28.081  -0.614  53.185  1.00  0.00     0.074 A 
HETATM   31 CL1  UNL     1      27.942  -2.340  52.850  1.00  0.00    -0.081 Cl
HETATM   32  C8  UNL     1      27.041   0.245  53.017  1.00  0.00     0.056 A 
ENDBRANCH  23  25
ENDBRANCH  20  23
ENDBRANCH   1  20
TORSDOF 4
ENDMDL
MODEL 2
REMARK VINA RESULT:      -8.9      1.651      2.181
REMARK  4 active torsions:
REMARK  status: ('A' for Active; 'I' for Inactive)
REMARK    1  A    between atoms: N1_2  and  C2_3 
REMARK    2  A    between atoms: C2_3  and  N2_4 
REMARK    3  A    between atoms: C2_3  and  C9_13 
REMARK    4  A    between atoms: N2_4  and  C3_5 
ROOT
HETATM    1  C9  UNL     1      22.343   1.470  51.915  1.00  0.00     0.045 C 
HETATM    2  C10 UNL     1      21.386   0.744  52.286  1.00  0.00     0.116 C 
HETATM    3  O1  UNL     1      22.304  -0.060  52.990  1.00  0.00    -0.345 OA
HETATM    4  C11 UNL     1      22.326  -0.488  54.329  1.00  0.00     0.202 C 
HETATM    5  C12 UNL     1      21.380  -1.693  54.365  1.00  0.00     0.202 C 
HETATM    6  O2  UNL     1      20.318  -1.258  53.554  1.00  0.00    -0.346 OA
HETATM    7  C13 UNL     1      20.375  -0.104  52.735  1.00  0.00     0.110 C 
HETATM    8  C14 UNL     1      19.099   0.141  52.311  1.00  0.00    -0.013 C 
HETATM    9  C15 UNL     1      17.948  -0.712  52.769  1.00  0.00     0.027 C 
HETATM   10  C16 UNL     1      16.886  -0.946  51.964  1.00  0.00     0.083 C 
HETATM   11  N3  UNL     1      16.752  -0.435  50.659  1.00  0.00    -0.398 N 
HETATM   12  C17 UNL     1      17.866   0.324  50.225  1.00  0.00     0.130 C 
HETATM   13  C18 UNL     1      18.556   1.047  51.376  1.00  0.00     0.063 C 
HETATM   14  C19 UNL     1      17.717   2.239  51.602  1.00  0.00     0.179 C 
HETATM   15  O3  UNL     1      18.356   3.350  50.901  1.00  0.00    -0.387 OA
HETATM   16  C20 UNL     1      19.453   3.411  51.618  1.00  0.00     0.195 C 
HETATM   17  C21 UNL     1      20.790   3.837  51.330  1.00  0.00     0.000 C 
HETATM   18  C22 UNL     1      21.722   2.839  51.545  1.00  0.00     0.016 C 
HETATM   19  H14 UNL     1      15.795  -0.794  50.410  1.00  0.00     0.158 HD
ENDROOT
BRANCH   1  20
HETATM   20  C2  UNL     1      23.733   1.842  51.847  1.00  0.00     0.135 C 
BRANCH  20  21
HETATM   21  N1  UNL     1      24.347   2.316  50.935  1.00  0.00    -0.277 NA
HETATM   22  C1  UNL     1      25.132   3.262  50.356  1.00  0.00     0.179 C 
ENDBRANCH  20  21
BRANCH  20  23
HETATM   23  N2  UNL     1      24.520   1.689  53.036  1.00  0.00    -0.341 N 
HETATM   24  H4  UNL     1      24.194   2.185  53.922  1.00  0.00     0.167 HD
BRANCH  23  25
HETATM   25  C3  UNL     1      25.728   0.891  53.099  1.00  0.00     0.035 A 
HETATM   26  C4  UNL     1      25.962  -0.401  52.734  1.00  0.00     0.032 A 
HETATM   27  C5  UNL     1      27.165  -1.051  52.873  1.00  0.00     0.046 A 
HETATM   28  C6  UNL     1      28.239  -0.338  53.428  1.00  0.00     0.138 A 
HETATM   29  F1  UNL     1      29.367  -1.081  53.520  1.00  0.00    -0.204 F 
HETATM   30  C7  UNL     1      28.037   0.957  53.803  1.00  0.00     0.074 A 
HETATM   31 CL1  UNL     1      29.439   1.783  54.484  1.00  0.00    -0.081 Cl
HETATM   32  C8  UNL     1      26.833   1.571  53.656  1.00  0.00     0.056 A 
ENDBRANCH  23  25
ENDBRANCH  20  23
ENDBRANCH   1  20
TORSDOF 4
ENDMDL
MODEL 3
REMARK VINA RESULT:      -8.7      2.097      3.100
REMARK  4 active torsions:
REMARK  status: ('A' for Active; 'I' for Inactive)
REMARK    1  A    between atoms: N1_2  and  C2_3 
REMARK    2  A    between atoms: C2_3  and  N2_4 
REMARK    3  A    between atoms: C2_3  and  C9_13 
REMARK    4  A    between atoms: N2_4  and  C3_5 
ROOT
HETATM    1  C9  UNL     1      23.218   0.627  52.911  1.00  0.00     0.045 C 
HETATM    2  C10 UNL     1      22.054   0.962  52.572  1.00  0.00     0.116 C 
HETATM    3  O1  UNL     1      21.585  -0.271  53.067  1.00  0.00    -0.345 OA
HETATM    4  C11 UNL     1      20.557  -0.575  53.977  1.00  0.00     0.202 C 
HETATM    5  C12 UNL     1      19.274  -0.523  53.141  1.00  0.00     0.202 C 
HETATM    6  O2  UNL     1      19.490   0.611  52.340  1.00  0.00    -0.346 OA
HETATM    7  C13 UNL     1      20.739   1.266  52.224  1.00  0.00     0.110 C 
HETATM    8  C14 UNL     1      20.505   2.450  51.584  1.00  0.00    -0.013 C 
HETATM    9  C15 UNL     1      19.112   2.865  51.196  1.00  0.00     0.027 C 
HETATM   10  C16 UNL     1      18.885   3.603  50.086  1.00  0.00     0.083 C 
HETATM   11  N3  UNL     1      19.893   4.045  49.207  1.00  0.00    -0.398 N 
HETATM   12  C17 UNL     1      21.191   3.606  49.559  1.00  0.00     0.130 C 
HETATM   13  C18 UNL     1      21.359   3.446  51.065  1.00  0.00     0.063 C 
HETATM   14  C19 UNL     1      21.596   4.821  51.544  1.00  0.00     0.179 C 
HETATM   15  O3  UNL     1      23.042   4.979  51.690  1.00  0.00    -0.387 OA
HETATM   16  C20 UNL     1      23.222   4.112  52.658  1.00  0.00     0.195 C 
HETATM   17  C21 UNL     1      24.331   3.292  53.044  1.00  0.00     0.000 C 
HETATM   18  C22 UNL     1      24.018   1.946  53.050  1.00  0.00     0.016 C 
HETATM   19  H14 UNL     1      19.320   4.612  48.529  1.00  0.00     0.158 HD
ENDROOT
BRANCH   1  20
HETATM   20  C2  UNL     1      24.194  -0.273  53.470  1.00  0.00     0.135 C 
BRANCH  20  21
HETATM   21  N1  UNL     1      24.270  -0.714  54.581  1.00  0.00    -0.277 NA
HETATM   22  C1  UNL     1      23.803  -1.412  55.648  1.00  0.00     0.179 C 
ENDBRANCH  20  21
BRANCH  20  23
HETATM   23  N2  UNL     1      25.209  -0.779  52.593  1.00  0.00    -0.341 N 
HETATM   24  H4  UNL     1      24.901  -1.256  51.690  1.00  0.00     0.167 HD
BRANCH  23  25
HETATM   25  C3  UNL     1      26.629  -0.670  52.864  1.00  0.00     0.035 A 
HETATM   26  C4  UNL     1      27.596  -1.628  52.940  1.00  0.00     0.032 A 
HETATM   27  C5  UNL     1      28.917  -1.388  53.233  1.00  0.00     0.046 A 
HETATM   28  C6  UNL     1      29.309  -0.060  53.469  1.00  0.00     0.138 A 
HETATM   29  F1  UNL     1      30.629   0.052  53.752  1.00  0.00    -0.204 F 
HETATM   30  C7  UNL     1      28.365   0.920  53.400  1.00  0.00     0.074 A 
HETATM   31 CL1  UNL     1      28.942   2.559  53.702  1.00  0.00    -0.081 Cl
HETATM   32  C8  UNL     1      27.064   0.649  53.111  1.00  0.00     0.056 A 
ENDBRANCH  23  25
ENDBRANCH  20  23
ENDBRANCH   1  20
TORSDOF 4
ENDMDL
MODEL 4
REMARK VINA RESULT:      -8.7      3.648      6.334
REMARK  4 active torsions:
REMARK  status: ('A' for Active; 'I' for Inactive)
REMARK    1  A    between atoms: N1_2  and  C2_3 
REMARK    2  A    between atoms: C2_3  and  N2_4 
REMARK    3  A    between atoms: C2_3  and  C9_13 
REMARK    4  A    between atoms: N2_4  and  C3_5 
ROOT
HETATM    1  C9  UNL     1      24.351   2.967  51.773  1.00  0.00     0.045 C 
HETATM    2  C10 UNL     1      23.786   2.054  52.427  1.00  0.00     0.116 C 
HETATM    3  O1  UNL     1      22.549   2.681  52.180  1.00  0.00    -0.345 OA
HETATM    4  C11 UNL     1      21.346   2.183  51.647  1.00  0.00     0.202 C 
HETATM    5  C12 UNL     1      20.659   1.491  52.829  1.00  0.00     0.202 C 
HETATM    6  O2  UNL     1      21.734   0.833  53.451  1.00  0.00    -0.346 OA
HETATM    7  C13 UNL     1      23.093   1.076  53.138  1.00  0.00     0.110 C 
HETATM    8  C14 UNL     1      23.819   0.089  53.741  1.00  0.00    -0.013 C 
HETATM    9  C15 UNL     1      23.146  -1.018  54.506  1.00  0.00     0.027 C 
HETATM   10  C16 UNL     1      23.736  -1.585  55.582  1.00  0.00     0.083 C 
HETATM   11  N3  UNL     1      25.000  -1.213  56.082  1.00  0.00    -0.398 N 
HETATM   12  C17 UNL     1      25.597  -0.138  55.381  1.00  0.00     0.130 C 
HETATM   13  C18 UNL     1      25.204  -0.118  53.909  1.00  0.00     0.063 C 
HETATM   14  C19 UNL     1      26.083  -1.129  53.292  1.00  0.00     0.179 C 
HETATM   15  O3  UNL     1      27.212  -0.411  52.704  1.00  0.00    -0.387 OA
HETATM   16  C20 UNL     1      26.547   0.249  51.785  1.00  0.00     0.195 C 
HETATM   17  C21 UNL     1      26.763   1.507  51.134  1.00  0.00     0.000 C 
HETATM   18  C22 UNL     1      25.709   2.383  51.311  1.00  0.00     0.016 C 
HETATM   19  H14 UNL     1      25.109  -1.909  56.864  1.00  0.00     0.158 HD
ENDROOT
BRANCH   1  20
HETATM   20  C2  UNL     1      24.371   4.185  51.003  1.00  0.00     0.135 C 
BRANCH  20  21
HETATM   21  N1  UNL     1      24.055   5.292  51.327  1.00  0.00    -0.277 NA
HETATM   22  C1  UNL     1      23.151   6.268  51.606  1.00  0.00     0.179 C 
ENDBRANCH  20  21
BRANCH  20  23
HETATM   23  N2  UNL     1      24.886   4.115  49.666  1.00  0.00    -0.341 N 
HETATM   24  H4  UNL     1      24.689   3.235  49.097  1.00  0.00     0.167 HD
BRANCH  23  25
HETATM   25  C3  UNL     1      25.653   5.177  49.047  1.00  0.00     0.035 A 
HETATM   26  C4  UNL     1      25.259   6.377  48.534  1.00  0.00     0.032 A 
HETATM   27  C5  UNL     1      26.098   7.292  47.945  1.00  0.00     0.046 A 
HETATM   28  C6  UNL     1      27.464   6.978  47.863  1.00  0.00     0.138 A 
HETATM   29  F1  UNL     1      28.188   7.950  47.260  1.00  0.00    -0.204 F 
HETATM   30  C7  UNL     1      27.889   5.785  48.367  1.00  0.00     0.074 A 
HETATM   31 CL1  UNL     1      29.619   5.471  48.230  1.00  0.00    -0.081 Cl
HETATM   32  C8  UNL     1      27.033   4.898  48.941  1.00  0.00     0.056 A 
ENDBRANCH  23  25
ENDBRANCH  20  23
ENDBRANCH   1  20
TORSDOF 4
ENDMDL
MODEL 5
REMARK VINA RESULT:      -8.6      4.245      8.419
REMARK  4 active torsions:
REMARK  status: ('A' for Active; 'I' for Inactive)
REMARK    1  A    between atoms: N1_2  and  C2_3 
REMARK    2  A    between atoms: C2_3  and  N2_4 
REMARK    3  A    between atoms: C2_3  and  C9_13 
REMARK    4  A    between atoms: N2_4  and  C3_5 
ROOT
HETATM    1  C9  UNL     1      21.757   0.360  52.651  1.00  0.00     0.045 C 
HETATM    2  C10 UNL     1      22.835   1.005  52.706  1.00  0.00     0.116 C 
HETATM    3  O1  UNL     1      22.208   2.059  52.013  1.00  0.00    -0.345 OA
HETATM    4  C11 UNL     1      22.102   3.429  52.307  1.00  0.00     0.202 C 
HETATM    5  C12 UNL     1      23.431   4.029  51.835  1.00  0.00     0.202 C 
HETATM    6  O2  UNL     1      24.358   3.063  52.263  1.00  0.00    -0.346 OA
HETATM    7  C13 UNL     1      23.996   1.776  52.728  1.00  0.00     0.110 C 
HETATM    8  C14 UNL     1      25.116   1.230  53.288  1.00  0.00    -0.013 C 
HETATM    9  C15 UNL     1      26.402   2.006  53.375  1.00  0.00     0.027 C 
HETATM   10  C16 UNL     1      27.601   1.386  53.297  1.00  0.00     0.083 C 
HETATM   11  N3  UNL     1      27.766  -0.004  53.131  1.00  0.00    -0.398 N 
HETATM   12  C17 UNL     1      26.548  -0.712  53.002  1.00  0.00     0.130 C 
HETATM   13  C18 UNL     1      25.413  -0.057  53.781  1.00  0.00     0.063 C 
HETATM   14  C19 UNL     1      25.630  -0.504  55.170  1.00  0.00     0.179 C 
HETATM   15  O3  UNL     1      24.744  -1.643  55.397  1.00  0.00    -0.387 OA
HETATM   16  C20 UNL     1      23.601  -1.007  55.286  1.00  0.00     0.195 C 
HETATM   17  C21 UNL     1      22.291  -1.413  54.872  1.00  0.00     0.000 C 
HETATM   18  C22 UNL     1      21.825  -0.681  53.797  1.00  0.00     0.016 C 
HETATM   19  H14 UNL     1      28.815  -0.078  53.172  1.00  0.00     0.158 HD
ENDROOT
BRANCH   1  20
HETATM   20  C2  UNL     1      20.379   0.173  52.277  1.00  0.00     0.135 C 
BRANCH  20  21
HETATM   21  N1  UNL     1      19.860   0.304  51.206  1.00  0.00    -0.277 NA
HETATM   22  C1  UNL     1      19.592   0.977  50.057  1.00  0.00     0.179 C 
ENDBRANCH  20  21
BRANCH  20  23
HETATM   23  N2  UNL     1      19.473  -0.285  53.290  1.00  0.00    -0.341 N 
HETATM   24  H4  UNL     1      19.739  -0.128  54.311  1.00  0.00     0.167 HD
BRANCH  23  25
HETATM   25  C3  UNL     1      18.214  -0.942  53.001  1.00  0.00     0.035 A 
HETATM   26  C4  UNL     1      17.089  -0.479  52.387  1.00  0.00     0.032 A 
HETATM   27  C5  UNL     1      15.941  -1.210  52.197  1.00  0.00     0.046 A 
HETATM   28  C6  UNL     1      15.917  -2.534  52.664  1.00  0.00     0.138 A 
HETATM   29  F1  UNL     1      14.735  -3.151  52.426  1.00  0.00    -0.204 F 
HETATM   30  C7  UNL     1      17.028  -3.026  53.282  1.00  0.00     0.074 A 
HETATM   31 CL1  UNL     1      16.918  -4.699  53.831  1.00  0.00    -0.081 Cl
HETATM   32  C8  UNL     1      18.148  -2.276  53.458  1.00  0.00     0.056 A 
ENDBRANCH  23  25
ENDBRANCH  20  23
ENDBRANCH   1  20
TORSDOF 4
ENDMDL
MODEL 6
REMARK VINA RESULT:      -8.5      4.228      7.095
REMARK  4 active torsions:
REMARK  status: ('A' for Active; 'I' for Inactive)
REMARK    1  A    between atoms: N1_2  and  C2_3 
REMARK    2  A    between atoms: C2_3  and  N2_4 
REMARK    3  A    between atoms: C2_3  and  C9_13 
REMARK    4  A    between atoms: N2_4  and  C3_5 
ROOT
HETATM    1  C9  UNL     1      23.514   4.074  51.644  1.00  0.00     0.045 C 
HETATM    2  C10 UNL     1      23.387   2.956  52.205  1.00  0.00     0.116 C 
HETATM    3  O1  UNL     1      21.996   3.175  52.266  1.00  0.00    -0.345 OA
HETATM    4  C11 UNL     1      20.913   2.384  51.845  1.00  0.00     0.202 C 
HETATM    5  C12 UNL     1      20.713   1.370  52.976  1.00  0.00     0.202 C 
HETATM    6  O2  UNL     1      22.036   1.024  53.299  1.00  0.00    -0.346 OA
HETATM    7  C13 UNL     1      23.171   1.729  52.830  1.00  0.00     0.110 C 
HETATM    8  C14 UNL     1      24.262   0.962  53.128  1.00  0.00    -0.013 C 
HETATM    9  C15 UNL     1      24.113  -0.385  53.780  1.00  0.00     0.027 C 
HETATM   10  C16 UNL     1      25.049  -0.858  54.634  1.00  0.00     0.083 C 
HETATM   11  N3  UNL     1      26.220  -0.161  54.992  1.00  0.00    -0.398 N 
HETATM   12  C17 UNL     1      26.320   1.125  54.409  1.00  0.00     0.130 C 
HETATM   13  C18 UNL     1      25.650   1.194  53.042  1.00  0.00     0.063 C 
HETATM   14  C19 UNL     1      26.645   0.603  52.128  1.00  0.00     0.179 C 
HETATM   15  O3  UNL     1      27.369   1.711  51.510  1.00  0.00    -0.387 OA
HETATM   16  C20 UNL     1      26.369   2.228  50.836  1.00  0.00     0.195 C 
HETATM   17  C21 UNL     1      26.068   3.557  50.393  1.00  0.00     0.000 C 
HETATM   18  C22 UNL     1      24.861   4.019  50.883  1.00  0.00     0.016 C 
HETATM   19  H14 UNL     1      26.685  -0.874  55.611  1.00  0.00     0.158 HD
ENDROOT
BRANCH   1  20
HETATM   20  C2  UNL     1      23.019   5.316  51.108  1.00  0.00     0.135 C 
BRANCH  20  21
HETATM   21  N1  UNL     1      23.459   6.423  51.230  1.00  0.00    -0.277 NA
HETATM   22  C1  UNL     1      23.909   7.613  50.754  1.00  0.00     0.179 C 
ENDBRANCH  20  21
BRANCH  20  23
HETATM   23  N2  UNL     1      21.865   5.259  50.259  1.00  0.00    -0.341 N 
HETATM   24  H4  UNL     1      20.947   5.656  50.630  1.00  0.00     0.167 HD
BRANCH  23  25
HETATM   25  C3  UNL     1      21.881   4.698  48.923  1.00  0.00     0.035 A 
HETATM   26  C4  UNL     1      21.810   3.404  48.499  1.00  0.00     0.032 A 
HETATM   27  C5  UNL     1      21.861   3.004  47.186  1.00  0.00     0.046 A 
HETATM   28  C6  UNL     1      21.994   3.994  46.200  1.00  0.00     0.138 A 
HETATM   29  F1  UNL     1      22.039   3.481  44.947  1.00  0.00    -0.204 F 
HETATM   30  C7  UNL     1      22.068   5.298  46.591  1.00  0.00     0.074 A 
HETATM   31 CL1  UNL     1      22.226   6.479  45.290  1.00  0.00    -0.081 Cl
HETATM   32  C8  UNL     1      22.017   5.662  47.901  1.00  0.00     0.056 A 
ENDBRANCH  23  25
ENDBRANCH  20  23
ENDBRANCH   1  20
TORSDOF 4
ENDMDL
MODEL 7
REMARK VINA RESULT:      -8.4      2.635      4.332
REMARK  4 active torsions:
REMARK  status: ('A' for Active; 'I' for Inactive)
REMARK    1  A    between atoms: N1_2  and  C2_3 
REMARK    2  A    between atoms: C2_3  and  N2_4 
REMARK    3  A    between atoms: C2_3  and  C9_13 
REMARK    4  A    between atoms: N2_4  and  C3_5 
ROOT
HETATM    1  C9  UNL     1      23.261   1.956  51.304  1.00  0.00     0.045 C 
HETATM    2  C10 UNL     1      23.495   2.860  50.462  1.00  0.00     0.116 C 
HETATM    3  O1  UNL     1      24.819   2.924  50.941  1.00  0.00    -0.345 OA
HETATM    4  C11 UNL     1      26.052   2.849  50.270  1.00  0.00     0.202 C 
HETATM    5  C12 UNL     1      26.278   4.261  49.719  1.00  0.00     0.202 C 
HETATM    6  O2  UNL     1      24.996   4.604  49.256  1.00  0.00    -0.346 OA
HETATM    7  C13 UNL     1      23.827   3.865  49.556  1.00  0.00     0.110 C 
HETATM    8  C14 UNL     1      22.841   4.338  48.737  1.00  0.00    -0.013 C 
HETATM    9  C15 UNL     1      23.121   5.404  47.713  1.00  0.00     0.027 C 
HETATM   10  C16 UNL     1      22.179   6.312  47.371  1.00  0.00     0.083 C 
HETATM   11  N3  UNL     1      20.882   6.353  47.918  1.00  0.00    -0.398 N 
HETATM   12  C17 UNL     1      20.650   5.375  48.914  1.00  0.00     0.130 C 
HETATM   13  C18 UNL     1      21.452   4.102  48.671  1.00  0.00     0.063 C 
HETATM   14  C19 UNL     1      20.670   3.378  47.650  1.00  0.00     0.179 C 
HETATM   15  O3  UNL     1      19.858   2.389  48.355  1.00  0.00    -0.387 OA
HETATM   16  C20 UNL     1      20.836   1.641  48.808  1.00  0.00     0.195 C 
HETATM   17  C21 UNL     1      20.975   0.802  49.961  1.00  0.00     0.000 C 
HETATM   18  C22 UNL     1      22.033   1.180  50.767  1.00  0.00     0.016 C 
HETATM   19  H14 UNL     1      20.466   7.146  47.364  1.00  0.00     0.158 HD
ENDROOT
BRANCH   1  20
HETATM   20  C2  UNL     1      23.615   1.069  52.383  1.00  0.00     0.135 C 
BRANCH  20  21
HETATM   21  N1  UNL     1      23.162  -0.003  52.663  1.00  0.00    -0.277 NA
HETATM   22  C1  UNL     1      22.675  -0.931  53.527  1.00  0.00     0.179 C 
ENDBRANCH  20  21
BRANCH  20  23
HETATM   23  N2  UNL     1      24.695   1.465  53.240  1.00  0.00    -0.341 N 
HETATM   24  H4  UNL     1      24.540   2.294  53.894  1.00  0.00     0.167 HD
BRANCH  23  25
HETATM   25  C3  UNL     1      25.981   0.797  53.269  1.00  0.00     0.035 A 
HETATM   26  C4  UNL     1      26.338  -0.463  52.892  1.00  0.00     0.032 A 
HETATM   27  C5  UNL     1      27.604  -0.985  52.997  1.00  0.00     0.046 A 
HETATM   28  C6  UNL     1      28.613  -0.166  53.529  1.00  0.00     0.138 A 
HETATM   29  F1  UNL     1      29.814  -0.788  53.589  1.00  0.00    -0.204 F 
HETATM   30  C7  UNL     1      28.287   1.100  53.916  1.00  0.00     0.074 A 
HETATM   31 CL1  UNL     1      29.613   2.065  54.567  1.00  0.00    -0.081 Cl
HETATM   32  C8  UNL     1      27.022   1.587  53.802  1.00  0.00     0.056 A 
ENDBRANCH  23  25
ENDBRANCH  20  23
ENDBRANCH   1  20
TORSDOF 4
ENDMDL
MODEL 8
REMARK VINA RESULT:      -8.4      4.334      7.126
REMARK  4 active torsions:
REMARK  status: ('A' for Active; 'I' for Inactive)
REMARK    1  A    between atoms: N1_2  and  C2_3 
REMARK    2  A    between atoms: C2_3  and  N2_4 
REMARK    3  A    between atoms: C2_3  and  C9_13 
REMARK    4  A    between atoms: N2_4  and  C3_5 
ROOT
HETATM    1  C9  UNL     1      24.465   3.077  51.901  1.00  0.00     0.045 C 
HETATM    2  C10 UNL     1      23.838   2.159  52.488  1.00  0.00     0.116 C 
HETATM    3  O1  UNL     1      22.639   2.853  52.233  1.00  0.00    -0.345 OA
HETATM    4  C11 UNL     1      21.436   2.437  51.637  1.00  0.00     0.202 C 
HETATM    5  C12 UNL     1      20.677   1.718  52.758  1.00  0.00     0.202 C 
HETATM    6  O2  UNL     1      21.700   0.983  53.381  1.00  0.00    -0.346 OA
HETATM    7  C13 UNL     1      23.078   1.180  53.126  1.00  0.00     0.110 C 
HETATM    8  C14 UNL     1      23.739   0.131  53.700  1.00  0.00    -0.013 C 
HETATM    9  C15 UNL     1      22.992  -0.980  54.385  1.00  0.00     0.027 C 
HETATM   10  C16 UNL     1      23.519  -1.627  55.450  1.00  0.00     0.083 C 
HETATM   11  N3  UNL     1      24.779  -1.337  56.010  1.00  0.00    -0.398 N 
HETATM   12  C17 UNL     1      25.447  -0.258  55.385  1.00  0.00     0.130 C 
HETATM   13  C18 UNL     1      25.107  -0.147  53.903  1.00  0.00     0.063 C 
HETATM   14  C19 UNL     1      25.963  -1.164  53.264  1.00  0.00     0.179 C 
HETATM   15  O3  UNL     1      27.142  -0.470  52.751  1.00  0.00    -0.387 OA
HETATM   16  C20 UNL     1      26.539   0.265  51.846  1.00  0.00     0.195 C 
HETATM   17  C21 UNL     1      26.832   1.543  51.268  1.00  0.00     0.000 C 
HETATM   18  C22 UNL     1      25.812   2.456  51.455  1.00  0.00     0.016 C 
HETATM   19  H14 UNL     1      24.830  -2.076  56.758  1.00  0.00     0.158 HD
ENDROOT
BRANCH   1  20
HETATM   20  C2  UNL     1      24.566   4.329  51.196  1.00  0.00     0.135 C 
BRANCH  20  21
HETATM   21  N1  UNL     1      25.084   4.566  50.143  1.00  0.00    -0.277 NA
HETATM   22  C1  UNL     1      25.917   5.261  49.325  1.00  0.00     0.179 C 
ENDBRANCH  20  21
BRANCH  20  23
HETATM   23  N2  UNL     1      23.922   5.471  51.777  1.00  0.00    -0.341 N 
HETATM   24  H4  UNL     1      24.058   5.648  52.820  1.00  0.00     0.167 HD
BRANCH  23  25
HETATM   25  C3  UNL     1      23.105   6.400  51.022  1.00  0.00     0.035 A 
HETATM   26  C4  UNL     1      23.371   7.661  50.577  1.00  0.00     0.032 A 
HETATM   27  C5  UNL     1      22.486   8.452  49.885  1.00  0.00     0.046 A 
HETATM   28  C6  UNL     1      21.212   7.931  49.609  1.00  0.00     0.138 A 
HETATM   29  F1  UNL     1      20.428   8.801  48.929  1.00  0.00    -0.204 F 
HETATM   30  C7  UNL     1      20.916   6.672  50.041  1.00  0.00     0.074 A 
HETATM   31 CL1  UNL     1      19.298   6.091  49.646  1.00  0.00    -0.081 Cl
HETATM   32  C8  UNL     1      21.813   5.915  50.727  1.00  0.00     0.056 A 
ENDBRANCH  23  25
ENDBRANCH  20  23
ENDBRANCH   1  20
TORSDOF 4
ENDMDL
MODEL 9
REMARK VINA RESULT:      -8.4      3.732      7.955
REMARK  4 active torsions:
REMARK  status: ('A' for Active; 'I' for Inactive)
REMARK    1  A    between atoms: N1_2  and  C2_3 
REMARK    2  A    between atoms: C2_3  and  N2_4 
REMARK    3  A    between atoms: C2_3  and  C9_13 
REMARK    4  A    between atoms: N2_4  and  C3_5 
ROOT
HETATM    1  C9  UNL     1      22.415   0.418  52.314  1.00  0.00     0.045 C 
HETATM    2  C10 UNL     1      23.485   1.069  52.428  1.00  0.00     0.116 C 
HETATM    3  O1  UNL     1      22.920   2.084  51.632  1.00  0.00    -0.345 OA
HETATM    4  C11 UNL     1      22.790   3.467  51.845  1.00  0.00     0.202 C 
HETATM    5  C12 UNL     1      24.155   4.047  51.459  1.00  0.00     0.202 C 
HETATM    6  O2  UNL     1      25.041   3.108  52.013  1.00  0.00    -0.346 OA
HETATM    7  C13 UNL     1      24.640   1.845  52.511  1.00  0.00     0.110 C 
HETATM    8  C14 UNL     1      25.707   1.332  53.192  1.00  0.00    -0.013 C 
HETATM    9  C15 UNL     1      26.982   2.116  53.349  1.00  0.00     0.027 C 
HETATM   10  C16 UNL     1      28.182   1.496  53.406  1.00  0.00     0.083 C 
HETATM   11  N3  UNL     1      28.360   0.101  53.326  1.00  0.00    -0.398 N 
HETATM   12  C17 UNL     1      27.157  -0.617  53.129  1.00  0.00     0.130 C 
HETATM   13  C18 UNL     1      25.960   0.072  53.773  1.00  0.00     0.063 C 
HETATM   14  C19 UNL     1      26.057  -0.303  55.197  1.00  0.00     0.179 C 
HETATM   15  O3  UNL     1      25.153  -1.432  55.404  1.00  0.00    -0.387 OA
HETATM   16  C20 UNL     1      24.024  -0.807  55.164  1.00  0.00     0.195 C 
HETATM   17  C21 UNL     1      22.754  -1.238  54.660  1.00  0.00     0.000 C 
HETATM   18  C22 UNL     1      22.383  -0.563  53.512  1.00  0.00     0.016 C 
HETATM   19  H14 UNL     1      29.402   0.033  53.461  1.00  0.00     0.158 HD
ENDROOT
BRANCH   1  20
HETATM   20  C2  UNL     1      21.074   0.207  51.832  1.00  0.00     0.135 C 
BRANCH  20  21
HETATM   21  N1  UNL     1      20.050   0.136  52.448  1.00  0.00    -0.277 NA
HETATM   22  C1  UNL     1      18.847  -0.417  52.750  1.00  0.00     0.179 C 
ENDBRANCH  20  21
BRANCH  20  23
HETATM   23  N2  UNL     1      20.886   0.115  50.414  1.00  0.00    -0.341 N 
HETATM   24  H4  UNL     1      21.148  -0.799  49.930  1.00  0.00     0.167 HD
BRANCH  23  25
HETATM   25  C3  UNL     1      20.353   1.193  49.605  1.00  0.00     0.035 A 
HETATM   26  C4  UNL     1      19.136   1.807  49.630  1.00  0.00     0.032 A 
HETATM   27  C5  UNL     1      18.746   2.812  48.779  1.00  0.00     0.046 A 
HETATM   28  C6  UNL     1      19.664   3.248  47.810  1.00  0.00     0.138 A 
HETATM   29  F1  UNL     1      19.167   4.236  47.028  1.00  0.00    -0.204 F 
HETATM   30  C7  UNL     1      20.890   2.654  47.759  1.00  0.00     0.074 A 
HETATM   31 CL1  UNL     1      21.984   3.266  46.519  1.00  0.00    -0.081 Cl
HETATM   32  C8  UNL     1      21.244   1.658  48.614  1.00  0.00     0.056 A 
ENDBRANCH  23  25
ENDBRANCH  20  23
ENDBRANCH   1  20
TORSDOF 4
ENDMDL
