MODEL 1
REMARK VINA RESULT:      -8.8      0.000      0.000
REMARK  7 active torsions:
REMARK  status: ('A' for Active; 'I' for Inactive)
REMARK    1  A    between atoms: N1_7  and  C6_8 
REMARK    2  A    between atoms: C6_8  and  C7_9 
REMARK    3  A    between atoms: C7_9  and  O2_10 
REMARK    4  A    between atoms: O2_10  and  C8_11 
REMARK    5  A    between atoms: C12_15  and  S1_16 
REMARK    6  A    between atoms: S1_16  and  N2_17 
REMARK    7  A    between atoms: N2_17  and  C13_18 
ROOT
HETATM    1  C8  UNL     1      22.199   2.677  48.864  1.00  0.00     0.082 A 
HETATM    2  C9  UNL     1      22.578   2.062  47.552  1.00  0.00     0.048 C 
HETATM    3  C10 UNL     1      22.645   2.308  49.876  1.00  0.00     0.020 A 
HETATM    4  C11 UNL     1      23.108   1.963  50.859  1.00  0.00     0.008 A 
HETATM    5  C12 UNL     1      23.771   1.514  52.182  1.00  0.00     0.056 A 
HETATM    6  S1  UNL     1      25.281   2.320  51.794  1.00  0.00    -0.072 SA
HETATM    7  C19 UNL     1      25.183   3.162  50.158  1.00  0.00     0.083 A 
HETATM    8  C20 UNL     1      26.299   3.985  49.432  1.00  0.00     0.104 C 
HETATM    9  N3  UNL     1      27.138   4.595  48.910  1.00  0.00    -0.191 NA
HETATM   10  C21 UNL     1      24.078   3.217  49.248  1.00  0.00     0.070 A 
HETATM   11  N4  UNL     1      24.060   2.487  50.584  1.00  0.00     0.000 N 
HETATM   12  C22 UNL     1      22.986   1.744  51.175  1.00  0.00     0.033 A 
ENDROOT
BRANCH   6  13
HETATM   13  N2  UNL     1      26.721   2.504  52.892  1.00  0.00    -0.334 N 
HETATM   14  H16 UNL     1      26.838   3.455  53.298  1.00  0.00     0.173 HD
BRANCH  13  15
HETATM   15  C13 UNL     1      27.517   1.340  53.071  1.00  0.00     0.039 A 
HETATM   16  C14 UNL     1      28.788   1.489  53.581  1.00  0.00     0.033 A 
HETATM   17  C15 UNL     1      29.573   0.341  53.759  1.00  0.00     0.046 A 
HETATM   18  C16 UNL     1      29.118  -0.922  53.441  1.00  0.00     0.138 A 
HETATM   19  F1  UNL     1      29.880  -2.026  53.616  1.00  0.00    -0.204 F 
HETATM   20  C17 UNL     1      27.855  -0.986  52.944  1.00  0.00     0.074 A 
HETATM   21 CL1  UNL     1      27.131  -2.539  52.493  1.00  0.00    -0.081 Cl
HETATM   22  C18 UNL     1      27.049   0.087  52.750  1.00  0.00     0.057 A 
ENDBRANCH  13  15
ENDBRANCH   6  13
BRANCH   1  23
HETATM   23  O2  UNL     1      21.851   3.968  48.595  1.00  0.00    -0.377 OA
BRANCH  23  24
HETATM   24  C7  UNL     1      20.551   4.271  48.866  1.00  0.00     0.188 C 
BRANCH  24  25
HETATM   25  C6  UNL     1      20.426   5.024  50.202  1.00  0.00     0.149 C 
BRANCH  25  26
HETATM   26  N1  UNL     1      21.453   6.008  50.292  1.00  0.00    -0.379 N 
HETATM   27  C2  UNL     1      22.516   5.863  51.249  1.00  0.00     0.021 C 
HETATM   28  C1  UNL     1      22.352   5.134  52.368  1.00  0.00     0.040 C 
HETATM   29  C3  UNL     1      23.887   6.428  51.208  1.00  0.00     0.223 C 
HETATM   30  O1  UNL     1      23.936   7.361  50.180  1.00  0.00    -0.384 OA
HETATM   31  C4  UNL     1      22.752   8.059  50.148  1.00  0.00     0.187 C 
HETATM   32  C5  UNL     1      21.624   7.225  49.521  1.00  0.00     0.149 C 
ENDBRANCH  25  26
ENDBRANCH  24  25
ENDBRANCH  23  24
ENDBRANCH   1  23
TORSDOF 7
ENDMDL
MODEL 2
REMARK VINA RESULT:      -8.5      3.885      6.943
REMARK  7 active torsions:
REMARK  status: ('A' for Active; 'I' for Inactive)
REMARK    1  A    between atoms: N1_7  and  C6_8 
REMARK    2  A    between atoms: C6_8  and  C7_9 
REMARK    3  A    between atoms: C7_9  and  O2_10 
REMARK    4  A    between atoms: O2_10  and  C8_11 
REMARK    5  A    between atoms: C12_15  and  S1_16 
REMARK    6  A    between atoms: S1_16  and  N2_17 
REMARK    7  A    between atoms: N2_17  and  C13_18 
ROOT
HETATM    1  C8  UNL     1      25.655   4.110  50.336  1.00  0.00     0.082 A 
HETATM    2  C9  UNL     1      25.878   4.808  49.030  1.00  0.00     0.048 C 
HETATM    3  C10 UNL     1      24.688   4.265  50.968  1.00  0.00     0.020 A 
HETATM    4  C11 UNL     1      23.726   4.398  51.565  1.00  0.00     0.008 A 
HETATM    5  C12 UNL     1      22.402   4.556  52.349  1.00  0.00     0.056 A 
HETATM    6  S1  UNL     1      21.516   3.553  51.214  1.00  0.00    -0.072 SA
HETATM    7  C19 UNL     1      22.613   2.952  49.861  1.00  0.00     0.083 A 
HETATM    8  C20 UNL     1      22.232   2.044  48.645  1.00  0.00     0.104 C 
HETATM    9  N3  UNL     1      21.931   1.367  47.751  1.00  0.00    -0.191 NA
HETATM   10  C21 UNL     1      24.010   3.205  49.667  1.00  0.00     0.070 A 
HETATM   11  N4  UNL     1      23.186   3.755  50.823  1.00  0.00     0.000 N 
HETATM   12  C22 UNL     1      23.619   4.595  51.902  1.00  0.00     0.033 A 
ENDROOT
BRANCH   6  13
HETATM   13  N2  UNL     1      19.796   2.984  51.388  1.00  0.00    -0.334 N 
HETATM   14  H16 UNL     1      19.082   3.639  51.007  1.00  0.00     0.173 HD
BRANCH  13  15
HETATM   15  C13 UNL     1      19.621   1.721  52.016  1.00  0.00     0.039 A 
HETATM   16  C14 UNL     1      18.610   0.900  51.565  1.00  0.00     0.033 A 
HETATM   17  C15 UNL     1      18.438  -0.346  52.184  1.00  0.00     0.046 A 
HETATM   18  C16 UNL     1      19.241  -0.773  53.220  1.00  0.00     0.138 A 
HETATM   19  F1  UNL     1      19.071  -1.978  53.813  1.00  0.00    -0.204 F 
HETATM   20  C17 UNL     1      20.216   0.091  53.607  1.00  0.00     0.074 A 
HETATM   21 CL1  UNL     1      21.328  -0.319  54.923  1.00  0.00    -0.081 Cl
HETATM   22  C18 UNL     1      20.431   1.308  53.048  1.00  0.00     0.057 A 
ENDBRANCH  13  15
ENDBRANCH   6  13
BRANCH   1  23
HETATM   23  O2  UNL     1      26.359   2.943  50.272  1.00  0.00    -0.377 OA
BRANCH  23  24
HETATM   24  C7  UNL     1      26.795   2.479  51.475  1.00  0.00     0.188 C 
BRANCH  24  25
HETATM   25  C6  UNL     1      26.704   0.944  51.542  1.00  0.00     0.149 C 
BRANCH  25  26
HETATM   26  N1  UNL     1      26.464   0.539  52.886  1.00  0.00    -0.379 N 
HETATM   27  C2  UNL     1      25.139   0.177  53.310  1.00  0.00     0.021 C 
HETATM   28  C1  UNL     1      24.050   0.648  52.674  1.00  0.00     0.040 C 
HETATM   29  C3  UNL     1      24.729  -0.709  54.427  1.00  0.00     0.223 C 
HETATM   30  O1  UNL     1      25.853  -0.972  55.201  1.00  0.00    -0.384 OA
HETATM   31  C4  UNL     1      26.618   0.167  55.285  1.00  0.00     0.187 C 
HETATM   32  C5  UNL     1      27.402   0.416  53.986  1.00  0.00     0.149 C 
ENDBRANCH  25  26
ENDBRANCH  24  25
ENDBRANCH  23  24
ENDBRANCH   1  23
TORSDOF 7
ENDMDL
MODEL 3
REMARK VINA RESULT:      -8.4      4.764      7.583
REMARK  7 active torsions:
REMARK  status: ('A' for Active; 'I' for Inactive)
REMARK    1  A    between atoms: N1_7  and  C6_8 
REMARK    2  A    between atoms: C6_8  and  C7_9 
REMARK    3  A    between atoms: C7_9  and  O2_10 
REMARK    4  A    between atoms: O2_10  and  C8_11 
REMARK    5  A    between atoms: C12_15  and  S1_16 
REMARK    6  A    between atoms: S1_16  and  N2_17 
REMARK    7  A    between atoms: N2_17  and  C13_18 
ROOT
HETATM    1  C8  UNL     1      24.842   3.041  50.760  1.00  0.00     0.082 A 
HETATM    2  C9  UNL     1      23.475   2.773  50.210  1.00  0.00     0.048 C 
HETATM    3  C10 UNL     1      25.685   3.529  50.121  1.00  0.00     0.020 A 
HETATM    4  C11 UNL     1      26.496   4.034  49.499  1.00  0.00     0.008 A 
HETATM    5  C12 UNL     1      27.577   4.754  48.659  1.00  0.00     0.056 A 
HETATM    6  S1  UNL     1      26.781   6.310  48.819  1.00  0.00    -0.072 SA
HETATM    7  C19 UNL     1      25.241   6.168  49.821  1.00  0.00     0.083 A 
HETATM    8  C20 UNL     1      24.230   7.302  50.199  1.00  0.00     0.104 C 
HETATM    9  N3  UNL     1      23.494   8.157  50.472  1.00  0.00    -0.191 NA
HETATM   10  C21 UNL     1      24.680   5.000  50.434  1.00  0.00     0.070 A 
HETATM   11  N4  UNL     1      25.965   5.014  49.617  1.00  0.00     0.000 N 
HETATM   12  C22 UNL     1      26.834   3.915  49.311  1.00  0.00     0.033 A 
ENDROOT
BRANCH   6  13
HETATM   13  N2  UNL     1      27.427   7.918  48.263  1.00  0.00    -0.334 N 
HETATM   14  H16 UNL     1      26.700   8.592  47.947  1.00  0.00     0.173 HD
BRANCH  13  15
HETATM   15  C13 UNL     1      28.838   8.073  48.323  1.00  0.00     0.039 A 
HETATM   16  C14 UNL     1      29.359   8.989  49.212  1.00  0.00     0.033 A 
HETATM   17  C15 UNL     1      30.751   9.142  49.272  1.00  0.00     0.046 A 
HETATM   18  C16 UNL     1      31.610   8.411  48.478  1.00  0.00     0.138 A 
HETATM   19  F1  UNL     1      32.953   8.563  48.542  1.00  0.00    -0.204 F 
HETATM   20  C17 UNL     1      31.021   7.529  47.628  1.00  0.00     0.074 A 
HETATM   21 CL1  UNL     1      31.993   6.518  46.547  1.00  0.00    -0.081 Cl
HETATM   22  C18 UNL     1      29.682   7.337  47.525  1.00  0.00     0.057 A 
ENDBRANCH  13  15
ENDBRANCH   6  13
BRANCH   1  23
HETATM   23  O2  UNL     1      24.686   3.221  52.103  1.00  0.00    -0.377 OA
BRANCH  23  24
HETATM   24  C7  UNL     1      24.726   2.074  52.836  1.00  0.00     0.188 C 
BRANCH  24  25
HETATM   25  C6  UNL     1      25.849   2.129  53.887  1.00  0.00     0.149 C 
BRANCH  25  26
HETATM   26  N1  UNL     1      26.740   1.035  53.689  1.00  0.00    -0.379 N 
HETATM   27  C2  UNL     1      28.160   1.225  53.808  1.00  0.00     0.021 C 
HETATM   28  C1  UNL     1      28.721   2.434  53.616  1.00  0.00     0.040 C 
HETATM   29  C3  UNL     1      29.208   0.227  54.138  1.00  0.00     0.223 C 
HETATM   30  O1  UNL     1      28.630  -1.035  54.084  1.00  0.00    -0.384 OA
HETATM   31  C4  UNL     1      27.744  -1.081  53.033  1.00  0.00     0.187 C 
HETATM   32  C5  UNL     1      26.436  -0.346  53.367  1.00  0.00     0.149 C 
ENDBRANCH  25  26
ENDBRANCH  24  25
ENDBRANCH  23  24
ENDBRANCH   1  23
TORSDOF 7
ENDMDL
MODEL 4
REMARK VINA RESULT:      -8.0      2.116      3.080
REMARK  7 active torsions:
REMARK  status: ('A' for Active; 'I' for Inactive)
REMARK    1  A    between atoms: N1_7  and  C6_8 
REMARK    2  A    between atoms: C6_8  and  C7_9 
REMARK    3  A    between atoms: C7_9  and  O2_10 
REMARK    4  A    between atoms: O2_10  and  C8_11 
REMARK    5  A    between atoms: C12_15  and  S1_16 
REMARK    6  A    between atoms: S1_16  and  N2_17 
REMARK    7  A    between atoms: N2_17  and  C13_18 
ROOT
HETATM    1  C8  UNL     1      21.285   1.734  49.847  1.00  0.00     0.082 A 
HETATM    2  C9  UNL     1      21.587   1.198  48.481  1.00  0.00     0.048 C 
HETATM    3  C10 UNL     1      21.931   1.462  50.779  1.00  0.00     0.020 A 
HETATM    4  C11 UNL     1      22.585   1.217  51.680  1.00  0.00     0.008 A 
HETATM    5  C12 UNL     1      23.500   0.909  52.887  1.00  0.00     0.056 A 
HETATM    6  S1  UNL     1      24.759   1.988  52.313  1.00  0.00    -0.072 SA
HETATM    7  C19 UNL     1      24.274   2.789  50.726  1.00  0.00     0.083 A 
HETATM    8  C20 UNL     1      25.098   3.808  49.871  1.00  0.00     0.104 C 
HETATM    9  N3  UNL     1      25.723   4.566  49.252  1.00  0.00    -0.191 NA
HETATM   10  C21 UNL     1      23.062   2.627  49.979  1.00  0.00     0.070 A 
HETATM   11  N4  UNL     1      23.371   1.912  51.288  1.00  0.00     0.000 N 
HETATM   12  C22 UNL     1      22.553   0.979  52.005  1.00  0.00     0.033 A 
ENDROOT
BRANCH   6  13
HETATM   13  N2  UNL     1      26.277   2.451  53.205  1.00  0.00    -0.334 N 
HETATM   14  H16 UNL     1      26.296   3.433  53.548  1.00  0.00     0.173 HD
BRANCH  13  15
HETATM   15  C13 UNL     1      27.257   1.429  53.332  1.00  0.00     0.039 A 
HETATM   16  C14 UNL     1      28.493   1.766  53.840  1.00  0.00     0.033 A 
HETATM   17  C15 UNL     1      29.459   0.758  53.966  1.00  0.00     0.046 A 
HETATM   18  C16 UNL     1      29.215  -0.549  53.601  1.00  0.00     0.138 A 
HETATM   19  F1  UNL     1      30.151  -1.518  53.726  1.00  0.00    -0.204 F 
HETATM   20  C17 UNL     1      27.973  -0.803  53.109  1.00  0.00     0.074 A 
HETATM   21 CL1  UNL     1      27.510  -2.435  52.601  1.00  0.00    -0.081 Cl
HETATM   22  C18 UNL     1      26.998   0.129  52.964  1.00  0.00     0.057 A 
ENDBRANCH  13  15
ENDBRANCH   6  13
BRANCH   1  23
HETATM   23  O2  UNL     1      20.663   2.932  49.659  1.00  0.00    -0.377 OA
BRANCH  23  24
HETATM   24  C7  UNL     1      19.651   2.908  48.748  1.00  0.00     0.188 C 
BRANCH  24  25
HETATM   25  C6  UNL     1      19.456   4.290  48.101  1.00  0.00     0.149 C 
BRANCH  25  26
HETATM   26  N1  UNL     1      19.906   4.250  46.750  1.00  0.00    -0.379 N 
HETATM   27  C2  UNL     1      21.298   4.438  46.442  1.00  0.00     0.021 C 
HETATM   28  C1  UNL     1      22.111   5.114  47.274  1.00  0.00     0.040 C 
HETATM   29  C3  UNL     1      22.060   3.967  45.259  1.00  0.00     0.223 C 
HETATM   30  O1  UNL     1      21.150   3.497  44.321  1.00  0.00    -0.384 OA
HETATM   31  C4  UNL     1      20.041   4.311  44.322  1.00  0.00     0.187 C 
HETATM   32  C5  UNL     1      19.140   4.034  45.536  1.00  0.00     0.149 C 
ENDBRANCH  25  26
ENDBRANCH  24  25
ENDBRANCH  23  24
ENDBRANCH   1  23
TORSDOF 7
ENDMDL
MODEL 5
REMARK VINA RESULT:      -7.9      1.697      3.083
REMARK  7 active torsions:
REMARK  status: ('A' for Active; 'I' for Inactive)
REMARK    1  A    between atoms: N1_7  and  C6_8 
REMARK    2  A    between atoms: C6_8  and  C7_9 
REMARK    3  A    between atoms: C7_9  and  O2_10 
REMARK    4  A    between atoms: O2_10  and  C8_11 
REMARK    5  A    between atoms: C12_15  and  S1_16 
REMARK    6  A    between atoms: S1_16  and  N2_17 
REMARK    7  A    between atoms: N2_17  and  C13_18 
ROOT
HETATM    1  C8  UNL     1      22.176   2.943  49.127  1.00  0.00     0.082 A 
HETATM    2  C9  UNL     1      22.450   2.150  47.886  1.00  0.00     0.048 C 
HETATM    3  C10 UNL     1      22.582   2.624  50.172  1.00  0.00     0.020 A 
HETATM    4  C11 UNL     1      23.007   2.323  51.185  1.00  0.00     0.008 A 
HETATM    5  C12 UNL     1      23.621   1.926  52.549  1.00  0.00     0.056 A 
HETATM    6  S1  UNL     1      25.221   2.475  52.080  1.00  0.00    -0.072 SA
HETATM    7  C19 UNL     1      25.216   3.148  50.365  1.00  0.00     0.083 A 
HETATM    8  C20 UNL     1      26.423   3.733  49.557  1.00  0.00     0.104 C 
HETATM    9  N3  UNL     1      27.329   4.165  48.975  1.00  0.00    -0.191 NA
HETATM   10  C21 UNL     1      24.116   3.259  49.453  1.00  0.00     0.070 A 
HETATM   11  N4  UNL     1      24.018   2.680  50.858  1.00  0.00     0.000 N 
HETATM   12  C22 UNL     1      22.861   2.156  51.523  1.00  0.00     0.033 A 
ENDROOT
BRANCH   6  13
HETATM   13  N2  UNL     1      26.688   2.574  53.154  1.00  0.00    -0.334 N 
HETATM   14  H16 UNL     1      26.823   3.494  53.619  1.00  0.00     0.173 HD
BRANCH  13  15
HETATM   15  C13 UNL     1      27.476   1.394  53.236  1.00  0.00     0.039 A 
HETATM   16  C14 UNL     1      28.765   1.500  53.712  1.00  0.00     0.033 A 
HETATM   17  C15 UNL     1      29.542   0.336  53.794  1.00  0.00     0.046 A 
HETATM   18  C16 UNL     1      29.062  -0.901  53.418  1.00  0.00     0.138 A 
HETATM   19  F1  UNL     1      29.817  -2.021  53.501  1.00  0.00    -0.204 F 
HETATM   20  C17 UNL     1      27.783  -0.924  52.960  1.00  0.00     0.074 A 
HETATM   21 CL1  UNL     1      27.027  -2.440  52.443  1.00  0.00    -0.081 Cl
HETATM   22  C18 UNL     1      26.983   0.167  52.858  1.00  0.00     0.057 A 
ENDBRANCH  13  15
ENDBRANCH   6  13
BRANCH   1  23
HETATM   23  O2  UNL     1      22.003   4.235  48.725  1.00  0.00    -0.377 OA
BRANCH  23  24
HETATM   24  C7  UNL     1      21.207   4.979  49.542  1.00  0.00     0.188 C 
BRANCH  24  25
HETATM   25  C6  UNL     1      19.745   4.955  49.062  1.00  0.00     0.149 C 
BRANCH  25  26
HETATM   26  N1  UNL     1      19.015   3.984  49.807  1.00  0.00    -0.379 N 
HETATM   27  C2  UNL     1      18.367   2.891  49.136  1.00  0.00     0.021 C 
HETATM   28  C1  UNL     1      18.000   2.984  47.845  1.00  0.00     0.040 C 
HETATM   29  C3  UNL     1      18.004   1.555  49.672  1.00  0.00     0.223 C 
HETATM   30  O1  UNL     1      18.170   1.586  51.051  1.00  0.00    -0.384 OA
HETATM   31  C4  UNL     1      17.760   2.809  51.527  1.00  0.00     0.187 C 
HETATM   32  C5  UNL     1      18.800   3.903  51.240  1.00  0.00     0.149 C 
ENDBRANCH  25  26
ENDBRANCH  24  25
ENDBRANCH  23  24
ENDBRANCH   1  23
TORSDOF 7
ENDMDL
MODEL 6
REMARK VINA RESULT:      -7.8      3.604      6.771
REMARK  7 active torsions:
REMARK  status: ('A' for Active; 'I' for Inactive)
REMARK    1  A    between atoms: N1_7  and  C6_8 
REMARK    2  A    between atoms: C6_8  and  C7_9 
REMARK    3  A    between atoms: C7_9  and  O2_10 
REMARK    4  A    between atoms: O2_10  and  C8_11 
REMARK    5  A    between atoms: C12_15  and  S1_16 
REMARK    6  A    between atoms: S1_16  and  N2_17 
REMARK    7  A    between atoms: N2_17  and  C13_18 
ROOT
HETATM    1  C8  UNL     1      22.070  -0.303  52.778  1.00  0.00     0.082 A 
HETATM    2  C9  UNL     1      21.351  -0.014  54.059  1.00  0.00     0.048 C 
HETATM    3  C10 UNL     1      21.764   0.189  51.767  1.00  0.00     0.020 A 
HETATM    4  C11 UNL     1      21.478   0.698  50.787  1.00  0.00     0.008 A 
HETATM    5  C12 UNL     1      21.108   1.422  49.472  1.00  0.00     0.056 A 
HETATM    6  S1  UNL     1      21.840   2.928  49.999  1.00  0.00    -0.072 SA
HETATM    7  C19 UNL     1      22.562   2.760  51.686  1.00  0.00     0.083 A 
HETATM    8  C20 UNL     1      23.298   3.853  52.531  1.00  0.00     0.104 C 
HETATM    9  N3  UNL     1      23.844   4.676  53.141  1.00  0.00    -0.191 NA
HETATM   10  C21 UNL     1      22.583   1.607  52.537  1.00  0.00     0.070 A 
HETATM   11  N4  UNL     1      21.953   1.646  51.151  1.00  0.00     0.000 N 
HETATM   12  C22 UNL     1      21.286   0.589  50.449  1.00  0.00     0.033 A 
ENDROOT
BRANCH   6  13
HETATM   13  N2  UNL     1      22.062   4.432  48.998  1.00  0.00    -0.334 N 
HETATM   14  H16 UNL     1      21.331   4.582  48.273  1.00  0.00     0.173 HD
BRANCH  13  15
HETATM   15  C13 UNL     1      23.198   5.225  49.315  1.00  0.00     0.039 A 
HETATM   16  C14 UNL     1      22.998   6.423  49.966  1.00  0.00     0.033 A 
HETATM   17  C15 UNL     1      24.118   7.206  50.280  1.00  0.00     0.046 A 
HETATM   18  C16 UNL     1      25.403   6.819  49.960  1.00  0.00     0.138 A 
HETATM   19  F1  UNL     1      26.480   7.578  50.267  1.00  0.00    -0.204 F 
HETATM   20  C17 UNL     1      25.518   5.625  49.320  1.00  0.00     0.074 A 
HETATM   21 CL1  UNL     1      27.104   4.994  48.848  1.00  0.00    -0.081 Cl
HETATM   22  C18 UNL     1      24.473   4.825  48.991  1.00  0.00     0.057 A 
ENDBRANCH  13  15
ENDBRANCH   6  13
BRANCH   1  23
HETATM   23  O2  UNL     1      23.348  -0.634  53.122  1.00  0.00    -0.377 OA
BRANCH  23  24
HETATM   24  C7  UNL     1      23.533  -0.865  54.451  1.00  0.00     0.188 C 
BRANCH  24  25
HETATM   25  C6  UNL     1      25.031  -0.892  54.804  1.00  0.00     0.149 C 
BRANCH  25  26
HETATM   26  N1  UNL     1      25.726   0.060  54.004  1.00  0.00    -0.379 N 
HETATM   27  C2  UNL     1      26.432  -0.361  52.825  1.00  0.00     0.021 C 
HETATM   28  C1  UNL     1      26.881  -1.623  52.693  1.00  0.00     0.040 C 
HETATM   29  C3  UNL     1      26.781   0.429  51.618  1.00  0.00     0.223 C 
HETATM   30  O1  UNL     1      26.525   1.767  51.892  1.00  0.00    -0.384 OA
HETATM   31  C4  UNL     1      26.886   2.037  53.191  1.00  0.00     0.187 C 
HETATM   32  C5  UNL     1      25.850   1.493  54.188  1.00  0.00     0.149 C 
ENDBRANCH  25  26
ENDBRANCH  24  25
ENDBRANCH  23  24
ENDBRANCH   1  23
TORSDOF 7
ENDMDL
MODEL 7
REMARK VINA RESULT:      -7.5      5.269      7.101
REMARK  7 active torsions:
REMARK  status: ('A' for Active; 'I' for Inactive)
REMARK    1  A    between atoms: N1_7  and  C6_8 
REMARK    2  A    between atoms: C6_8  and  C7_9 
REMARK    3  A    between atoms: C7_9  and  O2_10 
REMARK    4  A    between atoms: O2_10  and  C8_11 
REMARK    5  A    between atoms: C12_15  and  S1_16 
REMARK    6  A    between atoms: S1_16  and  N2_17 
REMARK    7  A    between atoms: N2_17  and  C13_18 
ROOT
HETATM    1  C8  UNL     1      25.374   6.104  49.216  1.00  0.00     0.082 A 
HETATM    2  C9  UNL     1      24.379   6.734  48.291  1.00  0.00     0.048 C 
HETATM    3  C10 UNL     1      26.467   5.868  48.888  1.00  0.00     0.020 A 
HETATM    4  C11 UNL     1      27.544   5.669  48.569  1.00  0.00     0.008 A 
HETATM    5  C12 UNL     1      29.011   5.438  48.140  1.00  0.00     0.056 A 
HETATM    6  S1  UNL     1      29.400   7.146  48.255  1.00  0.00    -0.072 SA
HETATM    7  C19 UNL     1      27.931   8.126  48.781  1.00  0.00     0.083 A 
HETATM    8  C20 UNL     1      27.834   9.673  49.000  1.00  0.00     0.104 C 
HETATM    9  N3  UNL     1      27.783  10.822  49.159  1.00  0.00    -0.191 NA
HETATM   10  C21 UNL     1      26.610   7.662  49.084  1.00  0.00     0.070 A 
HETATM   11  N4  UNL     1      27.762   6.765  48.650  1.00  0.00     0.000 N 
HETATM   12  C22 UNL     1      27.760   5.344  48.467  1.00  0.00     0.033 A 
ENDROOT
BRANCH   6  13
HETATM   13  N2  UNL     1      31.049   7.895  48.080  1.00  0.00    -0.334 N 
HETATM   14  H16 UNL     1      31.090   8.910  48.303  1.00  0.00     0.173 HD
BRANCH  13  15
HETATM   15  C13 UNL     1      32.087   7.017  47.664  1.00  0.00     0.039 A 
HETATM   16  C14 UNL     1      32.052   6.525  46.377  1.00  0.00     0.033 A 
HETATM   17  C15 UNL     1      33.076   5.660  45.966  1.00  0.00     0.046 A 
HETATM   18  C16 UNL     1      34.108   5.288  46.801  1.00  0.00     0.138 A 
HETATM   19  F1  UNL     1      35.094   4.453  46.398  1.00  0.00    -0.204 F 
HETATM   20  C17 UNL     1      34.073   5.815  48.054  1.00  0.00     0.074 A 
HETATM   21 CL1  UNL     1      35.333   5.431  49.239  1.00  0.00    -0.081 Cl
HETATM   22  C18 UNL     1      33.111   6.655  48.508  1.00  0.00     0.057 A 
ENDBRANCH  13  15
ENDBRANCH   6  13
BRANCH   1  23
HETATM   23  O2  UNL     1      25.006   6.465  50.479  1.00  0.00    -0.377 OA
BRANCH  23  24
HETATM   24  C7  UNL     1      23.715   6.171  50.797  1.00  0.00     0.188 C 
BRANCH  24  25
HETATM   25  C6  UNL     1      23.647   5.161  51.956  1.00  0.00     0.149 C 
BRANCH  25  26
HETATM   26  N1  UNL     1      23.338   3.868  51.444  1.00  0.00    -0.379 N 
HETATM   27  C2  UNL     1      23.614   2.693  52.224  1.00  0.00     0.021 C 
HETATM   28  C1  UNL     1      24.564   2.695  53.177  1.00  0.00     0.040 C 
HETATM   29  C3  UNL     1      22.968   1.359  52.156  1.00  0.00     0.223 C 
HETATM   30  O1  UNL     1      22.179   1.322  51.012  1.00  0.00    -0.384 OA
HETATM   31  C4  UNL     1      22.829   1.981  49.996  1.00  0.00     0.187 C 
HETATM   32  C5  UNL     1      22.745   3.506  50.170  1.00  0.00     0.149 C 
ENDBRANCH  25  26
ENDBRANCH  24  25
ENDBRANCH  23  24
ENDBRANCH   1  23
TORSDOF 7
ENDMDL
MODEL 8
REMARK VINA RESULT:      -7.5      6.731     10.074
REMARK  7 active torsions:
REMARK  status: ('A' for Active; 'I' for Inactive)
REMARK    1  A    between atoms: N1_7  and  C6_8 
REMARK    2  A    between atoms: C6_8  and  C7_9 
REMARK    3  A    between atoms: C7_9  and  O2_10 
REMARK    4  A    between atoms: O2_10  and  C8_11 
REMARK    5  A    between atoms: C12_15  and  S1_16 
REMARK    6  A    between atoms: S1_16  and  N2_17 
REMARK    7  A    between atoms: N2_17  and  C13_18 
ROOT
HETATM    1  C8  UNL     1      21.008  -0.861  53.739  1.00  0.00     0.082 A 
HETATM    2  C9  UNL     1      21.437  -0.096  54.953  1.00  0.00     0.048 C 
HETATM    3  C10 UNL     1      19.893  -0.924  53.405  1.00  0.00     0.020 A 
HETATM    4  C11 UNL     1      18.804  -0.956  53.067  1.00  0.00     0.008 A 
HETATM    5  C12 UNL     1      17.331  -0.961  52.597  1.00  0.00     0.056 A 
HETATM    6  S1  UNL     1      17.429   0.688  52.005  1.00  0.00    -0.072 SA
HETATM    7  C19 UNL     1      19.109   1.393  52.278  1.00  0.00     0.083 A 
HETATM    8  C20 UNL     1      19.623   2.825  51.910  1.00  0.00     0.104 C 
HETATM    9  N3  UNL     1      19.987   3.890  51.628  1.00  0.00    -0.191 NA
HETATM   10  C21 UNL     1      20.252   0.769  52.877  1.00  0.00     0.070 A 
HETATM   11  N4  UNL     1      18.896   0.099  52.700  1.00  0.00     0.000 N 
HETATM   12  C22 UNL     1      18.506  -1.229  53.076  1.00  0.00     0.033 A 
ENDROOT
BRANCH   6  13
HETATM   13  N2  UNL     1      16.148   1.579  51.067  1.00  0.00    -0.334 N 
HETATM   14  H16 UNL     1      16.173   1.419  50.040  1.00  0.00     0.173 HD
BRANCH  13  15
HETATM   15  C13 UNL     1      15.263   2.383  51.837  1.00  0.00     0.039 A 
HETATM   16  C14 UNL     1      15.757   3.535  52.409  1.00  0.00     0.033 A 
HETATM   17  C15 UNL     1      14.885   4.328  53.167  1.00  0.00     0.046 A 
HETATM   18  C16 UNL     1      13.560   3.996  53.357  1.00  0.00     0.138 A 
HETATM   19  F1  UNL     1      12.723   4.767  54.090  1.00  0.00    -0.204 F 
HETATM   20  C17 UNL     1      13.148   2.846  52.761  1.00  0.00     0.074 A 
HETATM   21 CL1  UNL     1      11.473   2.290  52.912  1.00  0.00    -0.081 Cl
HETATM   22  C18 UNL     1      13.944   2.038  52.017  1.00  0.00     0.057 A 
ENDBRANCH  13  15
ENDBRANCH   6  13
BRANCH   1  23
HETATM   23  O2  UNL     1      22.072  -0.854  52.886  1.00  0.00    -0.377 OA
BRANCH  23  24
HETATM   24  C7  UNL     1      23.287  -0.790  53.498  1.00  0.00     0.188 C 
BRANCH  24  25
HETATM   25  C6  UNL     1      24.205   0.227  52.798  1.00  0.00     0.149 C 
BRANCH  25  26
HETATM   26  N1  UNL     1      25.566  -0.088  53.078  1.00  0.00    -0.379 N 
HETATM   27  C2  UNL     1      26.382   0.824  53.831  1.00  0.00     0.021 C 
HETATM   28  C1  UNL     1      26.102   2.140  53.872  1.00  0.00     0.040 C 
HETATM   29  C3  UNL     1      27.588   0.537  54.647  1.00  0.00     0.223 C 
HETATM   30  O1  UNL     1      27.984  -0.768  54.383  1.00  0.00    -0.384 OA
HETATM   31  C4  UNL     1      27.808  -1.030  53.045  1.00  0.00     0.187 C 
HETATM   32  C5  UNL     1      26.328  -1.266  52.707  1.00  0.00     0.149 C 
ENDBRANCH  25  26
ENDBRANCH  24  25
ENDBRANCH  23  24
ENDBRANCH   1  23
TORSDOF 7
ENDMDL
MODEL 9
REMARK VINA RESULT:      -7.4      6.334      9.567
REMARK  7 active torsions:
REMARK  status: ('A' for Active; 'I' for Inactive)
REMARK    1  A    between atoms: N1_7  and  C6_8 
REMARK    2  A    between atoms: C6_8  and  C7_9 
REMARK    3  A    between atoms: C7_9  and  O2_10 
REMARK    4  A    between atoms: O2_10  and  C8_11 
REMARK    5  A    between atoms: C12_15  and  S1_16 
REMARK    6  A    between atoms: S1_16  and  N2_17 
REMARK    7  A    between atoms: N2_17  and  C13_18 
ROOT
HETATM    1  C8  UNL     1      31.108   6.900  48.237  1.00  0.00     0.082 A 
HETATM    2  C9  UNL     1      31.804   7.412  49.460  1.00  0.00     0.048 C 
HETATM    3  C10 UNL     1      30.089   6.336  48.292  1.00  0.00     0.020 A 
HETATM    4  C11 UNL     1      29.079   5.811  48.349  1.00  0.00     0.008 A 
HETATM    5  C12 UNL     1      27.690   5.136  48.435  1.00  0.00     0.056 A 
HETATM    6  S1  UNL     1      26.876   6.661  48.738  1.00  0.00    -0.072 SA
HETATM    7  C19 UNL     1      28.076   8.059  48.770  1.00  0.00     0.083 A 
HETATM    8  C20 UNL     1      27.779   9.576  49.015  1.00  0.00     0.104 C 
HETATM    9  N3  UNL     1      27.539  10.697  49.195  1.00  0.00    -0.191 NA
HETATM   10  C21 UNL     1      29.496   8.020  48.584  1.00  0.00     0.070 A 
HETATM   11  N4  UNL     1      28.587   6.800  48.542  1.00  0.00     0.000 N 
HETATM   12  C22 UNL     1      28.947   5.431  48.317  1.00  0.00     0.033 A 
ENDROOT
BRANCH   6  13
HETATM   13  N2  UNL     1      25.078   6.928  48.826  1.00  0.00    -0.334 N 
HETATM   14  H16 UNL     1      24.760   7.854  48.474  1.00  0.00     0.173 HD
BRANCH  13  15
HETATM   15  C13 UNL     1      24.317   5.852  49.359  1.00  0.00     0.039 A 
HETATM   16  C14 UNL     1      23.580   5.078  48.490  1.00  0.00     0.033 A 
HETATM   17  C15 UNL     1      22.830   4.016  49.015  1.00  0.00     0.046 A 
HETATM   18  C16 UNL     1      22.805   3.725  50.363  1.00  0.00     0.138 A 
HETATM   19  F1  UNL     1      22.080   2.698  50.864  1.00  0.00    -0.204 F 
HETATM   20  C17 UNL     1      23.558   4.534  51.155  1.00  0.00     0.074 A 
HETATM   21 CL1  UNL     1      23.629   4.282  52.907  1.00  0.00    -0.081 Cl
HETATM   22  C18 UNL     1      24.303   5.574  50.706  1.00  0.00     0.057 A 
ENDBRANCH  13  15
ENDBRANCH   6  13
BRANCH   1  23
HETATM   23  O2  UNL     1      31.489   7.713  47.211  1.00  0.00    -0.377 OA
BRANCH  23  24
HETATM   24  C7  UNL     1      32.016   7.060  46.138  1.00  0.00     0.188 C 
BRANCH  24  25
HETATM   25  C6  UNL     1      33.553   7.128  46.151  1.00  0.00     0.149 C 
BRANCH  25  26
HETATM   26  N1  UNL     1      34.087   5.811  46.249  1.00  0.00    -0.379 N 
HETATM   27  C2  UNL     1      34.651   5.347  47.487  1.00  0.00     0.021 C 
HETATM   28  C1  UNL     1      35.140   6.209  48.397  1.00  0.00     0.040 C 
HETATM   29  C3  UNL     1      34.797   3.955  47.979  1.00  0.00     0.223 C 
HETATM   30  O1  UNL     1      34.514   3.095  46.924  1.00  0.00    -0.384 OA
HETATM   31  C4  UNL     1      35.030   3.622  45.763  1.00  0.00     0.187 C 
HETATM   32  C5  UNL     1      34.163   4.776  45.235  1.00  0.00     0.149 C 
ENDBRANCH  25  26
ENDBRANCH  24  25
ENDBRANCH  23  24
ENDBRANCH   1  23
TORSDOF 7
ENDMDL
