MODEL 1
REMARK VINA RESULT:      -9.5      0.000      0.000
REMARK  6 active torsions:
REMARK  status: ('A' for Active; 'I' for Inactive)
REMARK    1  A    between atoms: N1_7  and  C6_8 
REMARK    2  A    between atoms: C6_8  and  O2_9 
REMARK    3  A    between atoms: O2_9  and  C7_10 
REMARK       I    between atoms: C7_10  and  N2_12 
REMARK    4  A    between atoms: N2_12  and  C8_13 
REMARK    5  A    between atoms: C15_22  and  N5_23 
REMARK    6  A    between atoms: N5_23  and  C16_24 
ROOT
HETATM    1  C8  UNL     1      24.558   3.469  50.550  1.00  0.00     0.037 A 
HETATM    2  C9  UNL     1      23.625   3.410  49.537  1.00  0.00     0.032 A 
HETATM    3  C10 UNL     1      22.629   2.467  49.670  1.00  0.00     0.035 A 
HETATM    4  C11 UNL     1      22.548   1.624  50.739  1.00  0.00     0.069 A 
HETATM    5  N3  UNL     1      21.545   0.716  50.816  1.00  0.00    -0.259 NA
HETATM    6  C12 UNL     1      21.513  -0.096  51.898  1.00  0.00     0.142 A 
HETATM    7  C13 UNL     1      22.448  -0.041  52.921  1.00  0.00     0.089 A 
HETATM    8  C14 UNL     1      22.355  -0.944  54.058  1.00  0.00     0.103 C 
HETATM    9  N4  UNL     1      22.289  -1.648  54.974  1.00  0.00    -0.191 NA
HETATM   10  C15 UNL     1      23.445   0.903  52.789  1.00  0.00     0.067 A 
HETATM   11  C22 UNL     1      23.518   1.749  51.706  1.00  0.00     0.023 A 
HETATM   12  C23 UNL     1      24.560   2.650  51.684  1.00  0.00     0.045 A 
ENDROOT
BRANCH  10  13
HETATM   13  N5  UNL     1      24.378   0.904  53.880  1.00  0.00    -0.354 N 
HETATM   14  H15 UNL     1      24.159   1.291  54.807  1.00  0.00     0.166 HD
BRANCH  13  15
HETATM   15  C16 UNL     1      25.660   0.337  53.648  1.00  0.00     0.034 A 
HETATM   16  C17 UNL     1      25.848  -0.874  52.999  1.00  0.00     0.032 A 
HETATM   17  C18 UNL     1      27.133  -1.343  52.817  1.00  0.00     0.046 A 
HETATM   18  C19 UNL     1      28.258  -0.682  53.244  1.00  0.00     0.138 A 
HETATM   19  F1  UNL     1      29.526  -1.093  53.092  1.00  0.00    -0.204 F 
HETATM   20  C20 UNL     1      28.105   0.523  53.890  1.00  0.00     0.074 A 
HETATM   21 CL1  UNL     1      29.415   1.514  54.504  1.00  0.00    -0.081 Cl
HETATM   22  C21 UNL     1      26.812   0.999  54.075  1.00  0.00     0.056 A 
ENDBRANCH  13  15
ENDBRANCH  10  13
BRANCH   1  23
HETATM   23  N2  UNL     1      25.597   4.458  50.404  1.00  0.00    -0.303 N 
HETATM   24  C7  UNL     1      26.709   3.968  49.699  1.00  0.00     0.366 C 
HETATM   25  O3  UNL     1      26.613   2.784  49.327  1.00  0.00    -0.238 OA
HETATM   26  H11 UNL     1      25.602   5.461  50.757  1.00  0.00     0.171 HD
BRANCH  24  27
HETATM   27  O2  UNL     1      27.846   4.728  49.424  1.00  0.00    -0.284 OA
BRANCH  27  28
HETATM   28  C6  UNL     1      27.946   5.464  48.192  1.00  0.00     0.305 C 
BRANCH  28  29
HETATM   29  N1  UNL     1      27.926   6.883  48.444  1.00  0.00    -0.359 N 
HETATM   30  C2  UNL     1      29.092   7.684  48.350  1.00  0.00     0.023 C 
HETATM   31  C1  UNL     1      30.061   7.391  47.496  1.00  0.00     0.040 C 
HETATM   32  C3  UNL     1      29.143   8.862  49.280  1.00  0.00     0.223 C 
HETATM   33  O1  UNL     1      27.861   9.455  49.328  1.00  0.00    -0.384 OA
HETATM   34  C4  UNL     1      27.009   8.522  49.910  1.00  0.00     0.188 C 
HETATM   35  C5  UNL     1      26.651   7.515  48.813  1.00  0.00     0.151 C 
ENDBRANCH  28  29
ENDBRANCH  27  28
ENDBRANCH  24  27
ENDBRANCH   1  23
TORSDOF 6
ENDMDL
MODEL 2
REMARK VINA RESULT:      -9.2      5.009      8.003
REMARK  6 active torsions:
REMARK  status: ('A' for Active; 'I' for Inactive)
REMARK    1  A    between atoms: N1_7  and  C6_8 
REMARK    2  A    between atoms: C6_8  and  O2_9 
REMARK    3  A    between atoms: O2_9  and  C7_10 
REMARK       I    between atoms: C7_10  and  N2_12 
REMARK    4  A    between atoms: N2_12  and  C8_13 
REMARK    5  A    between atoms: C15_22  and  N5_23 
REMARK    6  A    between atoms: N5_23  and  C16_24 
ROOT
HETATM    1  C8  UNL     1      22.296  -1.030  53.723  1.00  0.00     0.037 A 
HETATM    2  C9  UNL     1      22.488  -1.635  54.946  1.00  0.00     0.032 A 
HETATM    3  C10 UNL     1      23.713  -1.438  55.546  1.00  0.00     0.035 A 
HETATM    4  C11 UNL     1      24.700  -0.687  54.980  1.00  0.00     0.069 A 
HETATM    5  N3  UNL     1      25.886  -0.527  55.617  1.00  0.00    -0.259 NA
HETATM    6  C12 UNL     1      26.830   0.227  55.008  1.00  0.00     0.142 A 
HETATM    7  C13 UNL     1      26.643   0.838  53.778  1.00  0.00     0.089 A 
HETATM    8  C14 UNL     1      27.701   1.638  53.179  1.00  0.00     0.103 C 
HETATM    9  N4  UNL     1      28.529   2.285  52.695  1.00  0.00    -0.191 NA
HETATM   10  C15 UNL     1      25.417   0.642  53.177  1.00  0.00     0.067 A 
HETATM   11  C22 UNL     1      24.427  -0.117  53.757  1.00  0.00     0.023 A 
HETATM   12  C23 UNL     1      23.244  -0.243  53.062  1.00  0.00     0.045 A 
ENDROOT
BRANCH  10  13
HETATM   13  N5  UNL     1      25.291   1.300  51.908  1.00  0.00    -0.354 N 
HETATM   14  H15 UNL     1      25.702   0.932  51.040  1.00  0.00     0.166 HD
BRANCH  13  15
HETATM   15  C16 UNL     1      24.560   2.518  51.869  1.00  0.00     0.034 A 
HETATM   16  C17 UNL     1      24.264   3.261  53.001  1.00  0.00     0.032 A 
HETATM   17  C18 UNL     1      23.550   4.434  52.863  1.00  0.00     0.046 A 
HETATM   18  C19 UNL     1      23.104   4.923  51.661  1.00  0.00     0.138 A 
HETATM   19  F1  UNL     1      22.409   6.055  51.474  1.00  0.00    -0.204 F 
HETATM   20  C20 UNL     1      23.383   4.209  50.519  1.00  0.00     0.074 A 
HETATM   21 CL1  UNL     1      22.904   4.671  48.896  1.00  0.00    -0.081 Cl
HETATM   22  C21 UNL     1      24.102   3.028  50.653  1.00  0.00     0.056 A 
ENDBRANCH  13  15
ENDBRANCH  10  13
BRANCH   1  23
HETATM   23  N2  UNL     1      21.012  -1.241  53.102  1.00  0.00    -0.303 N 
HETATM   24  C7  UNL     1      20.077  -0.253  53.452  1.00  0.00     0.366 C 
HETATM   25  O3  UNL     1      20.505   0.623  54.225  1.00  0.00    -0.238 OA
HETATM   26  H11 UNL     1      20.722  -2.026  52.445  1.00  0.00     0.171 HD
BRANCH  24  27
HETATM   27  O2  UNL     1      18.763  -0.230  52.983  1.00  0.00    -0.284 OA
BRANCH  27  28
HETATM   28  C6  UNL     1      18.499  -0.163  51.570  1.00  0.00     0.305 C 
BRANCH  28  29
HETATM   29  N1  UNL     1      18.533   1.203  51.111  1.00  0.00    -0.359 N 
HETATM   30  C2  UNL     1      19.734   1.828  50.689  1.00  0.00     0.023 C 
HETATM   31  C1  UNL     1      20.706   1.135  50.116  1.00  0.00     0.040 C 
HETATM   32  C3  UNL     1      19.815   3.306  50.941  1.00  0.00     0.223 C 
HETATM   33  O1  UNL     1      18.558   3.884  50.652  1.00  0.00    -0.384 OA
HETATM   34  C4  UNL     1      17.657   3.368  51.577  1.00  0.00     0.188 C 
HETATM   35  C5  UNL     1      17.279   1.969  51.084  1.00  0.00     0.151 C 
ENDBRANCH  28  29
ENDBRANCH  27  28
ENDBRANCH  24  27
ENDBRANCH   1  23
TORSDOF 6
ENDMDL
MODEL 3
REMARK VINA RESULT:      -9.1      1.650      2.100
REMARK  6 active torsions:
REMARK  status: ('A' for Active; 'I' for Inactive)
REMARK    1  A    between atoms: N1_7  and  C6_8 
REMARK    2  A    between atoms: C6_8  and  O2_9 
REMARK    3  A    between atoms: O2_9  and  C7_10 
REMARK       I    between atoms: C7_10  and  N2_12 
REMARK    4  A    between atoms: N2_12  and  C8_13 
REMARK    5  A    between atoms: C15_22  and  N5_23 
REMARK    6  A    between atoms: N5_23  and  C16_24 
ROOT
HETATM    1  C8  UNL     1      24.203   3.390  50.012  1.00  0.00     0.037 A 
HETATM    2  C9  UNL     1      23.327   3.183  48.968  1.00  0.00     0.032 A 
HETATM    3  C10 UNL     1      22.370   2.208  49.150  1.00  0.00     0.035 A 
HETATM    4  C11 UNL     1      22.274   1.472  50.294  1.00  0.00     0.069 A 
HETATM    5  N3  UNL     1      21.312   0.526  50.417  1.00  0.00    -0.259 NA
HETATM    6  C12 UNL     1      21.263  -0.175  51.574  1.00  0.00     0.142 A 
HETATM    7  C13 UNL     1      22.142   0.028  52.627  1.00  0.00     0.089 A 
HETATM    8  C14 UNL     1      22.034  -0.761  53.845  1.00  0.00     0.103 C 
HETATM    9  N4  UNL     1      21.953  -1.373  54.823  1.00  0.00    -0.191 NA
HETATM   10  C15 UNL     1      23.099   1.005  52.446  1.00  0.00     0.067 A 
HETATM   11  C22 UNL     1      23.188   1.742  51.288  1.00  0.00     0.023 A 
HETATM   12  C23 UNL     1      24.186   2.689  51.222  1.00  0.00     0.045 A 
ENDROOT
BRANCH  10  13
HETATM   13  N5  UNL     1      23.974   1.162  53.573  1.00  0.00    -0.354 N 
HETATM   14  H15 UNL     1      23.679   1.592  54.458  1.00  0.00     0.166 HD
BRANCH  13  15
HETATM   15  C16 UNL     1      25.309   0.692  53.438  1.00  0.00     0.034 A 
HETATM   16  C17 UNL     1      25.622  -0.609  53.077  1.00  0.00     0.032 A 
HETATM   17  C18 UNL     1      26.949  -0.972  52.969  1.00  0.00     0.046 A 
HETATM   18  C19 UNL     1      27.998  -0.118  53.200  1.00  0.00     0.138 A 
HETATM   19  F1  UNL     1      29.302  -0.421  53.108  1.00  0.00    -0.204 F 
HETATM   20  C20 UNL     1      27.720   1.180  53.559  1.00  0.00     0.074 A 
HETATM   21 CL1  UNL     1      28.920   2.416  53.893  1.00  0.00    -0.081 Cl
HETATM   22  C21 UNL     1      26.385   1.550  53.669  1.00  0.00     0.056 A 
ENDBRANCH  13  15
ENDBRANCH  10  13
BRANCH   1  23
HETATM   23  N2  UNL     1      25.201   4.412  49.813  1.00  0.00    -0.303 N 
HETATM   24  C7  UNL     1      24.866   5.620  50.448  1.00  0.00     0.366 C 
HETATM   25  O3  UNL     1      23.784   5.606  51.063  1.00  0.00    -0.238 OA
HETATM   26  H11 UNL     1      26.110   4.344  49.266  1.00  0.00     0.171 HD
BRANCH  24  27
HETATM   27  O2  UNL     1      25.666   6.762  50.409  1.00  0.00    -0.284 OA
BRANCH  27  28
HETATM   28  C6  UNL     1      26.149   7.266  49.151  1.00  0.00     0.305 C 
BRANCH  28  29
HETATM   29  N1  UNL     1      26.305   8.698  49.202  1.00  0.00    -0.359 N 
HETATM   30  C2  UNL     1      25.388   9.580  48.576  1.00  0.00     0.023 C 
HETATM   31  C1  UNL     1      24.106   9.270  48.456  1.00  0.00     0.040 C 
HETATM   32  C3  UNL     1      25.974  10.866  48.067  1.00  0.00     0.223 C 
HETATM   33  O1  UNL     1      26.906  11.345  49.016  1.00  0.00    -0.384 OA
HETATM   34  C4  UNL     1      27.945  10.420  49.061  1.00  0.00     0.188 C 
HETATM   35  C5  UNL     1      27.455   9.256  49.927  1.00  0.00     0.151 C 
ENDBRANCH  28  29
ENDBRANCH  27  28
ENDBRANCH  24  27
ENDBRANCH   1  23
TORSDOF 6
ENDMDL
MODEL 4
REMARK VINA RESULT:      -8.9      4.365      6.907
REMARK  6 active torsions:
REMARK  status: ('A' for Active; 'I' for Inactive)
REMARK    1  A    between atoms: N1_7  and  C6_8 
REMARK    2  A    between atoms: C6_8  and  O2_9 
REMARK    3  A    between atoms: O2_9  and  C7_10 
REMARK       I    between atoms: C7_10  and  N2_12 
REMARK    4  A    between atoms: N2_12  and  C8_13 
REMARK    5  A    between atoms: C15_22  and  N5_23 
REMARK    6  A    between atoms: N5_23  and  C16_24 
ROOT
HETATM    1  C8  UNL     1      21.734  -0.595  54.348  1.00  0.00     0.037 A 
HETATM    2  C9  UNL     1      20.884  -1.673  54.227  1.00  0.00     0.032 A 
HETATM    3  C10 UNL     1      19.734  -1.473  53.495  1.00  0.00     0.035 A 
HETATM    4  C11 UNL     1      19.429  -0.279  52.910  1.00  0.00     0.069 A 
HETATM    5  N3  UNL     1      18.283  -0.140  52.201  1.00  0.00    -0.259 NA
HETATM    6  C12 UNL     1      18.030   1.067  51.643  1.00  0.00     0.142 A 
HETATM    7  C13 UNL     1      18.881   2.155  51.761  1.00  0.00     0.089 A 
HETATM    8  C14 UNL     1      18.549   3.426  51.135  1.00  0.00     0.103 C 
HETATM    9  N4  UNL     1      18.304   4.440  50.634  1.00  0.00    -0.191 NA
HETATM   10  C15 UNL     1      20.033   1.955  52.493  1.00  0.00     0.067 A 
HETATM   11  C22 UNL     1      20.331   0.747  53.079  1.00  0.00     0.023 A 
HETATM   12  C23 UNL     1      21.511   0.667  53.788  1.00  0.00     0.045 A 
ENDROOT
BRANCH  10  13
HETATM   13  N5  UNL     1      20.865   3.121  52.577  1.00  0.00    -0.354 N 
HETATM   14  H15 UNL     1      20.733   3.858  53.282  1.00  0.00     0.166 HD
BRANCH  13  15
HETATM   15  C16 UNL     1      21.919   3.245  51.631  1.00  0.00     0.034 A 
HETATM   16  C17 UNL     1      22.226   2.260  50.706  1.00  0.00     0.032 A 
HETATM   17  C18 UNL     1      23.268   2.472  49.824  1.00  0.00     0.046 A 
HETATM   18  C19 UNL     1      24.033   3.611  49.803  1.00  0.00     0.138 A 
HETATM   19  F1  UNL     1      25.053   3.865  48.969  1.00  0.00    -0.204 F 
HETATM   20  C20 UNL     1      23.753   4.607  50.709  1.00  0.00     0.074 A 
HETATM   21 CL1  UNL     1      24.614   6.130  50.836  1.00  0.00    -0.081 Cl
HETATM   22  C21 UNL     1      22.705   4.398  51.598  1.00  0.00     0.056 A 
ENDBRANCH  13  15
ENDBRANCH  10  13
BRANCH   1  23
HETATM   23  N2  UNL     1      22.935  -0.812  55.116  1.00  0.00    -0.303 N 
HETATM   24  C7  UNL     1      24.082  -0.885  54.308  1.00  0.00     0.366 C 
HETATM   25  O3  UNL     1      23.874  -0.752  53.089  1.00  0.00    -0.238 OA
HETATM   26  H11 UNL     1      23.029  -0.918  56.170  1.00  0.00     0.171 HD
BRANCH  24  27
HETATM   27  O2  UNL     1      25.368  -1.088  54.809  1.00  0.00    -0.284 OA
BRANCH  27  28
HETATM   28  C6  UNL     1      26.034  -0.045  55.543  1.00  0.00     0.305 C 
BRANCH  28  29
HETATM   29  N1  UNL     1      27.017   0.611  54.716  1.00  0.00    -0.359 N 
HETATM   30  C2  UNL     1      26.657   1.553  53.720  1.00  0.00     0.023 C 
HETATM   31  C1  UNL     1      25.593   2.329  53.858  1.00  0.00     0.040 C 
HETATM   32  C3  UNL     1      27.557   1.597  52.518  1.00  0.00     0.223 C 
HETATM   33  O1  UNL     1      28.897   1.479  52.953  1.00  0.00    -0.384 OA
HETATM   34  C4  UNL     1      29.029   0.210  53.507  1.00  0.00     0.188 C 
HETATM   35  C5  UNL     1      28.436   0.286  54.917  1.00  0.00     0.151 C 
ENDBRANCH  28  29
ENDBRANCH  27  28
ENDBRANCH  24  27
ENDBRANCH   1  23
TORSDOF 6
ENDMDL
MODEL 5
REMARK VINA RESULT:      -8.9      4.930      8.778
REMARK  6 active torsions:
REMARK  status: ('A' for Active; 'I' for Inactive)
REMARK    1  A    between atoms: N1_7  and  C6_8 
REMARK    2  A    between atoms: C6_8  and  O2_9 
REMARK    3  A    between atoms: O2_9  and  C7_10 
REMARK       I    between atoms: C7_10  and  N2_12 
REMARK    4  A    between atoms: N2_12  and  C8_13 
REMARK    5  A    between atoms: C15_22  and  N5_23 
REMARK    6  A    between atoms: N5_23  and  C16_24 
ROOT
HETATM    1  C8  UNL     1      20.545  -0.016  52.475  1.00  0.00     0.037 A 
HETATM    2  C9  UNL     1      19.939  -0.694  53.510  1.00  0.00     0.032 A 
HETATM    3  C10 UNL     1      20.766  -1.165  54.506  1.00  0.00     0.035 A 
HETATM    4  C11 UNL     1      22.118  -0.983  54.492  1.00  0.00     0.069 A 
HETATM    5  N3  UNL     1      22.882  -1.470  55.500  1.00  0.00    -0.259 NA
HETATM    6  C12 UNL     1      24.217  -1.261  55.434  1.00  0.00     0.142 A 
HETATM    7  C13 UNL     1      24.833  -0.580  54.395  1.00  0.00     0.089 A 
HETATM    8  C14 UNL     1      26.276  -0.390  54.386  1.00  0.00     0.103 C 
HETATM    9  N4  UNL     1      27.420  -0.222  54.370  1.00  0.00    -0.191 NA
HETATM   10  C15 UNL     1      24.006  -0.107  53.398  1.00  0.00     0.067 A 
HETATM   11  C22 UNL     1      22.643  -0.295  53.422  1.00  0.00     0.023 A 
HETATM   12  C23 UNL     1      21.919   0.222  52.369  1.00  0.00     0.045 A 
ENDROOT
BRANCH  10  13
HETATM   13  N5  UNL     1      24.707   0.586  52.355  1.00  0.00    -0.354 N 
HETATM   14  H15 UNL     1      25.405   0.133  51.750  1.00  0.00     0.166 HD
BRANCH  13  15
HETATM   15  C16 UNL     1      24.409   1.962  52.164  1.00  0.00     0.034 A 
HETATM   16  C17 UNL     1      24.261   2.858  53.211  1.00  0.00     0.032 A 
HETATM   17  C18 UNL     1      23.974   4.177  52.927  1.00  0.00     0.046 A 
HETATM   18  C19 UNL     1      23.819   4.671  51.656  1.00  0.00     0.138 A 
HETATM   19  F1  UNL     1      23.541   5.942  51.327  1.00  0.00    -0.204 F 
HETATM   20  C20 UNL     1      23.960   3.807  50.595  1.00  0.00     0.074 A 
HETATM   21 CL1  UNL     1      23.803   4.247  48.904  1.00  0.00    -0.081 Cl
HETATM   22  C21 UNL     1      24.251   2.478  50.877  1.00  0.00     0.056 A 
ENDBRANCH  13  15
ENDBRANCH  10  13
BRANCH   1  23
HETATM   23  N2  UNL     1      19.673   0.474  51.436  1.00  0.00    -0.303 N 
HETATM   24  C7  UNL     1      19.295   1.812  51.640  1.00  0.00     0.366 C 
HETATM   25  O3  UNL     1      19.766   2.340  52.663  1.00  0.00    -0.238 OA
HETATM   26  H11 UNL     1      19.310  -0.048  50.584  1.00  0.00     0.171 HD
BRANCH  24  27
HETATM   27  O2  UNL     1      18.457   2.518  50.777  1.00  0.00    -0.284 OA
BRANCH  27  28
HETATM   28  C6  UNL     1      17.154   2.003  50.448  1.00  0.00     0.305 C 
BRANCH  28  29
HETATM   29  N1  UNL     1      16.232   2.220  51.535  1.00  0.00    -0.359 N 
HETATM   30  C2  UNL     1      15.556   1.152  52.177  1.00  0.00     0.023 C 
HETATM   31  C1  UNL     1      16.111  -0.046  52.288  1.00  0.00     0.040 C 
HETATM   32  C3  UNL     1      14.189   1.478  52.705  1.00  0.00     0.223 C 
HETATM   33  O1  UNL     1      14.224   2.765  53.288  1.00  0.00    -0.384 OA
HETATM   34  C4  UNL     1      14.481   3.664  52.257  1.00  0.00     0.188 C 
HETATM   35  C5  UNL     1      15.986   3.597  51.986  1.00  0.00     0.151 C 
ENDBRANCH  28  29
ENDBRANCH  27  28
ENDBRANCH  24  27
ENDBRANCH   1  23
TORSDOF 6
ENDMDL
MODEL 6
REMARK VINA RESULT:      -8.5      4.242      6.267
REMARK  6 active torsions:
REMARK  status: ('A' for Active; 'I' for Inactive)
REMARK    1  A    between atoms: N1_7  and  C6_8 
REMARK    2  A    between atoms: C6_8  and  O2_9 
REMARK    3  A    between atoms: O2_9  and  C7_10 
REMARK       I    between atoms: C7_10  and  N2_12 
REMARK    4  A    between atoms: N2_12  and  C8_13 
REMARK    5  A    between atoms: C15_22  and  N5_23 
REMARK    6  A    between atoms: N5_23  and  C16_24 
ROOT
HETATM    1  C8  UNL     1      25.249   3.336  51.139  1.00  0.00     0.037 A 
HETATM    2  C9  UNL     1      26.486   2.764  50.938  1.00  0.00     0.032 A 
HETATM    3  C10 UNL     1      26.694   1.528  51.510  1.00  0.00     0.035 A 
HETATM    4  C11 UNL     1      25.742   0.883  52.243  1.00  0.00     0.069 A 
HETATM    5  N3  UNL     1      26.004  -0.332  52.783  1.00  0.00    -0.259 NA
HETATM    6  C12 UNL     1      25.022  -0.926  53.501  1.00  0.00     0.142 A 
HETATM    7  C13 UNL     1      23.776  -0.355  53.707  1.00  0.00     0.089 A 
HETATM    8  C14 UNL     1      22.764  -1.049  54.490  1.00  0.00     0.103 C 
HETATM    9  N4  UNL     1      21.946  -1.593  55.102  1.00  0.00    -0.191 NA
HETATM   10  C15 UNL     1      23.566   0.881  53.133  1.00  0.00     0.067 A 
HETATM   11  C22 UNL     1      24.533   1.524  52.396  1.00  0.00     0.023 A 
HETATM   12  C23 UNL     1      24.209   2.756  51.873  1.00  0.00     0.045 A 
ENDROOT
BRANCH  10  13
HETATM   13  N5  UNL     1      22.257   1.414  53.387  1.00  0.00    -0.354 N 
HETATM   14  H15 UNL     1      21.983   1.827  54.288  1.00  0.00     0.166 HD
BRANCH  13  15
HETATM   15  C16 UNL     1      21.309   1.359  52.330  1.00  0.00     0.034 A 
HETATM   16  C17 UNL     1      21.462   0.549  51.216  1.00  0.00     0.032 A 
HETATM   17  C18 UNL     1      20.486   0.561  50.241  1.00  0.00     0.046 A 
HETATM   18  C19 UNL     1      19.355   1.336  50.299  1.00  0.00     0.138 A 
HETATM   19  F1  UNL     1      18.378   1.384  49.380  1.00  0.00    -0.204 F 
HETATM   20  C20 UNL     1      19.173   2.150  51.392  1.00  0.00     0.074 A 
HETATM   21 CL1  UNL     1      17.797   3.207  51.648  1.00  0.00    -0.081 Cl
HETATM   22  C21 UNL     1      20.154   2.140  52.377  1.00  0.00     0.056 A 
ENDBRANCH  13  15
ENDBRANCH  10  13
BRANCH   1  23
HETATM   23  N2  UNL     1      25.038   4.629  50.537  1.00  0.00    -0.303 N 
HETATM   24  C7  UNL     1      24.401   4.542  49.287  1.00  0.00     0.366 C 
HETATM   25  O3  UNL     1      24.131   3.386  48.917  1.00  0.00    -0.238 OA
HETATM   26  H11 UNL     1      25.304   5.584  50.923  1.00  0.00     0.171 HD
BRANCH  24  27
HETATM   27  O2  UNL     1      24.085   5.651  48.503  1.00  0.00    -0.284 OA
BRANCH  27  28
HETATM   28  C6  UNL     1      22.747   6.181  48.502  1.00  0.00     0.305 C 
BRANCH  28  29
HETATM   29  N1  UNL     1      21.888   5.391  47.655  1.00  0.00    -0.359 N 
HETATM   30  C2  UNL     1      20.859   4.568  48.180  1.00  0.00     0.023 C 
HETATM   31  C1  UNL     1      20.221   4.891  49.295  1.00  0.00     0.040 C 
HETATM   32  C3  UNL     1      20.560   3.326  47.390  1.00  0.00     0.223 C 
HETATM   33  O1  UNL     1      20.600   3.645  46.014  1.00  0.00    -0.384 OA
HETATM   34  C4  UNL     1      21.914   3.999  45.722  1.00  0.00     0.188 C 
HETATM   35  C5  UNL     1      22.092   5.443  46.200  1.00  0.00     0.151 C 
ENDBRANCH  28  29
ENDBRANCH  27  28
ENDBRANCH  24  27
ENDBRANCH   1  23
TORSDOF 6
ENDMDL
MODEL 7
REMARK VINA RESULT:      -8.4      2.994      4.587
REMARK  6 active torsions:
REMARK  status: ('A' for Active; 'I' for Inactive)
REMARK    1  A    between atoms: N1_7  and  C6_8 
REMARK    2  A    between atoms: C6_8  and  O2_9 
REMARK    3  A    between atoms: O2_9  and  C7_10 
REMARK       I    between atoms: C7_10  and  N2_12 
REMARK    4  A    between atoms: N2_12  and  C8_13 
REMARK    5  A    between atoms: C15_22  and  N5_23 
REMARK    6  A    between atoms: N5_23  and  C16_24 
ROOT
HETATM    1  C8  UNL     1      26.197   2.552  51.542  1.00  0.00     0.037 A 
HETATM    2  C9  UNL     1      27.058   1.608  52.059  1.00  0.00     0.032 A 
HETATM    3  C10 UNL     1      26.481   0.537  52.707  1.00  0.00     0.035 A 
HETATM    4  C11 UNL     1      25.131   0.397  52.844  1.00  0.00     0.069 A 
HETATM    5  N3  UNL     1      24.621  -0.679  53.493  1.00  0.00    -0.259 NA
HETATM    6  C12 UNL     1      23.274  -0.767  53.600  1.00  0.00     0.142 A 
HETATM    7  C13 UNL     1      22.403   0.180  53.083  1.00  0.00     0.089 A 
HETATM    8  C14 UNL     1      20.964   0.023  53.233  1.00  0.00     0.103 C 
HETATM    9  N4  UNL     1      19.818  -0.093  53.335  1.00  0.00    -0.191 NA
HETATM   10  C15 UNL     1      22.980   1.251  52.432  1.00  0.00     0.067 A 
HETATM   11  C22 UNL     1      24.343   1.384  52.299  1.00  0.00     0.023 A 
HETATM   12  C23 UNL     1      24.802   2.497  51.630  1.00  0.00     0.045 A 
ENDROOT
BRANCH  10  13
HETATM   13  N5  UNL     1      22.023   2.192  51.924  1.00  0.00    -0.354 N 
HETATM   14  H15 UNL     1      21.406   2.749  52.529  1.00  0.00     0.166 HD
BRANCH  13  15
HETATM   15  C16 UNL     1      21.939   2.346  50.514  1.00  0.00     0.034 A 
HETATM   16  C17 UNL     1      21.810   1.278  49.640  1.00  0.00     0.032 A 
HETATM   17  C18 UNL     1      21.734   1.528  48.285  1.00  0.00     0.046 A 
HETATM   18  C19 UNL     1      21.780   2.784  47.733  1.00  0.00     0.138 A 
HETATM   19  F1  UNL     1      21.710   3.079  46.426  1.00  0.00    -0.204 F 
HETATM   20  C20 UNL     1      21.908   3.865  48.574  1.00  0.00     0.074 A 
HETATM   21 CL1  UNL     1      21.983   5.541  48.061  1.00  0.00    -0.081 Cl
HETATM   22  C21 UNL     1      21.984   3.618  49.939  1.00  0.00     0.056 A 
ENDBRANCH  13  15
ENDBRANCH  10  13
BRANCH   1  23
HETATM   23  N2  UNL     1      26.808   3.669  50.865  1.00  0.00    -0.303 N 
HETATM   24  C7  UNL     1      26.282   3.869  49.578  1.00  0.00     0.366 C 
HETATM   25  O3  UNL     1      25.394   3.064  49.244  1.00  0.00    -0.238 OA
HETATM   26  H11 UNL     1      27.572   4.315  51.224  1.00  0.00     0.171 HD
BRANCH  24  27
HETATM   27  O2  UNL     1      26.704   4.884  48.720  1.00  0.00    -0.284 OA
BRANCH  27  28
HETATM   28  C6  UNL     1      28.108   5.134  48.526  1.00  0.00     0.305 C 
BRANCH  28  29
HETATM   29  N1  UNL     1      28.360   6.548  48.396  1.00  0.00    -0.359 N 
HETATM   30  C2  UNL     1      29.664   7.067  48.194  1.00  0.00     0.023 C 
HETATM   31  C1  UNL     1      30.583   6.381  47.530  1.00  0.00     0.040 C 
HETATM   32  C3  UNL     1      29.917   8.424  48.784  1.00  0.00     0.223 C 
HETATM   33  O1  UNL     1      28.776   9.230  48.569  1.00  0.00    -0.384 OA
HETATM   34  C4  UNL     1      27.739   8.661  49.301  1.00  0.00     0.188 C 
HETATM   35  C5  UNL     1      27.224   7.476  48.480  1.00  0.00     0.151 C 
ENDBRANCH  28  29
ENDBRANCH  27  28
ENDBRANCH  24  27
ENDBRANCH   1  23
TORSDOF 6
ENDMDL
MODEL 8
REMARK VINA RESULT:      -8.4      3.360      8.955
REMARK  6 active torsions:
REMARK  status: ('A' for Active; 'I' for Inactive)
REMARK    1  A    between atoms: N1_7  and  C6_8 
REMARK    2  A    between atoms: C6_8  and  O2_9 
REMARK    3  A    between atoms: O2_9  and  C7_10 
REMARK       I    between atoms: C7_10  and  N2_12 
REMARK    4  A    between atoms: N2_12  and  C8_13 
REMARK    5  A    between atoms: C15_22  and  N5_23 
REMARK    6  A    between atoms: N5_23  and  C16_24 
ROOT
HETATM    1  C8  UNL     1      26.001   6.355  49.256  1.00  0.00     0.037 A 
HETATM    2  C9  UNL     1      25.028   6.728  48.355  1.00  0.00     0.032 A 
HETATM    3  C10 UNL     1      25.425   7.555  47.326  1.00  0.00     0.035 A 
HETATM    4  C11 UNL     1      26.708   7.995  47.186  1.00  0.00     0.069 A 
HETATM    5  N3  UNL     1      27.041   8.808  46.154  1.00  0.00    -0.259 NA
HETATM    6  C12 UNL     1      28.329   9.215  46.064  1.00  0.00     0.142 A 
HETATM    7  C13 UNL     1      29.312   8.843  46.968  1.00  0.00     0.089 A 
HETATM    8  C14 UNL     1      30.679   9.317  46.812  1.00  0.00     0.103 C 
HETATM    9  N4  UNL     1      31.772   9.677  46.695  1.00  0.00    -0.191 NA
HETATM   10  C15 UNL     1      28.915   8.015  47.997  1.00  0.00     0.067 A 
HETATM   11  C22 UNL     1      27.618   7.576  48.130  1.00  0.00     0.023 A 
HETATM   12  C23 UNL     1      27.341   6.752  49.199  1.00  0.00     0.045 A 
ENDROOT
BRANCH  10  13
HETATM   13  N5  UNL     1      29.981   7.670  48.895  1.00  0.00    -0.354 N 
HETATM   14  H15 UNL     1      30.134   8.146  49.794  1.00  0.00     0.166 HD
BRANCH  13  15
HETATM   15  C16 UNL     1      30.854   6.619  48.506  1.00  0.00     0.034 A 
HETATM   16  C17 UNL     1      30.431   5.505  47.799  1.00  0.00     0.032 A 
HETATM   17  C18 UNL     1      31.355   4.535  47.463  1.00  0.00     0.046 A 
HETATM   18  C19 UNL     1      32.686   4.601  47.788  1.00  0.00     0.138 A 
HETATM   19  F1  UNL     1      33.622   3.689  47.485  1.00  0.00    -0.204 F 
HETATM   20  C20 UNL     1      33.137   5.695  48.488  1.00  0.00     0.074 A 
HETATM   21 CL1  UNL     1      34.797   5.960  48.991  1.00  0.00    -0.081 Cl
HETATM   22  C21 UNL     1      32.211   6.673  48.828  1.00  0.00     0.056 A 
ENDBRANCH  13  15
ENDBRANCH  10  13
BRANCH   1  23
HETATM   23  N2  UNL     1      25.578   5.489  50.330  1.00  0.00    -0.303 N 
HETATM   24  C7  UNL     1      26.000   4.162  50.147  1.00  0.00     0.366 C 
HETATM   25  O3  UNL     1      26.657   3.959  49.110  1.00  0.00    -0.238 OA
HETATM   26  H11 UNL     1      25.010   5.744  51.192  1.00  0.00     0.171 HD
BRANCH  24  27
HETATM   27  O2  UNL     1      25.720   3.132  51.045  1.00  0.00    -0.284 OA
BRANCH  27  28
HETATM   28  C6  UNL     1      26.704   2.117  51.313  1.00  0.00     0.305 C 
BRANCH  28  29
HETATM   29  N1  UNL     1      26.544   1.593  52.647  1.00  0.00    -0.359 N 
HETATM   30  C2  UNL     1      27.619   1.530  53.568  1.00  0.00     0.023 C 
HETATM   31  C1  UNL     1      28.596   2.425  53.549  1.00  0.00     0.040 C 
HETATM   32  C3  UNL     1      27.568   0.389  54.543  1.00  0.00     0.223 C 
HETATM   33  O1  UNL     1      26.234   0.226  54.978  1.00  0.00    -0.384 OA
HETATM   34  C4  UNL     1      25.494  -0.164  53.866  1.00  0.00     0.188 C 
HETATM   35  C5  UNL     1      25.219   1.108  53.059  1.00  0.00     0.151 C 
ENDBRANCH  28  29
ENDBRANCH  27  28
ENDBRANCH  24  27
ENDBRANCH   1  23
TORSDOF 6
ENDMDL
MODEL 9
REMARK VINA RESULT:      -8.4      4.244      6.101
REMARK  6 active torsions:
REMARK  status: ('A' for Active; 'I' for Inactive)
REMARK    1  A    between atoms: N1_7  and  C6_8 
REMARK    2  A    between atoms: C6_8  and  O2_9 
REMARK    3  A    between atoms: O2_9  and  C7_10 
REMARK       I    between atoms: C7_10  and  N2_12 
REMARK    4  A    between atoms: N2_12  and  C8_13 
REMARK    5  A    between atoms: C15_22  and  N5_23 
REMARK    6  A    between atoms: N5_23  and  C16_24 
ROOT
HETATM    1  C8  UNL     1      19.872   0.385  51.128  1.00  0.00     0.037 A 
HETATM    2  C9  UNL     1      18.929  -0.131  51.990  1.00  0.00     0.032 A 
HETATM    3  C10 UNL     1      19.396  -0.639  53.183  1.00  0.00     0.035 A 
HETATM    4  C11 UNL     1      20.719  -0.641  53.517  1.00  0.00     0.069 A 
HETATM    5  N3  UNL     1      21.120  -1.155  54.706  1.00  0.00    -0.259 NA
HETATM    6  C12 UNL     1      22.444  -1.132  54.985  1.00  0.00     0.142 A 
HETATM    7  C13 UNL     1      23.398  -0.614  54.122  1.00  0.00     0.089 A 
HETATM    8  C14 UNL     1      24.807  -0.621  54.486  1.00  0.00     0.103 C 
HETATM    9  N4  UNL     1      25.930  -0.609  54.765  1.00  0.00    -0.191 NA
HETATM   10  C15 UNL     1      22.931  -0.105  52.928  1.00  0.00     0.067 A 
HETATM   11  C22 UNL     1      21.594  -0.107  52.600  1.00  0.00     0.023 A 
HETATM   12  C23 UNL     1      21.247   0.428  51.379  1.00  0.00     0.045 A 
ENDROOT
BRANCH  10  13
HETATM   13  N5  UNL     1      23.969   0.413  52.084  1.00  0.00    -0.354 N 
HETATM   14  H15 UNL     1      24.649  -0.186  51.597  1.00  0.00     0.166 HD
BRANCH  13  15
HETATM   15  C16 UNL     1      24.044   1.823  51.924  1.00  0.00     0.034 A 
HETATM   16  C17 UNL     1      23.374   2.715  52.745  1.00  0.00     0.032 A 
HETATM   17  C18 UNL     1      23.511   4.069  52.514  1.00  0.00     0.046 A 
HETATM   18  C19 UNL     1      24.277   4.601  51.507  1.00  0.00     0.138 A 
HETATM   19  F1  UNL     1      24.442   5.906  51.241  1.00  0.00    -0.204 F 
HETATM   20  C20 UNL     1      24.955   3.741  50.675  1.00  0.00     0.074 A 
HETATM   21 CL1  UNL     1      25.982   4.227  49.339  1.00  0.00    -0.081 Cl
HETATM   22  C21 UNL     1      24.821   2.377  50.905  1.00  0.00     0.056 A 
ENDBRANCH  13  15
ENDBRANCH  10  13
BRANCH   1  23
HETATM   23  N2  UNL     1      19.376   0.914  49.882  1.00  0.00    -0.303 N 
HETATM   24  C7  UNL     1      19.139   2.298  49.942  1.00  0.00     0.366 C 
HETATM   25  O3  UNL     1      19.393   2.825  51.041  1.00  0.00    -0.238 OA
HETATM   26  H11 UNL     1      19.182   0.389  48.977  1.00  0.00     0.171 HD
BRANCH  24  27
HETATM   27  O2  UNL     1      18.658   3.047  48.869  1.00  0.00    -0.284 OA
BRANCH  27  28
HETATM   28  C6  UNL     1      19.444   3.188  47.672  1.00  0.00     0.305 C 
BRANCH  28  29
HETATM   29  N1  UNL     1      20.399   4.259  47.813  1.00  0.00    -0.359 N 
HETATM   30  C2  UNL     1      21.660   4.237  47.166  1.00  0.00     0.023 C 
HETATM   31  C1  UNL     1      21.823   3.639  45.995  1.00  0.00     0.040 C 
HETATM   32  C3  UNL     1      22.774   4.927  47.899  1.00  0.00     0.223 C 
HETATM   33  O1  UNL     1      22.272   6.121  48.464  1.00  0.00    -0.384 OA
HETATM   34  C4  UNL     1      21.333   5.748  49.421  1.00  0.00     0.188 C 
HETATM   35  C5  UNL     1      20.048   5.408  48.660  1.00  0.00     0.151 C 
ENDBRANCH  28  29
ENDBRANCH  27  28
ENDBRANCH  24  27
ENDBRANCH   1  23
TORSDOF 6
ENDMDL
