MODEL 1
REMARK VINA RESULT:      -9.2      0.000      0.000
REMARK  3 active torsions:
REMARK  status: ('A' for Active; 'I' for Inactive)
REMARK    1  A    between atoms: C3_3  and  C4_4 
REMARK    2  A    between atoms: C11_13  and  C12_14 
REMARK    3  A    between atoms: C12_14  and  N2_15 
ROOT
HETATM    1  C1  UNL     1      26.623   6.514  48.566  1.00  0.00     0.017 C 
HETATM    2  C2  UNL     1      26.853   5.353  48.889  1.00  0.00    -0.089 C 
HETATM    3  C3  UNL     1      27.137   4.004  49.288  1.00  0.00     0.073 C 
ENDROOT
BRANCH   3   4
HETATM    4  C4  UNL     1      26.114   3.350  49.778  1.00  0.00    -0.020 C 
HETATM    5  C5  UNL     1      24.853   3.287  49.009  1.00  0.00     0.166 C 
HETATM    6  N1  UNL     1      23.949   3.334  50.203  1.00  0.00    -0.346 N 
HETATM    7  C6  UNL     1      24.688   2.609  51.361  1.00  0.00     0.053 C 
HETATM    8  C23 UNL     1      22.552   3.971  50.154  1.00  0.00     0.268 C 
HETATM    9  C7  UNL     1      23.695   2.170  52.289  1.00  0.00     0.124 A 
HETATM   10  C15 UNL     1      26.090   2.656  51.044  1.00  0.00    -0.006 C 
HETATM   11  C8  UNL     1      23.120   1.108  53.127  1.00  0.00     0.065 C 
HETATM   12  N3  UNL     1      22.698   3.348  52.313  1.00  0.00    -0.288 N 
HETATM   13  C21 UNL     1      22.315   2.128  51.567  1.00  0.00     0.123 A 
HETATM   14  C9  UNL     1      23.484  -0.173  53.548  1.00  0.00     0.090 C 
HETATM   15  C16 UNL     1      22.073   0.837  51.975  1.00  0.00    -0.036 A 
HETATM   16  S1  UNL     1      24.850  -0.630  54.565  1.00  0.00    -0.140 SA
HETATM   17  C10 UNL     1      26.495  -0.566  53.929  1.00  0.00     0.049 C 
HETATM   18  C11 UNL     1      27.409   0.198  53.322  1.00  0.00    -0.043 C 
HETATM   19  C13 UNL     1      27.040   1.528  52.983  1.00  0.00     0.064 C 
HETATM   20  C14 UNL     1      27.088   2.193  51.745  1.00  0.00    -0.008 C 
HETATM   21  C17 UNL     1      21.219   0.169  51.150  1.00  0.00     0.006 A 
HETATM   22  C18 UNL     1      20.666   0.727  50.021  1.00  0.00     0.001 A 
HETATM   23  C19 UNL     1      20.884   2.006  49.555  1.00  0.00     0.010 A 
HETATM   24  C20 UNL     1      21.748   2.680  50.392  1.00  0.00     0.004 A 
HETATM   25  C22 UNL     1      22.777   4.778  52.458  1.00  0.00     0.367 C 
HETATM   26  O1  UNL     1      23.270   5.280  53.491  1.00  0.00    -0.238 OA
HETATM   27  O2  UNL     1      22.151   4.861  51.144  1.00  0.00    -0.274 OA
BRANCH  18  28
HETATM   28  C12 UNL     1      28.764  -0.257  52.975  1.00  0.00     0.301 C 
BRANCH  28  29
HETATM   29  N2  UNL     1      29.794   0.612  53.556  1.00  0.00     0.082 N 
HETATM   30  H11 UNL     1      30.324   1.124  52.819  1.00  0.00     0.313 HD
HETATM   31  H12 UNL     1      30.475   0.072  54.125  1.00  0.00     0.313 HD
ENDBRANCH  28  29
ENDBRANCH  18  28
ENDBRANCH   3   4
TORSDOF 3
ENDMDL
MODEL 2
REMARK VINA RESULT:      -8.8      2.358      5.274
REMARK  3 active torsions:
REMARK  status: ('A' for Active; 'I' for Inactive)
REMARK    1  A    between atoms: C3_3  and  C4_4 
REMARK    2  A    between atoms: C11_13  and  C12_14 
REMARK    3  A    between atoms: C12_14  and  N2_15 
ROOT
HETATM    1  C1  UNL     1      17.957  -0.909  52.584  1.00  0.00     0.017 C 
HETATM    2  C2  UNL     1      19.004  -0.537  53.104  1.00  0.00    -0.089 C 
HETATM    3  C3  UNL     1      20.239  -0.125  53.708  1.00  0.00     0.073 C 
ENDROOT
BRANCH   3   4
HETATM    4  C4  UNL     1      20.859   0.843  53.079  1.00  0.00    -0.020 C 
HETATM    5  C5  UNL     1      20.128   2.085  52.753  1.00  0.00     0.166 C 
HETATM    6  N1  UNL     1      20.818   2.324  51.444  1.00  0.00    -0.346 N 
HETATM    7  C6  UNL     1      22.268   1.784  51.590  1.00  0.00     0.053 C 
HETATM    8  C23 UNL     1      20.127   3.022  50.264  1.00  0.00     0.268 C 
HETATM    9  C7  UNL     1      23.070   2.457  50.618  1.00  0.00     0.124 A 
HETATM   10  C15 UNL     1      22.240   0.819  52.656  1.00  0.00    -0.006 C 
HETATM   11  C8  UNL     1      24.290   3.202  50.272  1.00  0.00     0.065 C 
HETATM   12  N3  UNL     1      22.140   2.525  49.388  1.00  0.00    -0.288 N 
HETATM   13  C21 UNL     1      22.340   3.760  50.177  1.00  0.00     0.123 A 
HETATM   14  C9  UNL     1      25.506   3.512  50.883  1.00  0.00     0.090 C 
HETATM   15  C16 UNL     1      23.453   4.534  50.411  1.00  0.00    -0.036 A 
HETATM   16  S1  UNL     1      26.780   2.401  51.385  1.00  0.00    -0.140 SA
HETATM   17  C10 UNL     1      26.548   1.354  52.786  1.00  0.00     0.049 C 
HETATM   18  C11 UNL     1      25.752   0.446  53.359  1.00  0.00    -0.043 C 
HETATM   19  C13 UNL     1      24.561   0.082  52.673  1.00  0.00     0.064 C 
HETATM   20  C14 UNL     1      23.225   0.095  53.109  1.00  0.00    -0.008 C 
HETATM   21  C17 UNL     1      23.149   5.837  50.675  1.00  0.00     0.006 A 
HETATM   22  C18 UNL     1      21.863   6.322  50.714  1.00  0.00     0.001 A 
HETATM   23  C19 UNL     1      20.712   5.592  50.505  1.00  0.00     0.010 A 
HETATM   24  C20 UNL     1      21.022   4.275  50.237  1.00  0.00     0.004 A 
HETATM   25  C22 UNL     1      21.312   1.603  48.655  1.00  0.00     0.367 C 
HETATM   26  O1  UNL     1      21.817   0.594  48.117  1.00  0.00    -0.238 OA
HETATM   27  O2  UNL     1      20.193   2.476  48.987  1.00  0.00    -0.274 OA
BRANCH  18  28
HETATM   28  C12 UNL     1      26.026  -0.189  54.657  1.00  0.00     0.301 C 
BRANCH  28  29
HETATM   29  N2  UNL     1      27.465  -0.243  54.942  1.00  0.00     0.082 N 
HETATM   30  H11 UNL     1      27.672   0.039  55.924  1.00  0.00     0.313 HD
HETATM   31  H12 UNL     1      28.004   0.380  54.309  1.00  0.00     0.313 HD
ENDBRANCH  28  29
ENDBRANCH  18  28
ENDBRANCH   3   4
TORSDOF 3
ENDMDL
MODEL 3
REMARK VINA RESULT:      -7.7      1.979      3.492
REMARK  3 active torsions:
REMARK  status: ('A' for Active; 'I' for Inactive)
REMARK    1  A    between atoms: C3_3  and  C4_4 
REMARK    2  A    between atoms: C11_13  and  C12_14 
REMARK    3  A    between atoms: C12_14  and  N2_15 
ROOT
HETATM    1  C1  UNL     1      28.664  -0.186  53.429  1.00  0.00     0.017 C 
HETATM    2  C2  UNL     1      28.133   0.859  53.066  1.00  0.00    -0.089 C 
HETATM    3  C3  UNL     1      27.530   2.083  52.623  1.00  0.00     0.073 C 
ENDROOT
BRANCH   3   4
HETATM    4  C4  UNL     1      26.354   1.944  52.063  1.00  0.00    -0.020 C 
HETATM    5  C5  UNL     1      26.188   2.259  50.628  1.00  0.00     0.166 C 
HETATM    6  N1  UNL     1      24.801   2.812  50.758  1.00  0.00    -0.346 N 
HETATM    7  C6  UNL     1      24.105   2.029  51.905  1.00  0.00     0.053 C 
HETATM    8  C23 UNL     1      24.266   3.919  49.838  1.00  0.00     0.268 C 
HETATM    9  C7  UNL     1      22.696   2.134  51.696  1.00  0.00     0.124 A 
HETATM   10  C15 UNL     1      25.155   1.494  52.730  1.00  0.00    -0.006 C 
HETATM   11  C8  UNL     1      21.373   1.499  51.607  1.00  0.00     0.065 C 
HETATM   12  N3  UNL     1      22.524   3.594  51.225  1.00  0.00    -0.288 N 
HETATM   13  C21 UNL     1      22.435   2.521  50.210  1.00  0.00     0.123 A 
HETATM   14  C9  UNL     1      20.819   0.248  51.886  1.00  0.00     0.090 C 
HETATM   15  C16 UNL     1      21.542   1.489  50.036  1.00  0.00    -0.036 A 
HETATM   16  S1  UNL     1      20.679  -0.549  53.452  1.00  0.00    -0.140 SA
HETATM   17  C10 UNL     1      22.110  -1.204  54.250  1.00  0.00     0.049 C 
HETATM   18  C11 UNL     1      23.348  -0.939  54.677  1.00  0.00    -0.043 C 
HETATM   19  C13 UNL     1      23.856   0.371  54.458  1.00  0.00     0.064 C 
HETATM   20  C14 UNL     1      25.038   0.789  53.821  1.00  0.00    -0.008 C 
HETATM   21  C17 UNL     1      21.437   1.089  48.737  1.00  0.00     0.006 A 
HETATM   22  C18 UNL     1      22.159   1.652  47.711  1.00  0.00     0.001 A 
HETATM   23  C19 UNL     1      23.077   2.674  47.828  1.00  0.00     0.010 A 
HETATM   24  C20 UNL     1      23.181   3.078  49.142  1.00  0.00     0.004 A 
HETATM   25  C22 UNL     1      22.961   4.892  51.670  1.00  0.00     0.367 C 
HETATM   26  O1  UNL     1      22.647   5.306  52.807  1.00  0.00    -0.238 OA
HETATM   27  O2  UNL     1      23.613   5.023  50.372  1.00  0.00    -0.274 OA
BRANCH  18  28
HETATM   28  C12 UNL     1      24.217  -1.918  55.346  1.00  0.00     0.301 C 
BRANCH  28  29
HETATM   29  N2  UNL     1      24.915  -1.329  56.495  1.00  0.00     0.082 N 
HETATM   30  H11 UNL     1      25.408  -0.449  56.233  1.00  0.00     0.313 HD
HETATM   31  H12 UNL     1      25.616  -1.984  56.893  1.00  0.00     0.313 HD
ENDBRANCH  28  29
ENDBRANCH  18  28
ENDBRANCH   3   4
TORSDOF 3
ENDMDL
MODEL 4
REMARK VINA RESULT:      -7.6      6.209     10.709
REMARK  3 active torsions:
REMARK  status: ('A' for Active; 'I' for Inactive)
REMARK    1  A    between atoms: C3_3  and  C4_4 
REMARK    2  A    between atoms: C11_13  and  C12_14 
REMARK    3  A    between atoms: C12_14  and  N2_15 
ROOT
HETATM    1  C1  UNL     1      26.245   3.369  49.698  1.00  0.00     0.017 C 
HETATM    2  C2  UNL     1      26.348   4.542  49.355  1.00  0.00    -0.089 C 
HETATM    3  C3  UNL     1      26.473   5.921  48.977  1.00  0.00     0.073 C 
ENDROOT
BRANCH   3   4
HETATM    4  C4  UNL     1      27.532   6.199  48.259  1.00  0.00    -0.020 C 
HETATM    5  C5  UNL     1      28.677   5.264  48.258  1.00  0.00     0.166 C 
HETATM    6  N1  UNL     1      29.733   6.323  48.162  1.00  0.00    -0.346 N 
HETATM    7  C6  UNL     1      29.132   7.490  47.330  1.00  0.00     0.053 C 
HETATM    8  C23 UNL     1      31.129   6.152  48.779  1.00  0.00     0.268 C 
HETATM    9  C7  UNL     1      30.226   8.224  46.779  1.00  0.00     0.124 A 
HETATM   10  C15 UNL     1      27.703   7.372  47.433  1.00  0.00    -0.006 C 
HETATM   11  C8  UNL     1      30.875   8.863  45.625  1.00  0.00     0.065 C 
HETATM   12  N3  UNL     1      31.252   8.234  47.931  1.00  0.00    -0.288 N 
HETATM   13  C21 UNL     1      31.496   7.322  46.792  1.00  0.00     0.123 A 
HETATM   14  C9  UNL     1      30.531   9.195  44.313  1.00  0.00     0.090 C 
HETATM   15  C16 UNL     1      31.750   7.558  45.461  1.00  0.00    -0.036 A 
HETATM   16  S1  UNL     1      29.299  10.334  43.773  1.00  0.00    -0.140 SA
HETATM   17  C10 UNL     1      27.587   9.937  43.931  1.00  0.00     0.049 C 
HETATM   18  C11 UNL     1      26.624   9.542  44.769  1.00  0.00    -0.043 C 
HETATM   19  C13 UNL     1      26.984   9.294  46.122  1.00  0.00     0.064 C 
HETATM   20  C14 UNL     1      26.793   8.149  46.915  1.00  0.00    -0.008 C 
HETATM   21  C17 UNL     1      32.467   6.561  44.871  1.00  0.00     0.006 A 
HETATM   22  C18 UNL     1      32.882   5.430  45.537  1.00  0.00     0.001 A 
HETATM   23  C19 UNL     1      32.642   5.133  46.861  1.00  0.00     0.010 A 
HETATM   24  C20 UNL     1      31.918   6.144  47.456  1.00  0.00     0.004 A 
HETATM   25  C22 UNL     1      31.237   8.535  49.339  1.00  0.00     0.367 C 
HETATM   26  O1  UNL     1      30.902   9.673  49.736  1.00  0.00    -0.238 OA
HETATM   27  O2  UNL     1      31.686   7.165  49.551  1.00  0.00    -0.274 OA
BRANCH  18  28
HETATM   28  C12 UNL     1      25.222   9.336  44.376  1.00  0.00     0.301 C 
BRANCH  28  29
HETATM   29  N2  UNL     1      25.032   8.050  43.694  1.00  0.00     0.082 N 
HETATM   30  H11 UNL     1      24.516   8.166  42.796  1.00  0.00     0.313 HD
HETATM   31  H12 UNL     1      24.504   7.378  44.284  1.00  0.00     0.313 HD
ENDBRANCH  28  29
ENDBRANCH  18  28
ENDBRANCH   3   4
TORSDOF 3
ENDMDL
MODEL 5
REMARK VINA RESULT:      -7.5      6.532      9.533
REMARK  3 active torsions:
REMARK  status: ('A' for Active; 'I' for Inactive)
REMARK    1  A    between atoms: C3_3  and  C4_4 
REMARK    2  A    between atoms: C11_13  and  C12_14 
REMARK    3  A    between atoms: C12_14  and  N2_15 
ROOT
HETATM    1  C1  UNL     1      30.088  12.422  44.475  1.00  0.00     0.017 C 
HETATM    2  C2  UNL     1      29.631  11.344  44.110  1.00  0.00    -0.089 C 
HETATM    3  C3  UNL     1      29.116  10.079  43.668  1.00  0.00     0.073 C 
ENDROOT
BRANCH   3   4
HETATM    4  C4  UNL     1      29.061   9.156  44.596  1.00  0.00    -0.020 C 
HETATM    5  C5  UNL     1      27.788   8.914  45.307  1.00  0.00     0.166 C 
HETATM    6  N1  UNL     1      28.416   8.603  46.633  1.00  0.00    -0.346 N 
HETATM    7  C6  UNL     1      29.780   7.918  46.339  1.00  0.00     0.053 C 
HETATM    8  C23 UNL     1      27.722   8.914  47.966  1.00  0.00     0.268 C 
HETATM    9  C7  UNL     1      30.126   7.153  47.494  1.00  0.00     0.124 A 
HETATM   10  C15 UNL     1      30.160   8.317  45.011  1.00  0.00    -0.006 C 
HETATM   11  C8  UNL     1      30.585   5.890  48.092  1.00  0.00     0.065 C 
HETATM   12  N3  UNL     1      29.688   8.066  48.659  1.00  0.00    -0.288 N 
HETATM   13  C21 UNL     1      28.839   6.898  48.335  1.00  0.00     0.123 A 
HETATM   14  C9  UNL     1      31.116   4.680  47.642  1.00  0.00     0.090 C 
HETATM   15  C16 UNL     1      29.073   5.544  48.394  1.00  0.00    -0.036 A 
HETATM   16  S1  UNL     1      32.652   4.411  46.819  1.00  0.00    -0.140 SA
HETATM   17  C10 UNL     1      32.866   4.922  45.143  1.00  0.00     0.049 C 
HETATM   18  C11 UNL     1      32.768   5.942  44.285  1.00  0.00    -0.043 C 
HETATM   19  C13 UNL     1      32.308   7.189  44.788  1.00  0.00     0.064 C 
HETATM   20  C14 UNL     1      31.244   8.002  44.358  1.00  0.00    -0.008 C 
HETATM   21  C17 UNL     1      27.937   4.815  48.578  1.00  0.00     0.006 A 
HETATM   22  C18 UNL     1      26.685   5.376  48.681  1.00  0.00     0.001 A 
HETATM   23  C19 UNL     1      26.389   6.721  48.613  1.00  0.00     0.010 A 
HETATM   24  C20 UNL     1      27.541   7.457  48.428  1.00  0.00     0.004 A 
HETATM   25  C22 UNL     1      29.866   9.447  49.026  1.00  0.00     0.367 C 
HETATM   26  O1  UNL     1      31.015   9.908  49.202  1.00  0.00    -0.238 OA
HETATM   27  O2  UNL     1      28.413   9.557  48.987  1.00  0.00    -0.274 OA
BRANCH  18  28
HETATM   28  C12 UNL     1      33.096   5.849  42.854  1.00  0.00     0.301 C 
BRANCH  28  29
HETATM   29  N2  UNL     1      33.097   4.458  42.386  1.00  0.00     0.082 N 
HETATM   30  H11 UNL     1      33.919   4.260  41.776  1.00  0.00     0.313 HD
HETATM   31  H12 UNL     1      32.237   4.234  41.849  1.00  0.00     0.313 HD
ENDBRANCH  28  29
ENDBRANCH  18  28
ENDBRANCH   3   4
TORSDOF 3
ENDMDL
MODEL 6
REMARK VINA RESULT:      -7.5      2.722      4.758
REMARK  3 active torsions:
REMARK  status: ('A' for Active; 'I' for Inactive)
REMARK    1  A    between atoms: C3_3  and  C4_4 
REMARK    2  A    between atoms: C11_13  and  C12_14 
REMARK    3  A    between atoms: C12_14  and  N2_15 
ROOT
HETATM    1  C1  UNL     1      26.669   0.120  51.875  1.00  0.00     0.017 C 
HETATM    2  C2  UNL     1      26.306   1.278  51.697  1.00  0.00    -0.089 C 
HETATM    3  C3  UNL     1      25.902   2.637  51.472  1.00  0.00     0.073 C 
ENDROOT
BRANCH   3   4
HETATM    4  C4  UNL     1      24.783   2.773  50.804  1.00  0.00    -0.020 C 
HETATM    5  C5  UNL     1      24.825   3.230  49.399  1.00  0.00     0.166 C 
HETATM    6  N1  UNL     1      23.558   4.028  49.465  1.00  0.00    -0.346 N 
HETATM    7  C6  UNL     1      22.617   3.303  50.467  1.00  0.00     0.053 C 
HETATM    8  C23 UNL     1      23.333   5.288  48.617  1.00  0.00     0.268 C 
HETATM    9  C7  UNL     1      21.280   3.695  50.152  1.00  0.00     0.124 A 
HETATM   10  C15 UNL     1      23.461   2.510  51.320  1.00  0.00    -0.006 C 
HETATM   11  C8  UNL     1      19.879   3.336  49.889  1.00  0.00     0.065 C 
HETATM   12  N3  UNL     1      21.429   5.194  49.815  1.00  0.00    -0.288 N 
HETATM   13  C21 UNL     1      21.247   4.244  48.695  1.00  0.00     0.123 A 
HETATM   14  C9  UNL     1      19.078   2.197  49.995  1.00  0.00     0.090 C 
HETATM   15  C16 UNL     1      20.201   3.422  48.345  1.00  0.00    -0.036 A 
HETATM   16  S1  UNL     1      18.635   1.319  51.458  1.00  0.00    -0.140 SA
HETATM   17  C10 UNL     1      19.832   0.336  52.305  1.00  0.00     0.049 C 
HETATM   18  C11 UNL     1      21.048   0.323  52.858  1.00  0.00    -0.043 C 
HETATM   19  C13 UNL     1      21.809   1.523  52.814  1.00  0.00     0.064 C 
HETATM   20  C14 UNL     1      23.106   1.755  52.322  1.00  0.00    -0.008 C 
HETATM   21  C17 UNL     1      20.156   3.157  47.009  1.00  0.00     0.006 A 
HETATM   22  C18 UNL     1      21.070   3.651  46.107  1.00  0.00     0.001 A 
HETATM   23  C19 UNL     1      22.144   4.463  46.402  1.00  0.00     0.010 A 
HETATM   24  C20 UNL     1      22.187   4.731  47.754  1.00  0.00     0.004 A 
HETATM   25  C22 UNL     1      22.051   6.342  50.420  1.00  0.00     0.367 C 
HETATM   26  O1  UNL     1      21.705   6.716  51.562  1.00  0.00    -0.238 OA
HETATM   27  O2  UNL     1      22.843   6.451  49.202  1.00  0.00    -0.274 OA
BRANCH  18  28
HETATM   28  C12 UNL     1      21.649  -0.857  53.497  1.00  0.00     0.301 C 
BRANCH  28  29
HETATM   29  N2  UNL     1      20.737  -1.474  54.467  1.00  0.00     0.082 N 
HETATM   30  H11 UNL     1      21.157  -2.322  54.903  1.00  0.00     0.313 HD
HETATM   31  H12 UNL     1      19.839  -1.751  54.025  1.00  0.00     0.313 HD
ENDBRANCH  28  29
ENDBRANCH  18  28
ENDBRANCH   3   4
TORSDOF 3
ENDMDL
MODEL 7
REMARK VINA RESULT:      -7.5      3.310      6.535
REMARK  3 active torsions:
REMARK  status: ('A' for Active; 'I' for Inactive)
REMARK    1  A    between atoms: C3_3  and  C4_4 
REMARK    2  A    between atoms: C11_13  and  C12_14 
REMARK    3  A    between atoms: C12_14  and  N2_15 
ROOT
HETATM    1  C1  UNL     1      21.022   7.692  48.266  1.00  0.00     0.017 C 
HETATM    2  C2  UNL     1      21.164   7.380  49.444  1.00  0.00    -0.089 C 
HETATM    3  C3  UNL     1      21.304   7.022  50.827  1.00  0.00     0.073 C 
ENDROOT
BRANCH   3   4
HETATM    4  C4  UNL     1      21.463   5.741  51.048  1.00  0.00    -0.020 C 
HETATM    5  C5  UNL     1      22.749   5.249  51.588  1.00  0.00     0.166 C 
HETATM    6  N1  UNL     1      22.748   3.961  50.822  1.00  0.00    -0.346 N 
HETATM    7  C6  UNL     1      21.264   3.527  50.666  1.00  0.00     0.053 C 
HETATM    8  C23 UNL     1      24.043   3.271  50.367  1.00  0.00     0.268 C 
HETATM    9  C7  UNL     1      21.256   2.115  50.447  1.00  0.00     0.124 A 
HETATM   10  C15 UNL     1      20.472   4.718  50.810  1.00  0.00    -0.006 C 
HETATM   11  C8  UNL     1      20.726   0.782  50.768  1.00  0.00     0.065 C 
HETATM   12  N3  UNL     1      22.470   1.901  49.519  1.00  0.00    -0.288 N 
HETATM   13  C21 UNL     1      22.609   1.522  50.942  1.00  0.00     0.123 A 
HETATM   14  C9  UNL     1      19.666   0.255  51.509  1.00  0.00     0.090 C 
HETATM   15  C16 UNL     1      21.979   0.567  51.706  1.00  0.00    -0.036 A 
HETATM   16  S1  UNL     1      17.938   0.460  51.223  1.00  0.00    -0.140 SA
HETATM   17  C10 UNL     1      17.159   2.009  51.548  1.00  0.00     0.049 C 
HETATM   18  C11 UNL     1      17.190   3.324  51.314  1.00  0.00    -0.043 C 
HETATM   19  C13 UNL     1      18.230   3.825  50.484  1.00  0.00     0.064 C 
HETATM   20  C14 UNL     1      19.176   4.836  50.728  1.00  0.00    -0.008 C 
HETATM   21  C17 UNL     1      22.739   0.134  52.751  1.00  0.00     0.006 A 
HETATM   22  C18 UNL     1      24.001   0.612  53.019  1.00  0.00     0.001 A 
HETATM   23  C19 UNL     1      24.673   1.577  52.300  1.00  0.00     0.010 A 
HETATM   24  C20 UNL     1      23.903   2.013  51.243  1.00  0.00     0.004 A 
HETATM   25  C22 UNL     1      22.972   2.492  48.305  1.00  0.00     0.367 C 
HETATM   26  O1  UNL     1      22.277   2.480  47.266  1.00  0.00    -0.238 OA
HETATM   27  O2  UNL     1      24.176   2.817  49.060  1.00  0.00    -0.274 OA
BRANCH  18  28
HETATM   28  C12 UNL     1      16.224   4.284  51.871  1.00  0.00     0.301 C 
BRANCH  28  29
HETATM   29  N2  UNL     1      15.207   3.616  52.692  1.00  0.00     0.082 N 
HETATM   30  H11 UNL     1      14.603   4.305  53.188  1.00  0.00     0.313 HD
HETATM   31  H12 UNL     1      15.638   2.995  53.404  1.00  0.00     0.313 HD
ENDBRANCH  28  29
ENDBRANCH  18  28
ENDBRANCH   3   4
TORSDOF 3
ENDMDL
MODEL 8
REMARK VINA RESULT:      -7.4      3.210      5.748
REMARK  3 active torsions:
REMARK  status: ('A' for Active; 'I' for Inactive)
REMARK    1  A    between atoms: C3_3  and  C4_4 
REMARK    2  A    between atoms: C11_13  and  C12_14 
REMARK    3  A    between atoms: C12_14  and  N2_15 
ROOT
HETATM    1  C1  UNL     1      26.638  -0.115  52.044  1.00  0.00     0.017 C 
HETATM    2  C2  UNL     1      26.633   1.068  51.718  1.00  0.00    -0.089 C 
HETATM    3  C3  UNL     1      26.640   2.445  51.315  1.00  0.00     0.073 C 
ENDROOT
BRANCH   3   4
HETATM    4  C4  UNL     1      25.459   2.945  51.051  1.00  0.00    -0.020 C 
HETATM    5  C5  UNL     1      24.273   2.425  51.764  1.00  0.00     0.166 C 
HETATM    6  N1  UNL     1      23.333   2.556  50.604  1.00  0.00    -0.346 N 
HETATM    7  C6  UNL     1      23.797   3.790  49.781  1.00  0.00     0.053 C 
HETATM    8  C23 UNL     1      22.142   1.609  50.397  1.00  0.00     0.268 C 
HETATM    9  C7  UNL     1      22.670   4.250  49.035  1.00  0.00     0.124 A 
HETATM   10  C15 UNL     1      25.185   3.995  50.098  1.00  0.00    -0.006 C 
HETATM   11  C8  UNL     1      21.799   5.350  48.595  1.00  0.00     0.065 C 
HETATM   12  N3  UNL     1      21.993   2.937  48.586  1.00  0.00    -0.288 N 
HETATM   13  C21 UNL     1      21.371   3.696  49.693  1.00  0.00     0.123 A 
HETATM   14  C9  UNL     1      21.811   6.745  48.645  1.00  0.00     0.090 C 
HETATM   15  C16 UNL     1      20.794   4.944  49.744  1.00  0.00    -0.036 A 
HETATM   16  S1  UNL     1      22.955   7.846  47.880  1.00  0.00    -0.140 SA
HETATM   17  C10 UNL     1      24.603   7.989  48.496  1.00  0.00     0.049 C 
HETATM   18  C11 UNL     1      25.713   7.323  48.829  1.00  0.00    -0.043 C 
HETATM   19  C13 UNL     1      25.704   5.909  48.685  1.00  0.00     0.064 C 
HETATM   20  C14 UNL     1      25.992   4.902  49.622  1.00  0.00    -0.008 C 
HETATM   21  C17 UNL     1      19.855   5.057  50.726  1.00  0.00     0.006 A 
HETATM   22  C18 UNL     1      19.529   4.032  51.583  1.00  0.00     0.001 A 
HETATM   23  C19 UNL     1      20.084   2.770  51.590  1.00  0.00     0.010 A 
HETATM   24  C20 UNL     1      21.032   2.658  50.594  1.00  0.00     0.004 A 
HETATM   25  C22 UNL     1      22.411   1.708  47.964  1.00  0.00     0.367 C 
HETATM   26  O1  UNL     1      22.945   1.724  46.833  1.00  0.00    -0.238 OA
HETATM   27  O2  UNL     1      21.909   1.033  49.154  1.00  0.00    -0.274 OA
BRANCH  18  28
HETATM   28  C12 UNL     1      26.933   7.961  49.343  1.00  0.00     0.301 C 
BRANCH  28  29
HETATM   29  N2  UNL     1      26.763   8.423  50.726  1.00  0.00     0.082 N 
HETATM   30  H11 UNL     1      27.431   9.190  50.958  1.00  0.00     0.313 HD
HETATM   31  H12 UNL     1      26.908   7.653  51.408  1.00  0.00     0.313 HD
ENDBRANCH  28  29
ENDBRANCH  18  28
ENDBRANCH   3   4
TORSDOF 3
ENDMDL
MODEL 9
REMARK VINA RESULT:      -7.4      6.869     10.522
REMARK  3 active torsions:
REMARK  status: ('A' for Active; 'I' for Inactive)
REMARK    1  A    between atoms: C3_3  and  C4_4 
REMARK    2  A    between atoms: C11_13  and  C12_14 
REMARK    3  A    between atoms: C12_14  and  N2_15 
ROOT
HETATM    1  C1  UNL     1      24.906   6.232  48.578  1.00  0.00     0.017 C 
HETATM    2  C2  UNL     1      26.119   6.049  48.567  1.00  0.00    -0.089 C 
HETATM    3  C3  UNL     1      27.536   5.823  48.531  1.00  0.00     0.073 C 
ENDROOT
BRANCH   3   4
HETATM    4  C4  UNL     1      28.261   6.907  48.407  1.00  0.00    -0.020 C 
HETATM    5  C5  UNL     1      27.758   8.185  48.953  1.00  0.00     0.166 C 
HETATM    6  N1  UNL     1      28.331   9.045  47.867  1.00  0.00    -0.346 N 
HETATM    7  C6  UNL     1      29.652   8.371  47.404  1.00  0.00     0.053 C 
HETATM    8  C23 UNL     1      27.664  10.351  47.413  1.00  0.00     0.268 C 
HETATM    9  C7  UNL     1      30.458   9.387  46.804  1.00  0.00     0.124 A 
HETATM   10  C15 UNL     1      29.553   6.984  47.767  1.00  0.00    -0.006 C 
HETATM   11  C8  UNL     1      31.754  10.068  46.671  1.00  0.00     0.065 C 
HETATM   12  N3  UNL     1      29.428  10.228  46.020  1.00  0.00    -0.288 N 
HETATM   13  C21 UNL     1      29.955  10.780  47.288  1.00  0.00     0.123 A 
HETATM   14  C9  UNL     1      33.068   9.856  47.091  1.00  0.00     0.090 C 
HETATM   15  C16 UNL     1      31.218  11.171  47.668  1.00  0.00    -0.036 A 
HETATM   16  S1  UNL     1      34.145   8.532  46.650  1.00  0.00    -0.140 SA
HETATM   17  C10 UNL     1      33.869   6.909  47.286  1.00  0.00     0.049 C 
HETATM   18  C11 UNL     1      32.979   5.923  47.431  1.00  0.00    -0.043 C 
HETATM   19  C13 UNL     1      31.670   6.131  46.916  1.00  0.00     0.064 C 
HETATM   20  C14 UNL     1      30.420   6.034  47.552  1.00  0.00    -0.008 C 
HETATM   21  C17 UNL     1      31.210  12.124  48.642  1.00  0.00     0.006 A 
HETATM   22  C18 UNL     1      30.057  12.632  49.195  1.00  0.00     0.001 A 
HETATM   23  C19 UNL     1      28.769  12.267  48.866  1.00  0.00     0.010 A 
HETATM   24  C20 UNL     1      28.780  11.304  47.879  1.00  0.00     0.004 A 
HETATM   25  C22 UNL     1      28.357   9.967  45.094  1.00  0.00     0.367 C 
HETATM   26  O1  UNL     1      28.589   9.389  44.010  1.00  0.00    -0.238 OA
HETATM   27  O2  UNL     1      27.477  10.613  46.060  1.00  0.00    -0.274 OA
BRANCH  18  28
HETATM   28  C12 UNL     1      33.266   4.645  48.101  1.00  0.00     0.301 C 
BRANCH  28  29
HETATM   29  N2  UNL     1      34.650   4.585  48.585  1.00  0.00     0.082 N 
HETATM   30  H11 UNL     1      35.086   3.660  48.382  1.00  0.00     0.313 HD
HETATM   31  H12 UNL     1      34.705   4.748  49.609  1.00  0.00     0.313 HD
ENDBRANCH  28  29
ENDBRANCH  18  28
ENDBRANCH   3   4
TORSDOF 3
ENDMDL
