MODEL 1
REMARK VINA RESULT:      -8.7      0.000      0.000
REMARK  2 active torsions:
REMARK  status: ('A' for Active; 'I' for Inactive)
REMARK    1  A    between atoms: C4_5  and  N1_6 
REMARK    2  A    between atoms: N1_6  and  C5_7 
ROOT
HETATM    1  C5  UNL     1      23.189   1.308  52.218  1.00  0.00     0.237 C 
HETATM    2  N2  UNL     1      22.547   2.530  52.031  1.00  0.00    -0.253 NA
HETATM    3  C6  UNL     1      22.526   3.721  52.230  1.00  0.00     0.232 C 
HETATM    4  N3  UNL     1      21.311   3.820  51.484  1.00  0.00    -0.220 NA
HETATM    5  C7  UNL     1      20.167   3.282  51.843  1.00  0.00     0.164 C 
HETATM    6  C8  UNL     1      18.709   3.064  51.511  1.00  0.00     0.206 C 
HETATM    7  N4  UNL     1      18.647   1.580  51.434  1.00  0.00    -0.383 N 
HETATM    8  C9  UNL     1      19.956   0.979  51.608  1.00  0.00     0.043 C 
HETATM    9  C10 UNL     1      20.251   1.214  52.915  1.00  0.00     0.115 C 
HETATM   10  O1  UNL     1      20.377   2.609  53.082  1.00  0.00    -0.293 OA
HETATM   11  C11 UNL     1      20.344  -0.072  53.702  1.00  0.00     0.252 C 
HETATM   12  F2  UNL     1      19.318  -0.881  53.293  1.00  0.00    -0.238 F 
HETATM   13  C12 UNL     1      21.650  -0.755  53.242  1.00  0.00     0.024 C 
HETATM   14  C13 UNL     1      22.135   0.207  52.406  1.00  0.00    -0.031 C 
HETATM   15  C14 UNL     1      21.220   0.230  51.204  1.00  0.00     0.097 C 
HETATM   16  H8  UNL     1      18.259   0.604  51.329  1.00  0.00     0.160 HD
ENDROOT
BRANCH   1  17
HETATM   17  N1  UNL     1      24.074   1.252  53.346  1.00  0.00    -0.364 N 
HETATM   18  H3  UNL     1      23.666   1.554  54.248  1.00  0.00     0.162 HD
BRANCH  17  19
HETATM   19  C4  UNL     1      25.426   0.821  53.308  1.00  0.00     0.031 A 
HETATM   20  C3  UNL     1      25.803  -0.477  53.044  1.00  0.00     0.032 A 
HETATM   21  C2  UNL     1      27.121  -0.879  53.013  1.00  0.00     0.046 A 
HETATM   22  C1  UNL     1      28.115   0.026  53.251  1.00  0.00     0.138 A 
HETATM   23  F1  UNL     1      29.420  -0.330  53.230  1.00  0.00    -0.204 F 
HETATM   24  C16 UNL     1      27.777   1.327  53.518  1.00  0.00     0.074 A 
HETATM   25  C15 UNL     1      26.449   1.702  53.542  1.00  0.00     0.056 A 
HETATM   26 CL1  UNL     1      29.030   2.515  53.828  1.00  0.00    -0.081 Cl
ENDBRANCH  17  19
ENDBRANCH   1  17
TORSDOF 2
ENDMDL
MODEL 2
REMARK VINA RESULT:      -8.1      2.363      3.480
REMARK  2 active torsions:
REMARK  status: ('A' for Active; 'I' for Inactive)
REMARK    1  A    between atoms: C4_5  and  N1_6 
REMARK    2  A    between atoms: N1_6  and  C5_7 
ROOT
HETATM    1  C5  UNL     1      24.238   1.683  52.828  1.00  0.00     0.237 C 
HETATM    2  N2  UNL     1      22.924   1.264  53.023  1.00  0.00    -0.253 NA
HETATM    3  C6  UNL     1      22.147   0.351  53.169  1.00  0.00     0.232 C 
HETATM    4  N3  UNL     1      21.071   1.287  53.267  1.00  0.00    -0.220 NA
HETATM    5  C7  UNL     1      20.669   2.069  52.291  1.00  0.00     0.164 C 
HETATM    6  C8  UNL     1      19.704   3.141  51.840  1.00  0.00     0.206 C 
HETATM    7  N4  UNL     1      20.639   4.238  51.473  1.00  0.00    -0.383 N 
HETATM    8  C9  UNL     1      22.017   3.890  51.764  1.00  0.00     0.043 C 
HETATM    9  C10 UNL     1      22.304   2.915  50.861  1.00  0.00     0.115 C 
HETATM   10  O1  UNL     1      21.492   1.801  51.158  1.00  0.00    -0.293 OA
HETATM   11  C11 UNL     1      23.372   3.358  49.888  1.00  0.00     0.252 C 
HETATM   12  F2  UNL     1      23.100   4.655  49.541  1.00  0.00    -0.238 F 
HETATM   13  C12 UNL     1      24.689   3.388  50.693  1.00  0.00     0.024 C 
HETATM   14  C13 UNL     1      24.247   2.894  51.885  1.00  0.00    -0.031 C 
HETATM   15  C14 UNL     1      23.358   3.958  52.485  1.00  0.00     0.097 C 
HETATM   16  H8  UNL     1      20.993   5.166  51.117  1.00  0.00     0.160 HD
ENDROOT
BRANCH   1  17
HETATM   17  N1  UNL     1      25.115   0.695  52.267  1.00  0.00    -0.364 N 
HETATM   18  H3  UNL     1      24.714   0.128  51.500  1.00  0.00     0.162 HD
BRANCH  17  19
HETATM   19  C4  UNL     1      26.451   0.454  52.681  1.00  0.00     0.031 A 
HETATM   20  C3  UNL     1      27.318   1.453  53.068  1.00  0.00     0.032 A 
HETATM   21  C2  UNL     1      28.614   1.202  53.465  1.00  0.00     0.046 A 
HETATM   22  C1  UNL     1      29.085  -0.079  53.484  1.00  0.00     0.138 A 
HETATM   23  F1  UNL     1      30.350  -0.365  53.866  1.00  0.00    -0.204 F 
HETATM   24  C16 UNL     1      28.250  -1.097  53.104  1.00  0.00     0.074 A 
HETATM   25  C15 UNL     1      26.957  -0.818  52.711  1.00  0.00     0.056 A 
HETATM   26 CL1  UNL     1      28.824  -2.756  53.117  1.00  0.00    -0.081 Cl
ENDBRANCH  17  19
ENDBRANCH   1  17
TORSDOF 2
ENDMDL
MODEL 3
REMARK VINA RESULT:      -8.0      4.141      6.173
REMARK  2 active torsions:
REMARK  status: ('A' for Active; 'I' for Inactive)
REMARK    1  A    between atoms: C4_5  and  N1_6 
REMARK    2  A    between atoms: N1_6  and  C5_7 
ROOT
HETATM    1  C5  UNL     1      25.258   2.325  50.941  1.00  0.00     0.237 C 
HETATM    2  N2  UNL     1      24.119   1.713  51.459  1.00  0.00    -0.253 NA
HETATM    3  C6  UNL     1      22.940   1.784  51.712  1.00  0.00     0.232 C 
HETATM    4  N3  UNL     1      22.978   0.456  52.240  1.00  0.00    -0.220 NA
HETATM    5  C7  UNL     1      23.649   0.096  53.311  1.00  0.00     0.164 C 
HETATM    6  C8  UNL     1      24.034  -1.024  54.249  1.00  0.00     0.206 C 
HETATM    7  N4  UNL     1      25.514  -1.027  54.107  1.00  0.00    -0.383 N 
HETATM    8  C9  UNL     1      25.960  -0.069  53.113  1.00  0.00     0.043 C 
HETATM    9  C10 UNL     1      25.701   1.137  53.684  1.00  0.00     0.115 C 
HETATM   10  O1  UNL     1      24.302   1.257  53.820  1.00  0.00    -0.293 OA
HETATM   11  C11 UNL     1      26.972   1.907  53.956  1.00  0.00     0.252 C 
HETATM   12  F2  UNL     1      27.893   1.020  54.446  1.00  0.00    -0.238 F 
HETATM   13  C12 UNL     1      27.494   2.361  52.576  1.00  0.00     0.024 C 
HETATM   14  C13 UNL     1      26.476   1.918  51.783  1.00  0.00    -0.031 C 
HETATM   15  C14 UNL     1      26.553   0.409  51.792  1.00  0.00     0.097 C 
HETATM   16  H8  UNL     1      26.528  -1.279  54.257  1.00  0.00     0.160 HD
ENDROOT
BRANCH   1  17
HETATM   17  N1  UNL     1      25.219   3.759  50.909  1.00  0.00    -0.364 N 
HETATM   18  H3  UNL     1      24.586   4.203  51.597  1.00  0.00     0.162 HD
BRANCH  17  19
HETATM   19  C4  UNL     1      25.966   4.581  50.025  1.00  0.00     0.031 A 
HETATM   20  C3  UNL     1      27.059   4.134  49.315  1.00  0.00     0.032 A 
HETATM   21  C2  UNL     1      27.776   4.947  48.463  1.00  0.00     0.046 A 
HETATM   22  C1  UNL     1      27.411   6.251  48.297  1.00  0.00     0.138 A 
HETATM   23  F1  UNL     1      28.089   7.079  47.470  1.00  0.00    -0.204 F 
HETATM   24  C16 UNL     1      26.328   6.729  48.988  1.00  0.00     0.074 A 
HETATM   25  C15 UNL     1      25.628   5.894  49.835  1.00  0.00     0.056 A 
HETATM   26 CL1  UNL     1      25.832   8.402  48.797  1.00  0.00    -0.081 Cl
ENDBRANCH  17  19
ENDBRANCH   1  17
TORSDOF 2
ENDMDL
MODEL 4
REMARK VINA RESULT:      -7.8      8.657     10.080
REMARK  2 active torsions:
REMARK  status: ('A' for Active; 'I' for Inactive)
REMARK    1  A    between atoms: C4_5  and  N1_6 
REMARK    2  A    between atoms: N1_6  and  C5_7 
ROOT
HETATM    1  C5  UNL     1      30.142   7.469  48.194  1.00  0.00     0.237 C 
HETATM    2  N2  UNL     1      29.869   8.743  48.685  1.00  0.00    -0.253 NA
HETATM    3  C6  UNL     1      30.157   9.634  49.448  1.00  0.00     0.232 C 
HETATM    4  N3  UNL     1      29.067  10.411  48.946  1.00  0.00    -0.220 NA
HETATM    5  C7  UNL     1      27.799  10.094  49.080  1.00  0.00     0.164 C 
HETATM    6  C8  UNL     1      26.362  10.468  48.799  1.00  0.00     0.206 C 
HETATM    7  N4  UNL     1      25.906   9.296  48.004  1.00  0.00    -0.383 N 
HETATM    8  C9  UNL     1      26.989   8.363  47.756  1.00  0.00     0.043 C 
HETATM    9  C10 UNL     1      27.248   7.832  48.981  1.00  0.00     0.115 C 
HETATM   10  O1  UNL     1      27.735   8.868  49.804  1.00  0.00    -0.293 OA
HETATM   11  C11 UNL     1      26.937   6.354  49.021  1.00  0.00     0.252 C 
HETATM   12  F2  UNL     1      25.761   6.162  48.347  1.00  0.00    -0.238 F 
HETATM   13  C12 UNL     1      28.038   5.668  48.183  1.00  0.00     0.024 C 
HETATM   14  C13 UNL     1      28.820   6.747  47.895  1.00  0.00    -0.031 C 
HETATM   15  C14 UNL     1      28.028   7.606  46.937  1.00  0.00     0.097 C 
HETATM   16  H8  UNL     1      25.277   8.645  47.462  1.00  0.00     0.160 HD
ENDROOT
BRANCH   1  17
HETATM   17  N1  UNL     1      30.901   6.627  49.074  1.00  0.00    -0.364 N 
HETATM   18  H3  UNL     1      30.579   6.605  50.057  1.00  0.00     0.162 HD
BRANCH  17  19
HETATM   19  C4  UNL     1      32.025   5.847  48.697  1.00  0.00     0.031 A 
HETATM   20  C3  UNL     1      33.328   6.225  48.940  1.00  0.00     0.032 A 
HETATM   21  C2  UNL     1      34.409   5.457  48.564  1.00  0.00     0.046 A 
HETATM   22  C1  UNL     1      34.211   4.268  47.924  1.00  0.00     0.138 A 
HETATM   23  F1  UNL     1      35.245   3.486  47.540  1.00  0.00    -0.204 F 
HETATM   24  C16 UNL     1      32.928   3.860  47.667  1.00  0.00     0.074 A 
HETATM   25  C15 UNL     1      31.863   4.649  48.053  1.00  0.00     0.056 A 
HETATM   26 CL1  UNL     1      32.638   2.336  46.845  1.00  0.00    -0.081 Cl
ENDBRANCH  17  19
ENDBRANCH   1  17
TORSDOF 2
ENDMDL
MODEL 5
REMARK VINA RESULT:      -7.8      2.040      2.294
REMARK  2 active torsions:
REMARK  status: ('A' for Active; 'I' for Inactive)
REMARK    1  A    between atoms: C4_5  and  N1_6 
REMARK    2  A    between atoms: N1_6  and  C5_7 
ROOT
HETATM    1  C5  UNL     1      23.032   1.985  50.883  1.00  0.00     0.237 C 
HETATM    2  N2  UNL     1      22.694   3.197  50.285  1.00  0.00    -0.253 NA
HETATM    3  C6  UNL     1      22.748   4.403  50.304  1.00  0.00     0.232 C 
HETATM    4  N3  UNL     1      21.981   4.453  49.099  1.00  0.00    -0.220 NA
HETATM    5  C7  UNL     1      20.733   4.060  48.990  1.00  0.00     0.164 C 
HETATM    6  C8  UNL     1      19.532   3.883  48.089  1.00  0.00     0.206 C 
HETATM    7  N4  UNL     1      19.313   2.415  48.179  1.00  0.00    -0.383 N 
HETATM    8  C9  UNL     1      20.338   1.768  48.978  1.00  0.00     0.043 C 
HETATM    9  C10 UNL     1      20.087   2.202  50.242  1.00  0.00     0.115 C 
HETATM   10  O1  UNL     1      20.315   3.594  50.271  1.00  0.00    -0.293 OA
HETATM   11  C11 UNL     1      19.672   1.065  51.147  1.00  0.00     0.252 C 
HETATM   12  F2  UNL     1      18.815   0.267  50.438  1.00  0.00    -0.238 F 
HETATM   13  C12 UNL     1      20.949   0.231  51.388  1.00  0.00     0.024 C 
HETATM   14  C13 UNL     1      21.861   1.003  50.731  1.00  0.00    -0.031 C 
HETATM   15  C14 UNL     1      21.545   0.881  49.259  1.00  0.00     0.097 C 
HETATM   16  H8  UNL     1      18.880   1.463  48.040  1.00  0.00     0.160 HD
ENDROOT
BRANCH   1  17
HETATM   17  N1  UNL     1      23.347   2.064  52.281  1.00  0.00    -0.364 N 
HETATM   18  H3  UNL     1      22.686   2.613  52.857  1.00  0.00     0.162 HD
BRANCH  17  19
HETATM   19  C4  UNL     1      24.469   1.456  52.904  1.00  0.00     0.031 A 
HETATM   20  C3  UNL     1      24.437   0.197  53.464  1.00  0.00     0.032 A 
HETATM   21  C2  UNL     1      25.535  -0.377  54.068  1.00  0.00     0.046 A 
HETATM   22  C1  UNL     1      26.715   0.307  54.129  1.00  0.00     0.138 A 
HETATM   23  F1  UNL     1      27.813  -0.223  54.713  1.00  0.00    -0.204 F 
HETATM   24  C16 UNL     1      26.782   1.562  53.582  1.00  0.00     0.074 A 
HETATM   25  C15 UNL     1      25.668   2.113  52.984  1.00  0.00     0.056 A 
HETATM   26 CL1  UNL     1      28.284   2.467  53.644  1.00  0.00    -0.081 Cl
ENDBRANCH  17  19
ENDBRANCH   1  17
TORSDOF 2
ENDMDL
MODEL 6
REMARK VINA RESULT:      -7.5      9.271     12.157
REMARK  2 active torsions:
REMARK  status: ('A' for Active; 'I' for Inactive)
REMARK    1  A    between atoms: C4_5  and  N1_6 
REMARK    2  A    between atoms: N1_6  and  C5_7 
ROOT
HETATM    1  C5  UNL     1      30.509   6.779  48.376  1.00  0.00     0.237 C 
HETATM    2  N2  UNL     1      31.150   7.984  48.097  1.00  0.00    -0.253 NA
HETATM    3  C6  UNL     1      31.088   9.099  47.638  1.00  0.00     0.232 C 
HETATM    4  N3  UNL     1      32.462   9.308  47.970  1.00  0.00    -0.220 NA
HETATM    5  C7  UNL     1      33.468   8.656  47.434  1.00  0.00     0.164 C 
HETATM    6  C8  UNL     1      34.965   8.454  47.382  1.00  0.00     0.206 C 
HETATM    7  N4  UNL     1      35.080   7.022  47.768  1.00  0.00    -0.383 N 
HETATM    8  C9  UNL     1      33.788   6.454  48.108  1.00  0.00     0.043 C 
HETATM    9  C10 UNL     1      33.130   6.408  46.920  1.00  0.00     0.115 C 
HETATM   10  O1  UNL     1      32.930   7.736  46.488  1.00  0.00    -0.293 OA
HETATM   11  C11 UNL     1      32.845   4.985  46.498  1.00  0.00     0.252 C 
HETATM   12  F2  UNL     1      33.962   4.243  46.772  1.00  0.00    -0.238 F 
HETATM   13  C12 UNL     1      31.739   4.477  47.448  1.00  0.00     0.024 C 
HETATM   14  C13 UNL     1      31.490   5.620  48.150  1.00  0.00    -0.031 C 
HETATM   15  C14 UNL     1      32.708   5.867  49.009  1.00  0.00     0.097 C 
HETATM   16  H8  UNL     1      35.502   6.078  47.975  1.00  0.00     0.160 HD
ENDROOT
BRANCH   1  17
HETATM   17  N1  UNL     1      29.341   6.513  47.585  1.00  0.00    -0.364 N 
HETATM   18  H3  UNL     1      29.466   6.604  46.561  1.00  0.00     0.162 HD
BRANCH  17  19
HETATM   19  C4  UNL     1      28.069   6.145  48.096  1.00  0.00     0.031 A 
HETATM   20  C3  UNL     1      26.973   6.981  48.079  1.00  0.00     0.032 A 
HETATM   21  C2  UNL     1      25.746   6.608  48.583  1.00  0.00     0.046 A 
HETATM   22  C1  UNL     1      25.580   5.368  49.127  1.00  0.00     0.138 A 
HETATM   23  F1  UNL     1      24.391   4.966  49.632  1.00  0.00    -0.204 F 
HETATM   24  C16 UNL     1      26.649   4.511  49.161  1.00  0.00     0.074 A 
HETATM   25  C15 UNL     1      27.867   4.909  48.650  1.00  0.00     0.056 A 
HETATM   26 CL1  UNL     1      26.470   2.909  49.854  1.00  0.00    -0.081 Cl
ENDBRANCH  17  19
ENDBRANCH   1  17
TORSDOF 2
ENDMDL
MODEL 7
REMARK VINA RESULT:      -7.4      2.432      2.930
REMARK  2 active torsions:
REMARK  status: ('A' for Active; 'I' for Inactive)
REMARK    1  A    between atoms: C4_5  and  N1_6 
REMARK    2  A    between atoms: N1_6  and  C5_7 
ROOT
HETATM    1  C5  UNL     1      23.922   2.677  51.093  1.00  0.00     0.237 C 
HETATM    2  N2  UNL     1      23.536   3.969  51.440  1.00  0.00    -0.253 NA
HETATM    3  C6  UNL     1      23.527   4.853  52.262  1.00  0.00     0.232 C 
HETATM    4  N3  UNL     1      22.785   5.678  51.362  1.00  0.00    -0.220 NA
HETATM    5  C7  UNL     1      21.561   5.429  50.955  1.00  0.00     0.164 C 
HETATM    6  C8  UNL     1      20.392   5.873  50.107  1.00  0.00     0.206 C 
HETATM    7  N4  UNL     1      20.247   4.717  49.182  1.00  0.00    -0.383 N 
HETATM    8  C9  UNL     1      21.285   3.726  49.396  1.00  0.00     0.043 C 
HETATM    9  C10 UNL     1      20.985   3.197  50.612  1.00  0.00     0.115 C 
HETATM   10  O1  UNL     1      21.140   4.216  51.574  1.00  0.00    -0.293 OA
HETATM   11  C11 UNL     1      20.610   1.737  50.504  1.00  0.00     0.252 C 
HETATM   12  F2  UNL     1      19.811   1.598  49.400  1.00  0.00    -0.238 F 
HETATM   13  C12 UNL     1      21.922   0.986  50.190  1.00  0.00     0.024 C 
HETATM   14  C13 UNL     1      22.808   2.021  50.264  1.00  0.00    -0.031 C 
HETATM   15  C14 UNL     1      22.530   2.908  49.073  1.00  0.00     0.097 C 
HETATM   16  H8  UNL     1      19.867   4.093  48.422  1.00  0.00     0.160 HD
ENDROOT
BRANCH   1  17
HETATM   17  N1  UNL     1      24.203   1.807  52.199  1.00  0.00    -0.364 N 
HETATM   18  H3  UNL     1      23.392   1.570  52.796  1.00  0.00     0.162 HD
BRANCH  17  19
HETATM   19  C4  UNL     1      25.477   1.268  52.516  1.00  0.00     0.031 A 
HETATM   20  C3  UNL     1      26.544   2.034  52.933  1.00  0.00     0.032 A 
HETATM   21  C2  UNL     1      27.776   1.494  53.234  1.00  0.00     0.046 A 
HETATM   22  C1  UNL     1      27.976   0.149  53.125  1.00  0.00     0.138 A 
HETATM   23  F1  UNL     1      29.170  -0.418  53.411  1.00  0.00    -0.204 F 
HETATM   24  C16 UNL     1      26.937  -0.644  52.713  1.00  0.00     0.074 A 
HETATM   25  C15 UNL     1      25.714  -0.078  52.417  1.00  0.00     0.056 A 
HETATM   26 CL1  UNL     1      27.160  -2.378  52.562  1.00  0.00    -0.081 Cl
ENDBRANCH  17  19
ENDBRANCH   1  17
TORSDOF 2
ENDMDL
MODEL 8
REMARK VINA RESULT:      -7.4      6.875      8.729
REMARK  2 active torsions:
REMARK  status: ('A' for Active; 'I' for Inactive)
REMARK    1  A    between atoms: C4_5  and  N1_6 
REMARK    2  A    between atoms: N1_6  and  C5_7 
ROOT
HETATM    1  C5  UNL     1      27.036   5.382  48.719  1.00  0.00     0.237 C 
HETATM    2  N2  UNL     1      28.266   5.769  48.192  1.00  0.00    -0.253 NA
HETATM    3  C6  UNL     1      29.455   5.576  48.111  1.00  0.00     0.232 C 
HETATM    4  N3  UNL     1      29.575   6.704  47.242  1.00  0.00    -0.220 NA
HETATM    5  C7  UNL     1      29.343   7.948  47.595  1.00  0.00     0.164 C 
HETATM    6  C8  UNL     1      29.301   9.399  47.175  1.00  0.00     0.206 C 
HETATM    7  N4  UNL     1      27.876   9.736  47.434  1.00  0.00    -0.383 N 
HETATM    8  C9  UNL     1      27.122   8.577  47.874  1.00  0.00     0.043 C 
HETATM    9  C10 UNL     1      27.615   8.321  49.115  1.00  0.00     0.115 C 
HETATM   10  O1  UNL     1      28.966   7.942  48.970  1.00  0.00    -0.293 OA
HETATM   11  C11 UNL     1      26.563   8.518  50.181  1.00  0.00     0.252 C 
HETATM   12  F2  UNL     1      25.865   9.653  49.865  1.00  0.00    -0.238 F 
HETATM   13  C12 UNL     1      25.577   7.341  50.025  1.00  0.00     0.024 C 
HETATM   14  C13 UNL     1      26.209   6.634  49.045  1.00  0.00    -0.031 C 
HETATM   15  C14 UNL     1      26.093   7.456  47.783  1.00  0.00     0.097 C 
HETATM   16  H8  UNL     1      26.985  10.295  47.516  1.00  0.00     0.160 HD
ENDROOT
BRANCH   1  17
HETATM   17  N1  UNL     1      27.107   4.591  49.914  1.00  0.00    -0.364 N 
HETATM   18  H3  UNL     1      27.950   4.737  50.496  1.00  0.00     0.162 HD
BRANCH  17  19
HETATM   19  C4  UNL     1      26.127   3.655  50.338  1.00  0.00     0.031 A 
HETATM   20  C3  UNL     1      24.811   3.697  49.933  1.00  0.00     0.032 A 
HETATM   21  C2  UNL     1      23.872   2.781  50.356  1.00  0.00     0.046 A 
HETATM   22  C1  UNL     1      24.233   1.781  51.213  1.00  0.00     0.138 A 
HETATM   23  F1  UNL     1      23.341   0.864  51.651  1.00  0.00    -0.204 F 
HETATM   24  C16 UNL     1      25.534   1.710  51.637  1.00  0.00     0.074 A 
HETATM   25  C15 UNL     1      26.454   2.639  51.198  1.00  0.00     0.056 A 
HETATM   26 CL1  UNL     1      26.031   0.437  52.738  1.00  0.00    -0.081 Cl
ENDBRANCH  17  19
ENDBRANCH   1  17
TORSDOF 2
ENDMDL
MODEL 9
REMARK VINA RESULT:      -7.3     12.290     14.643
REMARK  2 active torsions:
REMARK  status: ('A' for Active; 'I' for Inactive)
REMARK    1  A    between atoms: C4_5  and  N1_6 
REMARK    2  A    between atoms: N1_6  and  C5_7 
ROOT
HETATM    1  C5  UNL     1      33.346   5.534  44.723  1.00  0.00     0.237 C 
HETATM    2  N2  UNL     1      32.893   6.566  45.541  1.00  0.00    -0.253 NA
HETATM    3  C6  UNL     1      32.841   7.751  45.766  1.00  0.00     0.232 C 
HETATM    4  N3  UNL     1      32.060   7.492  46.934  1.00  0.00    -0.220 NA
HETATM    5  C7  UNL     1      32.493   6.850  47.995  1.00  0.00     0.164 C 
HETATM    6  C8  UNL     1      32.176   6.325  49.377  1.00  0.00     0.206 C 
HETATM    7  N4  UNL     1      32.407   4.867  49.194  1.00  0.00    -0.383 N 
HETATM    8  C9  UNL     1      32.736   4.544  47.818  1.00  0.00     0.043 C 
HETATM    9  C10 UNL     1      33.972   5.083  47.644  1.00  0.00     0.115 C 
HETATM   10  O1  UNL     1      33.849   6.484  47.754  1.00  0.00    -0.293 OA
HETATM   11  C11 UNL     1      35.011   4.016  47.392  1.00  0.00     0.252 C 
HETATM   12  F2  UNL     1      34.752   2.978  48.247  1.00  0.00    -0.238 F 
HETATM   13  C12 UNL     1      34.736   3.487  45.968  1.00  0.00     0.024 C 
HETATM   14  C13 UNL     1      33.731   4.329  45.595  1.00  0.00    -0.031 C 
HETATM   15  C14 UNL     1      32.527   3.955  46.428  1.00  0.00     0.097 C 
HETATM   16  H8  UNL     1      32.497   3.838  49.413  1.00  0.00     0.160 HD
ENDROOT
BRANCH   1  17
HETATM   17  N1  UNL     1      34.483   5.855  43.910  1.00  0.00    -0.364 N 
HETATM   18  H3  UNL     1      35.211   6.430  44.369  1.00  0.00     0.162 HD
BRANCH  17  19
HETATM   19  C4  UNL     1      34.670   5.450  42.562  1.00  0.00     0.031 A 
HETATM   20  C3  UNL     1      35.580   6.039  41.711  1.00  0.00     0.032 A 
HETATM   21  C2  UNL     1      35.746   5.634  40.404  1.00  0.00     0.046 A 
HETATM   22  C1  UNL     1      34.993   4.611  39.905  1.00  0.00     0.138 A 
HETATM   23  F1  UNL     1      35.127   4.186  38.628  1.00  0.00    -0.204 F 
HETATM   24  C16 UNL     1      34.078   4.003  40.724  1.00  0.00     0.074 A 
HETATM   25  C15 UNL     1      33.931   4.427  42.029  1.00  0.00     0.056 A 
HETATM   26 CL1  UNL     1      33.093   2.684  40.115  1.00  0.00    -0.081 Cl
ENDBRANCH  17  19
ENDBRANCH   1  17
TORSDOF 2
ENDMDL
