MODEL 1
REMARK VINA RESULT:      -8.0      0.000      0.000
REMARK  8 active torsions:
REMARK  status: ('A' for Active; 'I' for Inactive)
REMARK    1  A    between atoms: N1_2  and  C3_4 
REMARK    2  A    between atoms: C3_4  and  C4_5 
REMARK    3  A    between atoms: C4_5  and  C5_6 
REMARK       I    between atoms: C5_6  and  N2_8 
REMARK    4  A    between atoms: C12_18  and  N5_19 
REMARK    5  A    between atoms: N5_19  and  C13_20 
REMARK    6  A    between atoms: C13_20  and  C14_21 
REMARK    7  A    between atoms: C13_20  and  C15_23 
REMARK    8  A    between atoms: C14_21  and  O2_22 
ROOT
HETATM    1  C5  UNL     1      25.543   4.990  49.522  1.00  0.00     0.221 C 
HETATM    2  O1  UNL     1      26.336   4.114  49.084  1.00  0.00    -0.273 OA
HETATM    3  N2  UNL     1      24.817   4.382  50.614  1.00  0.00    -0.347 N 
HETATM    4  C6  UNL     1      25.218   3.017  50.854  1.00  0.00     0.131 C 
HETATM    5  C7  UNL     1      24.739   2.521  52.243  1.00  0.00     0.060 C 
HETATM    6  C8  UNL     1      23.272   2.424  52.226  1.00  0.00    -0.025 A 
HETATM    7  C9  UNL     1      22.885   3.716  51.816  1.00  0.00     0.010 A 
HETATM    8  S1  UNL     1      21.123   3.674  51.768  1.00  0.00    -0.072 SA
HETATM    9  C10 UNL     1      20.931   1.965  52.287  1.00  0.00     0.114 A 
HETATM   10  N3  UNL     1      19.868   1.255  52.474  1.00  0.00    -0.234 NA
HETATM   11  C11 UNL     1      19.959  -0.021  52.875  1.00  0.00     0.236 A 
HETATM   12  N4  UNL     1      21.194  -0.432  53.043  1.00  0.00    -0.224 NA
HETATM   13  C12 UNL     1      22.333   0.245  52.871  1.00  0.00     0.139 A 
HETATM   14  C21 UNL     1      22.240   1.555  52.459  1.00  0.00     0.053 A 
HETATM   15  C22 UNL     1      23.784   4.857  51.501  1.00  0.00     0.172 C 
ENDROOT
BRANCH  13  16
HETATM   16  N5  UNL     1      23.557  -0.475  53.135  1.00  0.00    -0.363 N 
HETATM   17  H16 UNL     1      24.149  -1.064  52.575  1.00  0.00     0.162 HD
BRANCH  16  18
HETATM   18  C13 UNL     1      24.163  -0.402  54.471  1.00  0.00     0.140 C 
BRANCH  18  19
HETATM   19  C14 UNL     1      23.792  -1.611  55.305  1.00  0.00     0.194 C 
BRANCH  19  20
HETATM   20  O2  UNL     1      22.436  -1.484  55.634  1.00  0.00    -0.399 OA
HETATM   21  H20 UNL     1      21.891  -2.148  55.113  1.00  0.00     0.209 HD
ENDBRANCH  19  20
ENDBRANCH  18  19
BRANCH  18  22
HETATM   22  C15 UNL     1      25.657  -0.312  54.319  1.00  0.00    -0.034 A 
HETATM   23  C16 UNL     1      26.661   0.281  55.037  1.00  0.00     0.009 A 
HETATM   24  C17 UNL     1      27.956   0.184  54.614  1.00  0.00     0.001 A 
HETATM   25  C18 UNL     1      28.341  -0.494  53.472  1.00  0.00     0.000 A 
HETATM   26  C19 UNL     1      27.343  -1.091  52.747  1.00  0.00     0.001 A 
HETATM   27  C20 UNL     1      26.008  -1.003  53.164  1.00  0.00     0.009 A 
ENDBRANCH  18  22
ENDBRANCH  16  18
ENDBRANCH  13  16
BRANCH   1  28
HETATM   28  C4  UNL     1      25.244   6.400  49.161  1.00  0.00     0.133 C 
BRANCH  28  29
HETATM   29  C3  UNL     1      26.045   7.292  50.109  1.00  0.00     0.280 C 
BRANCH  29  30
HETATM   30  N1  UNL     1      26.806   8.211  49.283  1.00  0.00     0.080 N 
HETATM   31  C1  UNL     1      27.368   9.238  50.140  1.00  0.00     0.309 C 
HETATM   32  C2  UNL     1      27.825   7.475  48.580  1.00  0.00     0.309 C 
ENDBRANCH  29  30
ENDBRANCH  28  29
ENDBRANCH   1  28
TORSDOF 8
ENDMDL
MODEL 2
REMARK VINA RESULT:      -7.7      3.668      8.842
REMARK  8 active torsions:
REMARK  status: ('A' for Active; 'I' for Inactive)
REMARK    1  A    between atoms: N1_2  and  C3_4 
REMARK    2  A    between atoms: C3_4  and  C4_5 
REMARK    3  A    between atoms: C4_5  and  C5_6 
REMARK       I    between atoms: C5_6  and  N2_8 
REMARK    4  A    between atoms: C12_18  and  N5_19 
REMARK    5  A    between atoms: N5_19  and  C13_20 
REMARK    6  A    between atoms: C13_20  and  C14_21 
REMARK    7  A    between atoms: C13_20  and  C15_23 
REMARK    8  A    between atoms: C14_21  and  O2_22 
ROOT
HETATM    1  C5  UNL     1      24.505   2.595  51.998  1.00  0.00     0.221 C 
HETATM    2  O1  UNL     1      25.512   2.249  52.673  1.00  0.00    -0.273 OA
HETATM    3  N2  UNL     1      25.009   3.217  50.795  1.00  0.00    -0.347 N 
HETATM    4  C6  UNL     1      26.451   3.240  50.743  1.00  0.00     0.131 C 
HETATM    5  C7  UNL     1      26.963   3.532  49.309  1.00  0.00     0.060 C 
HETATM    6  C8  UNL     1      26.611   4.915  48.958  1.00  0.00    -0.025 A 
HETATM    7  C9  UNL     1      25.218   4.942  49.181  1.00  0.00     0.010 A 
HETATM    8  S1  UNL     1      24.720   6.585  48.781  1.00  0.00    -0.072 SA
HETATM    9  C10 UNL     1      26.345   7.203  48.330  1.00  0.00     0.114 A 
HETATM   10  N3  UNL     1      26.721   8.369  47.920  1.00  0.00    -0.234 NA
HETATM   11  C11 UNL     1      28.007   8.611  47.630  1.00  0.00     0.236 A 
HETATM   12  N4  UNL     1      28.790   7.573  47.805  1.00  0.00    -0.224 NA
HETATM   13  C12 UNL     1      28.471   6.344  48.222  1.00  0.00     0.139 A 
HETATM   14  C21 UNL     1      27.150   6.094  48.521  1.00  0.00     0.053 A 
HETATM   15  C22 UNL     1      24.370   3.815  49.647  1.00  0.00     0.172 C 
ENDROOT
BRANCH  13  16
HETATM   16  N5  UNL     1      29.556   5.395  48.320  1.00  0.00    -0.363 N 
HETATM   17  H16 UNL     1      29.596   4.405  48.498  1.00  0.00     0.162 HD
BRANCH  16  18
HETATM   18  C13 UNL     1      30.937   5.856  48.130  1.00  0.00     0.140 C 
BRANCH  18  19
HETATM   19  C14 UNL     1      31.537   6.329  49.438  1.00  0.00     0.194 C 
BRANCH  19  20
HETATM   20  O2  UNL     1      31.238   5.360  50.404  1.00  0.00    -0.399 OA
HETATM   21  H20 UNL     1      31.447   4.444  50.049  1.00  0.00     0.209 HD
ENDBRANCH  19  20
ENDBRANCH  18  19
BRANCH  18  22
HETATM   22  C15 UNL     1      31.749   4.724  47.563  1.00  0.00    -0.034 A 
HETATM   23  C16 UNL     1      31.446   3.543  46.939  1.00  0.00     0.009 A 
HETATM   24  C17 UNL     1      32.445   2.701  46.542  1.00  0.00     0.001 A 
HETATM   25  C18 UNL     1      33.789   2.964  46.730  1.00  0.00     0.000 A 
HETATM   26  C19 UNL     1      34.103   4.143  47.354  1.00  0.00     0.001 A 
HETATM   27  C20 UNL     1      33.092   5.020  47.769  1.00  0.00     0.009 A 
ENDBRANCH  18  22
ENDBRANCH  16  18
ENDBRANCH  13  16
BRANCH   1  28
HETATM   28  C4  UNL     1      23.036   2.491  52.189  1.00  0.00     0.133 C 
BRANCH  28  29
HETATM   29  C3  UNL     1      22.666   1.014  52.073  1.00  0.00     0.280 C 
BRANCH  29  30
HETATM   30  N1  UNL     1      22.372   0.544  53.414  1.00  0.00     0.080 N 
HETATM   31  C1  UNL     1      20.998   0.076  53.445  1.00  0.00     0.309 C 
HETATM   32  C2  UNL     1      23.306  -0.494  53.763  1.00  0.00     0.309 C 
ENDBRANCH  29  30
ENDBRANCH  28  29
ENDBRANCH   1  28
TORSDOF 8
ENDMDL
MODEL 3
REMARK VINA RESULT:      -7.5      2.451      3.421
REMARK  8 active torsions:
REMARK  status: ('A' for Active; 'I' for Inactive)
REMARK    1  A    between atoms: N1_2  and  C3_4 
REMARK    2  A    between atoms: C3_4  and  C4_5 
REMARK    3  A    between atoms: C4_5  and  C5_6 
REMARK       I    between atoms: C5_6  and  N2_8 
REMARK    4  A    between atoms: C12_18  and  N5_19 
REMARK    5  A    between atoms: N5_19  and  C13_20 
REMARK    6  A    between atoms: C13_20  and  C14_21 
REMARK    7  A    between atoms: C13_20  and  C15_23 
REMARK    8  A    between atoms: C14_21  and  O2_22 
ROOT
HETATM    1  C5  UNL     1      28.084   5.784  48.269  1.00  0.00     0.221 C 
HETATM    2  O1  UNL     1      28.763   4.729  48.385  1.00  0.00    -0.273 OA
HETATM    3  N2  UNL     1      26.790   5.509  48.851  1.00  0.00    -0.347 N 
HETATM    4  C6  UNL     1      26.689   4.166  49.369  1.00  0.00     0.131 C 
HETATM    5  C7  UNL     1      25.478   4.015  50.325  1.00  0.00     0.060 C 
HETATM    6  C8  UNL     1      24.242   4.148  49.541  1.00  0.00    -0.025 A 
HETATM    7  C9  UNL     1      24.423   5.387  48.892  1.00  0.00     0.010 A 
HETATM    8  S1  UNL     1      22.969   5.614  47.920  1.00  0.00    -0.072 SA
HETATM    9  C10 UNL     1      22.154   4.082  48.384  1.00  0.00     0.114 A 
HETATM   10  N3  UNL     1      21.012   3.593  48.032  1.00  0.00    -0.234 NA
HETATM   11  C11 UNL     1      20.592   2.414  48.514  1.00  0.00     0.236 A 
HETATM   12  N4  UNL     1      21.442   1.854  49.342  1.00  0.00    -0.224 NA
HETATM   13  C12 UNL     1      22.634   2.300  49.750  1.00  0.00     0.139 A 
HETATM   14  C21 UNL     1      23.065   3.510  49.254  1.00  0.00     0.053 A 
HETATM   15  C22 UNL     1      25.592   6.295  49.017  1.00  0.00     0.172 C 
ENDROOT
BRANCH  13  16
HETATM   16  N5  UNL     1      23.355   1.458  50.676  1.00  0.00    -0.363 N 
HETATM   17  H16 UNL     1      24.127   0.821  50.576  1.00  0.00     0.162 HD
BRANCH  16  18
HETATM   18  C13 UNL     1      22.973   1.454  52.094  1.00  0.00     0.140 C 
BRANCH  18  19
HETATM   19  C14 UNL     1      21.969   0.357  52.385  1.00  0.00     0.194 C 
BRANCH  19  20
HETATM   20  O2  UNL     1      20.695   0.939  52.329  1.00  0.00    -0.399 OA
HETATM   21  H20 UNL     1      20.097   0.523  53.021  1.00  0.00     0.209 HD
ENDBRANCH  19  20
ENDBRANCH  18  19
BRANCH  18  22
HETATM   22  C15 UNL     1      24.211   1.261  52.926  1.00  0.00    -0.034 A 
HETATM   23  C16 UNL     1      25.224   2.082  53.345  1.00  0.00     0.009 A 
HETATM   24  C17 UNL     1      26.242   1.583  54.106  1.00  0.00     0.001 A 
HETATM   25  C18 UNL     1      26.327   0.260  54.499  1.00  0.00     0.000 A 
HETATM   26  C19 UNL     1      25.318  -0.570  54.085  1.00  0.00     0.001 A 
HETATM   27  C20 UNL     1      24.265  -0.076  53.304  1.00  0.00     0.009 A 
ENDBRANCH  18  22
ENDBRANCH  16  18
ENDBRANCH  13  16
BRANCH   1  28
HETATM   28  C4  UNL     1      28.340   7.132  47.700  1.00  0.00     0.133 C 
BRANCH  28  29
HETATM   29  C3  UNL     1      29.410   7.795  48.566  1.00  0.00     0.280 C 
BRANCH  29  30
HETATM   30  N1  UNL     1      29.002   9.174  48.763  1.00  0.00     0.080 N 
HETATM   31  C1  UNL     1      27.927   9.199  49.738  1.00  0.00     0.309 C 
HETATM   32  C2  UNL     1      30.141   9.943  49.192  1.00  0.00     0.309 C 
ENDBRANCH  29  30
ENDBRANCH  28  29
ENDBRANCH   1  28
TORSDOF 8
ENDMDL
MODEL 4
REMARK VINA RESULT:      -7.5      2.067      4.568
REMARK  8 active torsions:
REMARK  status: ('A' for Active; 'I' for Inactive)
REMARK    1  A    between atoms: N1_2  and  C3_4 
REMARK    2  A    between atoms: C3_4  and  C4_5 
REMARK    3  A    between atoms: C4_5  and  C5_6 
REMARK       I    between atoms: C5_6  and  N2_8 
REMARK    4  A    between atoms: C12_18  and  N5_19 
REMARK    5  A    between atoms: N5_19  and  C13_20 
REMARK    6  A    between atoms: C13_20  and  C14_21 
REMARK    7  A    between atoms: C13_20  and  C15_23 
REMARK    8  A    between atoms: C14_21  and  O2_22 
ROOT
HETATM    1  C5  UNL     1      24.759   6.505  50.685  1.00  0.00     0.221 C 
HETATM    2  O1  UNL     1      23.846   6.974  51.415  1.00  0.00    -0.273 OA
HETATM    3  N2  UNL     1      24.631   5.066  50.735  1.00  0.00    -0.347 N 
HETATM    4  C6  UNL     1      23.534   4.636  51.570  1.00  0.00     0.131 C 
HETATM    5  C7  UNL     1      23.164   3.154  51.301  1.00  0.00     0.060 C 
HETATM    6  C8  UNL     1      24.269   2.303  51.764  1.00  0.00    -0.025 A 
HETATM    7  C9  UNL     1      25.378   2.842  51.079  1.00  0.00     0.010 A 
HETATM    8  S1  UNL     1      26.754   1.867  51.593  1.00  0.00    -0.072 SA
HETATM    9  C10 UNL     1      25.849   0.773  52.692  1.00  0.00     0.114 A 
HETATM   10  N3  UNL     1      26.252  -0.216  53.419  1.00  0.00    -0.234 NA
HETATM   11  C11 UNL     1      25.387  -0.910  54.173  1.00  0.00     0.236 A 
HETATM   12  N4  UNL     1      24.151  -0.481  54.083  1.00  0.00    -0.224 NA
HETATM   13  C12 UNL     1      23.664   0.529  53.355  1.00  0.00     0.139 A 
HETATM   14  C21 UNL     1      24.552   1.242  52.581  1.00  0.00     0.053 A 
HETATM   15  C22 UNL     1      25.368   3.985  50.129  1.00  0.00     0.172 C 
ENDROOT
BRANCH  13  16
HETATM   16  N5  UNL     1      22.245   0.772  53.457  1.00  0.00    -0.363 N 
HETATM   17  H16 UNL     1      21.694   1.477  53.917  1.00  0.00     0.162 HD
BRANCH  16  18
HETATM   18  C13 UNL     1      21.307  -0.134  52.781  1.00  0.00     0.140 C 
BRANCH  18  19
HETATM   19  C14 UNL     1      20.315  -0.723  53.762  1.00  0.00     0.194 C 
BRANCH  19  20
HETATM   20  O2  UNL     1      21.032  -1.073  54.914  1.00  0.00    -0.399 OA
HETATM   21  H20 UNL     1      21.986  -0.772  54.831  1.00  0.00     0.209 HD
ENDBRANCH  19  20
ENDBRANCH  18  19
BRANCH  18  22
HETATM   22  C15 UNL     1      20.585   0.633  51.707  1.00  0.00    -0.034 A 
HETATM   23  C16 UNL     1      19.468   1.425  51.678  1.00  0.00     0.009 A 
HETATM   24  C17 UNL     1      19.054   1.985  50.504  1.00  0.00     0.001 A 
HETATM   25  C18 UNL     1      19.704   1.803  49.297  1.00  0.00     0.000 A 
HETATM   26  C19 UNL     1      20.823   1.012  49.315  1.00  0.00     0.001 A 
HETATM   27  C20 UNL     1      21.264   0.429  50.511  1.00  0.00     0.009 A 
ENDBRANCH  18  22
ENDBRANCH  16  18
ENDBRANCH  13  16
BRANCH   1  28
HETATM   28  C4  UNL     1      25.841   7.097  49.857  1.00  0.00     0.133 C 
BRANCH  28  29
HETATM   29  C3  UNL     1      25.739   8.616  49.996  1.00  0.00     0.280 C 
BRANCH  29  30
HETATM   30  N1  UNL     1      26.660   9.192  49.034  1.00  0.00     0.080 N 
HETATM   31  C1  UNL     1      27.904   9.497  49.717  1.00  0.00     0.309 C 
HETATM   32  C2  UNL     1      26.851   8.261  47.952  1.00  0.00     0.309 C 
ENDBRANCH  29  30
ENDBRANCH  28  29
ENDBRANCH   1  28
TORSDOF 8
ENDMDL
MODEL 5
REMARK VINA RESULT:      -7.4      3.436      6.904
REMARK  8 active torsions:
REMARK  status: ('A' for Active; 'I' for Inactive)
REMARK    1  A    between atoms: N1_2  and  C3_4 
REMARK    2  A    between atoms: C3_4  and  C4_5 
REMARK    3  A    between atoms: C4_5  and  C5_6 
REMARK       I    between atoms: C5_6  and  N2_8 
REMARK    4  A    between atoms: C12_18  and  N5_19 
REMARK    5  A    between atoms: N5_19  and  C13_20 
REMARK    6  A    between atoms: C13_20  and  C14_21 
REMARK    7  A    between atoms: C13_20  and  C15_23 
REMARK    8  A    between atoms: C14_21  and  O2_22 
ROOT
HETATM    1  C5  UNL     1      25.835   0.114  54.277  1.00  0.00     0.221 C 
HETATM    2  O1  UNL     1      25.417  -1.075  54.311  1.00  0.00    -0.273 OA
HETATM    3  N2  UNL     1      24.844   0.880  53.557  1.00  0.00    -0.347 N 
HETATM    4  C6  UNL     1      23.727   0.075  53.124  1.00  0.00     0.131 C 
HETATM    5  C7  UNL     1      22.515   0.954  52.721  1.00  0.00     0.060 C 
HETATM    6  C8  UNL     1      22.862   1.699  51.502  1.00  0.00    -0.025 A 
HETATM    7  C9  UNL     1      24.058   2.349  51.870  1.00  0.00     0.010 A 
HETATM    8  S1  UNL     1      24.541   3.266  50.443  1.00  0.00    -0.072 SA
HETATM    9  C10 UNL     1      23.166   2.780  49.395  1.00  0.00     0.114 A 
HETATM   10  N3  UNL     1      22.879   3.101  48.177  1.00  0.00    -0.234 NA
HETATM   11  C11 UNL     1      21.779   2.617  47.582  1.00  0.00     0.236 A 
HETATM   12  N4  UNL     1      21.073   1.822  48.351  1.00  0.00    -0.224 NA
HETATM   13  C12 UNL     1      21.308   1.450  49.613  1.00  0.00     0.139 A 
HETATM   14  C21 UNL     1      22.437   1.947  50.224  1.00  0.00     0.053 A 
HETATM   15  C22 UNL     1      24.746   2.270  53.185  1.00  0.00     0.172 C 
ENDROOT
BRANCH  13  16
HETATM   16  N5  UNL     1      20.344   0.556  50.211  1.00  0.00    -0.363 N 
HETATM   17  H16 UNL     1      20.302  -0.444  50.321  1.00  0.00     0.162 HD
BRANCH  16  18
HETATM   18  C13 UNL     1      19.131   1.109  50.827  1.00  0.00     0.140 C 
BRANCH  18  19
HETATM   19  C14 UNL     1      18.161   1.600  49.773  1.00  0.00     0.194 C 
BRANCH  19  20
HETATM   20  O2  UNL     1      18.329   2.988  49.672  1.00  0.00    -0.399 OA
HETATM   21  H20 UNL     1      18.670   3.228  48.758  1.00  0.00     0.209 HD
ENDBRANCH  19  20
ENDBRANCH  18  19
BRANCH  18  22
HETATM   22  C15 UNL     1      18.489   0.042  51.670  1.00  0.00    -0.034 A 
HETATM   23  C16 UNL     1      17.258  -0.559  51.685  1.00  0.00     0.009 A 
HETATM   24  C17 UNL     1      16.973  -1.516  52.615  1.00  0.00     0.001 A 
HETATM   25  C18 UNL     1      17.869  -1.940  53.578  1.00  0.00     0.000 A 
HETATM   26  C19 UNL     1      19.104  -1.346  53.571  1.00  0.00     0.001 A 
HETATM   27  C20 UNL     1      19.416  -0.361  52.625  1.00  0.00     0.009 A 
ENDBRANCH  18  22
ENDBRANCH  16  18
ENDBRANCH  13  16
BRANCH   1  28
HETATM   28  C4  UNL     1      27.041   0.810  54.793  1.00  0.00     0.133 C 
BRANCH  28  29
HETATM   29  C3  UNL     1      28.190  -0.197  54.774  1.00  0.00     0.280 C 
BRANCH  29  30
HETATM   30  N1  UNL     1      29.373   0.518  54.335  1.00  0.00     0.080 N 
HETATM   31  C1  UNL     1      30.097  -0.324  53.401  1.00  0.00     0.309 C 
HETATM   32  C2  UNL     1      28.972   1.766  53.738  1.00  0.00     0.309 C 
ENDBRANCH  29  30
ENDBRANCH  28  29
ENDBRANCH   1  28
TORSDOF 8
ENDMDL
MODEL 6
REMARK VINA RESULT:      -7.3      3.004      8.326
REMARK  8 active torsions:
REMARK  status: ('A' for Active; 'I' for Inactive)
REMARK    1  A    between atoms: N1_2  and  C3_4 
REMARK    2  A    between atoms: C3_4  and  C4_5 
REMARK    3  A    between atoms: C4_5  and  C5_6 
REMARK       I    between atoms: C5_6  and  N2_8 
REMARK    4  A    between atoms: C12_18  and  N5_19 
REMARK    5  A    between atoms: N5_19  and  C13_20 
REMARK    6  A    between atoms: C13_20  and  C14_21 
REMARK    7  A    between atoms: C13_20  and  C15_23 
REMARK    8  A    between atoms: C14_21  and  O2_22 
ROOT
HETATM    1  C5  UNL     1      18.270  -0.477  52.040  1.00  0.00     0.221 C 
HETATM    2  O1  UNL     1      18.326  -0.349  50.787  1.00  0.00    -0.273 OA
HETATM    3  N2  UNL     1      19.513   0.040  52.564  1.00  0.00    -0.347 N 
HETATM    4  C6  UNL     1      20.392   0.528  51.528  1.00  0.00     0.131 C 
HETATM    5  C7  UNL     1      21.515   1.425  52.111  1.00  0.00     0.060 C 
HETATM    6  C8  UNL     1      22.411   0.587  52.921  1.00  0.00    -0.025 A 
HETATM    7  C9  UNL     1      21.521  -0.029  53.824  1.00  0.00     0.010 A 
HETATM    8  S1  UNL     1      22.532  -1.062  54.834  1.00  0.00    -0.072 SA
HETATM    9  C10 UNL     1      24.100  -0.664  54.052  1.00  0.00     0.114 A 
HETATM   10  N3  UNL     1      25.297  -1.078  54.305  1.00  0.00    -0.234 NA
HETATM   11  C11 UNL     1      26.340  -0.637  53.586  1.00  0.00     0.236 A 
HETATM   12  N4  UNL     1      26.007   0.218  52.648  1.00  0.00    -0.224 NA
HETATM   13  C12 UNL     1      24.796   0.689  52.333  1.00  0.00     0.139 A 
HETATM   14  C21 UNL     1      23.725   0.236  53.071  1.00  0.00     0.053 A 
HETATM   15  C22 UNL     1      20.050   0.166  53.898  1.00  0.00     0.172 C 
ENDROOT
BRANCH  13  16
HETATM   16  N5  UNL     1      24.735   1.631  51.241  1.00  0.00    -0.363 N 
HETATM   17  H16 UNL     1      24.413   1.569  50.290  1.00  0.00     0.162 HD
BRANCH  16  18
HETATM   18  C13 UNL     1      25.210   3.005  51.446  1.00  0.00     0.140 C 
BRANCH  18  19
HETATM   19  C14 UNL     1      26.557   3.220  50.787  1.00  0.00     0.194 C 
BRANCH  19  20
HETATM   20  O2  UNL     1      27.536   2.903  51.737  1.00  0.00    -0.399 OA
HETATM   21  H20 UNL     1      27.103   2.568  52.579  1.00  0.00     0.209 HD
ENDBRANCH  19  20
ENDBRANCH  18  19
BRANCH  18  22
HETATM   22  C15 UNL     1      24.193   3.957  50.877  1.00  0.00    -0.034 A 
HETATM   23  C16 UNL     1      23.518   5.044  51.364  1.00  0.00     0.009 A 
HETATM   24  C17 UNL     1      22.624   5.707  50.573  1.00  0.00     0.001 A 
HETATM   25  C18 UNL     1      22.341   5.348  49.268  1.00  0.00     0.000 A 
HETATM   26  C19 UNL     1      23.012   4.261  48.772  1.00  0.00     0.001 A 
HETATM   27  C20 UNL     1      23.933   3.568  49.568  1.00  0.00     0.009 A 
ENDBRANCH  18  22
ENDBRANCH  16  18
ENDBRANCH  13  16
BRANCH   1  28
HETATM   28  C4  UNL     1      17.259  -1.008  52.990  1.00  0.00     0.133 C 
BRANCH  28  29
HETATM   29  C3  UNL     1      15.907  -0.421  52.591  1.00  0.00     0.280 C 
BRANCH  29  30
HETATM   30  N1  UNL     1      15.280  -1.372  51.692  1.00  0.00     0.080 N 
HETATM   31  C1  UNL     1      14.757  -2.472  52.482  1.00  0.00     0.309 C 
HETATM   32  C2  UNL     1      14.247  -0.702  50.946  1.00  0.00     0.309 C 
ENDBRANCH  29  30
ENDBRANCH  28  29
ENDBRANCH   1  28
TORSDOF 8
ENDMDL
MODEL 7
REMARK VINA RESULT:      -7.3      4.336      9.117
REMARK  8 active torsions:
REMARK  status: ('A' for Active; 'I' for Inactive)
REMARK    1  A    between atoms: N1_2  and  C3_4 
REMARK    2  A    between atoms: C3_4  and  C4_5 
REMARK    3  A    between atoms: C4_5  and  C5_6 
REMARK       I    between atoms: C5_6  and  N2_8 
REMARK    4  A    between atoms: C12_18  and  N5_19 
REMARK    5  A    between atoms: N5_19  and  C13_20 
REMARK    6  A    between atoms: C13_20  and  C14_21 
REMARK    7  A    between atoms: C13_20  and  C15_23 
REMARK    8  A    between atoms: C14_21  and  O2_22 
ROOT
HETATM    1  C5  UNL     1      25.002   3.830  50.405  1.00  0.00     0.221 C 
HETATM    2  O1  UNL     1      25.841   2.970  50.785  1.00  0.00    -0.273 OA
HETATM    3  N2  UNL     1      25.720   4.769  49.574  1.00  0.00    -0.347 N 
HETATM    4  C6  UNL     1      27.118   4.436  49.439  1.00  0.00     0.131 C 
HETATM    5  C7  UNL     1      27.771   5.193  48.254  1.00  0.00     0.060 C 
HETATM    6  C8  UNL     1      27.816   6.625  48.581  1.00  0.00    -0.025 A 
HETATM    7  C9  UNL     1      26.469   6.912  48.887  1.00  0.00     0.010 A 
HETATM    8  S1  UNL     1      26.445   8.627  49.297  1.00  0.00    -0.072 SA
HETATM    9  C10 UNL     1      28.199   8.933  49.058  1.00  0.00     0.114 A 
HETATM   10  N3  UNL     1      28.891  10.016  49.186  1.00  0.00    -0.234 NA
HETATM   11  C11 UNL     1      30.211  10.017  48.946  1.00  0.00     0.236 A 
HETATM   12  N4  UNL     1      30.681   8.846  48.587  1.00  0.00    -0.224 NA
HETATM   13  C12 UNL     1      30.026   7.691  48.433  1.00  0.00     0.139 A 
HETATM   14  C21 UNL     1      28.671   7.689  48.679  1.00  0.00     0.053 A 
HETATM   15  C22 UNL     1      25.328   5.960  48.860  1.00  0.00     0.172 C 
ENDROOT
BRANCH  13  16
HETATM   16  N5  UNL     1      30.815   6.553  48.023  1.00  0.00    -0.363 N 
HETATM   17  H16 UNL     1      30.643   5.778  47.406  1.00  0.00     0.162 HD
BRANCH  16  18
HETATM   18  C13 UNL     1      32.176   6.391  48.550  1.00  0.00     0.140 C 
BRANCH  18  19
HETATM   19  C14 UNL     1      32.173   6.357  50.065  1.00  0.00     0.194 C 
BRANCH  19  20
HETATM   20  O2  UNL     1      31.312   5.322  50.453  1.00  0.00    -0.399 OA
HETATM   21  H20 UNL     1      31.471   4.510  49.884  1.00  0.00     0.209 HD
ENDBRANCH  19  20
ENDBRANCH  18  19
BRANCH  18  22
HETATM   22  C15 UNL     1      32.756   5.116  48.001  1.00  0.00    -0.034 A 
HETATM   23  C16 UNL     1      33.998   4.538  48.027  1.00  0.00     0.009 A 
HETATM   24  C17 UNL     1      34.210   3.342  47.403  1.00  0.00     0.001 A 
HETATM   25  C18 UNL     1      33.227   2.646  46.725  1.00  0.00     0.000 A 
HETATM   26  C19 UNL     1      31.981   3.217  46.694  1.00  0.00     0.001 A 
HETATM   27  C20 UNL     1      31.744   4.443  47.327  1.00  0.00     0.009 A 
ENDBRANCH  18  22
ENDBRANCH  16  18
ENDBRANCH  13  16
BRANCH   1  28
HETATM   28  C4  UNL     1      23.549   4.040  50.630  1.00  0.00     0.133 C 
BRANCH  28  29
HETATM   29  C3  UNL     1      23.379   4.554  52.059  1.00  0.00     0.280 C 
BRANCH  29  30
HETATM   30  N1  UNL     1      21.998   4.979  52.195  1.00  0.00     0.080 N 
HETATM   31  C1  UNL     1      21.715   5.955  51.159  1.00  0.00     0.309 C 
HETATM   32  C2  UNL     1      21.142   3.825  52.100  1.00  0.00     0.309 C 
ENDBRANCH  29  30
ENDBRANCH  28  29
ENDBRANCH   1  28
TORSDOF 8
ENDMDL
MODEL 8
REMARK VINA RESULT:      -7.2      2.815      6.848
REMARK  8 active torsions:
REMARK  status: ('A' for Active; 'I' for Inactive)
REMARK    1  A    between atoms: N1_2  and  C3_4 
REMARK    2  A    between atoms: C3_4  and  C4_5 
REMARK    3  A    between atoms: C4_5  and  C5_6 
REMARK       I    between atoms: C5_6  and  N2_8 
REMARK    4  A    between atoms: C12_18  and  N5_19 
REMARK    5  A    between atoms: N5_19  and  C13_20 
REMARK    6  A    between atoms: C13_20  and  C14_21 
REMARK    7  A    between atoms: C13_20  and  C15_23 
REMARK    8  A    between atoms: C14_21  and  O2_22 
ROOT
HETATM    1  C5  UNL     1      25.937   1.220  53.958  1.00  0.00     0.221 C 
HETATM    2  O1  UNL     1      26.220   2.330  54.484  1.00  0.00    -0.273 OA
HETATM    3  N2  UNL     1      24.893   1.473  52.993  1.00  0.00    -0.347 N 
HETATM    4  C6  UNL     1      24.520   2.866  52.931  1.00  0.00     0.131 C 
HETATM    5  C7  UNL     1      23.713   3.182  51.645  1.00  0.00     0.060 C 
HETATM    6  C8  UNL     1      22.409   2.507  51.733  1.00  0.00    -0.025 A 
HETATM    7  C9  UNL     1      22.774   1.166  51.973  1.00  0.00     0.010 A 
HETATM    8  S1  UNL     1      21.249   0.289  52.095  1.00  0.00    -0.072 SA
HETATM    9  C10 UNL     1      20.166   1.697  51.829  1.00  0.00     0.114 A 
HETATM   10  N3  UNL     1      18.877   1.773  51.786  1.00  0.00    -0.234 NA
HETATM   11  C11 UNL     1      18.267   2.947  51.565  1.00  0.00     0.236 A 
HETATM   12  N4  UNL     1      19.099   3.949  51.407  1.00  0.00    -0.224 NA
HETATM   13  C12 UNL     1      20.435   3.943  51.438  1.00  0.00     0.139 A 
HETATM   14  C21 UNL     1      21.062   2.738  51.665  1.00  0.00     0.053 A 
HETATM   15  C22 UNL     1      24.154   0.626  52.088  1.00  0.00     0.172 C 
ENDROOT
BRANCH  13  16
HETATM   16  N5  UNL     1      21.091   5.213  51.229  1.00  0.00    -0.363 N 
HETATM   17  H16 UNL     1      21.490   5.896  51.850  1.00  0.00     0.162 HD
BRANCH  16  18
HETATM   18  C13 UNL     1      21.277   5.712  49.861  1.00  0.00     0.140 C 
BRANCH  18  19
HETATM   19  C14 UNL     1      20.471   6.973  49.627  1.00  0.00     0.194 C 
BRANCH  19  20
HETATM   20  O2  UNL     1      19.119   6.607  49.643  1.00  0.00    -0.399 OA
HETATM   21  H20 UNL     1      18.868   6.176  48.772  1.00  0.00     0.209 HD
ENDBRANCH  19  20
ENDBRANCH  18  19
BRANCH  18  22
HETATM   22  C15 UNL     1      22.741   5.981  49.641  1.00  0.00    -0.034 A 
HETATM   23  C16 UNL     1      23.647   5.629  48.675  1.00  0.00     0.009 A 
HETATM   24  C17 UNL     1      24.947   6.036  48.773  1.00  0.00     0.001 A 
HETATM   25  C18 UNL     1      25.432   6.805  49.813  1.00  0.00     0.000 A 
HETATM   26  C19 UNL     1      24.534   7.163  50.784  1.00  0.00     0.001 A 
HETATM   27  C20 UNL     1      23.196   6.755  50.702  1.00  0.00     0.009 A 
ENDBRANCH  18  22
ENDBRANCH  16  18
ENDBRANCH  13  16
BRANCH   1  28
HETATM   28  C4  UNL     1      26.432  -0.170  54.129  1.00  0.00     0.133 C 
BRANCH  28  29
HETATM   29  C3  UNL     1      27.818  -0.085  54.765  1.00  0.00     0.280 C 
BRANCH  29  30
HETATM   30  N1  UNL     1      28.773   0.059  53.682  1.00  0.00     0.080 N 
HETATM   31  C1  UNL     1      29.583   1.235  53.939  1.00  0.00     0.309 C 
HETATM   32  C2  UNL     1      29.569  -1.138  53.597  1.00  0.00     0.309 C 
ENDBRANCH  29  30
ENDBRANCH  28  29
ENDBRANCH   1  28
TORSDOF 8
ENDMDL
MODEL 9
REMARK VINA RESULT:      -7.0      3.080      6.722
REMARK  8 active torsions:
REMARK  status: ('A' for Active; 'I' for Inactive)
REMARK    1  A    between atoms: N1_2  and  C3_4 
REMARK    2  A    between atoms: C3_4  and  C4_5 
REMARK    3  A    between atoms: C4_5  and  C5_6 
REMARK       I    between atoms: C5_6  and  N2_8 
REMARK    4  A    between atoms: C12_18  and  N5_19 
REMARK    5  A    between atoms: N5_19  and  C13_20 
REMARK    6  A    between atoms: C13_20  and  C14_21 
REMARK    7  A    between atoms: C13_20  and  C15_23 
REMARK    8  A    between atoms: C14_21  and  O2_22 
ROOT
HETATM    1  C5  UNL     1      17.227  -0.154  51.520  1.00  0.00     0.221 C 
HETATM    2  O1  UNL     1      17.589  -1.087  52.287  1.00  0.00    -0.273 OA
HETATM    3  N2  UNL     1      18.429   0.538  51.115  1.00  0.00    -0.347 N 
HETATM    4  C6  UNL     1      19.622  -0.037  51.689  1.00  0.00     0.131 C 
HETATM    5  C7  UNL     1      20.897   0.443  50.950  1.00  0.00     0.060 C 
HETATM    6  C8  UNL     1      21.078   1.878  51.212  1.00  0.00    -0.025 A 
HETATM    7  C9  UNL     1      19.839   2.421  50.814  1.00  0.00     0.010 A 
HETATM    8  S1  UNL     1      19.980   4.154  51.107  1.00  0.00    -0.072 SA
HETATM    9  C10 UNL     1      21.660   4.132  51.743  1.00  0.00     0.114 A 
HETATM   10  N3  UNL     1      22.418   5.092  52.159  1.00  0.00    -0.234 NA
HETATM   11  C11 UNL     1      23.662   4.844  52.593  1.00  0.00     0.236 A 
HETATM   12  N4  UNL     1      23.992   3.575  52.544  1.00  0.00    -0.224 NA
HETATM   13  C12 UNL     1      23.264   2.535  52.128  1.00  0.00     0.139 A 
HETATM   14  C21 UNL     1      21.986   2.789  51.682  1.00  0.00     0.053 A 
HETATM   15  C22 UNL     1      18.676   1.677  50.264  1.00  0.00     0.172 C 
ENDROOT
BRANCH  13  16
HETATM   16  N5  UNL     1      23.897   1.239  52.189  1.00  0.00    -0.363 N 
HETATM   17  H16 UNL     1      24.295   0.628  51.495  1.00  0.00     0.162 HD
BRANCH  16  18
HETATM   18  C13 UNL     1      24.056   0.574  53.489  1.00  0.00     0.140 C 
BRANCH  18  19
HETATM   19  C14 UNL     1      23.252  -0.708  53.548  1.00  0.00     0.194 C 
BRANCH  19  20
HETATM   20  O2  UNL     1      22.090  -0.433  54.281  1.00  0.00    -0.399 OA
HETATM   21  H20 UNL     1      21.331  -0.220  53.658  1.00  0.00     0.209 HD
ENDBRANCH  19  20
ENDBRANCH  18  19
BRANCH  18  22
HETATM   22  C15 UNL     1      25.516   0.285  53.708  1.00  0.00    -0.034 A 
HETATM   23  C16 UNL     1      26.455   0.711  54.609  1.00  0.00     0.009 A 
HETATM   24  C17 UNL     1      27.739   0.254  54.530  1.00  0.00     0.001 A 
HETATM   25  C18 UNL     1      28.176  -0.641  53.572  1.00  0.00     0.000 A 
HETATM   26  C19 UNL     1      27.244  -1.074  52.665  1.00  0.00     0.001 A 
HETATM   27  C20 UNL     1      25.921  -0.616  52.730  1.00  0.00     0.009 A 
ENDBRANCH  18  22
ENDBRANCH  16  18
ENDBRANCH  13  16
BRANCH   1  28
HETATM   28  C4  UNL     1      15.919   0.320  51.001  1.00  0.00     0.133 C 
BRANCH  28  29
HETATM   29  C3  UNL     1      15.232   1.084  52.132  1.00  0.00     0.280 C 
BRANCH  29  30
HETATM   30  N1  UNL     1      15.477   2.495  51.901  1.00  0.00     0.080 N 
HETATM   31  C1  UNL     1      15.101   2.808  50.534  1.00  0.00     0.309 C 
HETATM   32  C2  UNL     1      14.726   3.265  52.858  1.00  0.00     0.309 C 
ENDBRANCH  29  30
ENDBRANCH  28  29
ENDBRANCH   1  28
TORSDOF 8
ENDMDL
