MODEL 1
REMARK VINA RESULT:      -8.0      0.000      0.000
REMARK  4 active torsions:
REMARK  status: ('A' for Active; 'I' for Inactive)
REMARK    1  A    between atoms: C1_2  and  C2_3 
REMARK    2  A    between atoms: C1_2  and  C8_10 
REMARK    3  A    between atoms: C8_10  and  N2_11 
REMARK    4  A    between atoms: N2_11  and  C9_12 
ROOT
HETATM    1  C8  UNL     1      25.954   0.303  53.815  1.00  0.00     0.099 C 
HETATM    2  C12 UNL     1      26.042  -0.207  52.400  1.00  0.00     0.024 C 
HETATM    3  C13 UNL     1      26.598  -1.400  52.410  1.00  0.00    -0.015 C 
HETATM    4  C14 UNL     1      27.761  -1.471  52.981  1.00  0.00    -0.018 C 
HETATM    5  C15 UNL     1      28.259  -0.351  53.467  1.00  0.00    -0.011 C 
HETATM    6  C16 UNL     1      27.319   0.303  54.415  1.00  0.00     0.070 C 
ENDROOT
BRANCH   1   7
HETATM    7  C1  UNL     1      24.967  -0.537  54.535  1.00  0.00     0.068 C 
HETATM    8  N1  UNL     1      25.344  -1.250  55.509  1.00  0.00    -0.301 NA
HETATM    9  H1  UNL     1      24.802  -1.876  56.106  1.00  0.00     0.186 HD
BRANCH   7  10
HETATM   10  C2  UNL     1      23.566  -0.549  54.135  1.00  0.00    -0.009 A 
HETATM   11  C3  UNL     1      22.556  -0.918  54.996  1.00  0.00     0.015 A 
HETATM   12  C4  UNL     1      21.213  -0.950  54.674  1.00  0.00     0.020 A 
HETATM   13  C5  UNL     1      20.826  -0.585  53.388  1.00  0.00     0.011 A 
HETATM   14 BR1  UNL     1      18.999  -0.607  52.878  1.00  0.00    -0.051 Br
HETATM   15  C6  UNL     1      21.793  -0.208  52.487  1.00  0.00     0.020 A 
HETATM   16  C7  UNL     1      23.112  -0.201  52.881  1.00  0.00     0.015 A 
ENDBRANCH   7  10
ENDBRANCH   1   7
BRANCH   1  17
HETATM   17  N2  UNL     1      25.473   1.687  53.795  1.00  0.00    -0.350 N 
HETATM   18  H6  UNL     1      25.015   2.241  54.556  1.00  0.00     0.163 HD
BRANCH  17  19
HETATM   19  C9  UNL     1      25.725   2.260  52.497  1.00  0.00     0.167 A 
HETATM   20  N3  UNL     1      26.686   2.450  51.813  1.00  0.00    -0.236 NA
HETATM   21  C10 UNL     1      26.649   3.014  50.613  1.00  0.00     0.126 A 
HETATM   22  C11 UNL     1      25.397   3.413  50.121  1.00  0.00     0.072 A 
HETATM   23  S1  UNL     1      24.303   2.910  51.514  1.00  0.00    -0.063 SA
ENDBRANCH  17  19
ENDBRANCH   1  17
TORSDOF 4
ENDMDL
MODEL 2
REMARK VINA RESULT:      -7.5      3.485      5.973
REMARK  4 active torsions:
REMARK  status: ('A' for Active; 'I' for Inactive)
REMARK    1  A    between atoms: C1_2  and  C2_3 
REMARK    2  A    between atoms: C1_2  and  C8_10 
REMARK    3  A    between atoms: C8_10  and  N2_11 
REMARK    4  A    between atoms: N2_11  and  C9_12 
ROOT
HETATM    1  C8  UNL     1      22.096   0.282  52.622  1.00  0.00     0.099 C 
HETATM    2  C12 UNL     1      20.985   0.633  53.577  1.00  0.00     0.024 C 
HETATM    3  C13 UNL     1      21.359   0.321  54.800  1.00  0.00    -0.015 C 
HETATM    4  C14 UNL     1      21.722  -0.912  54.977  1.00  0.00    -0.018 C 
HETATM    5  C15 UNL     1      21.662  -1.710  53.929  1.00  0.00    -0.011 C 
HETATM    6  C16 UNL     1      22.427  -1.164  52.777  1.00  0.00     0.070 C 
ENDROOT
BRANCH   1   7
HETATM    7  C1  UNL     1      23.228   1.202  52.889  1.00  0.00     0.068 C 
HETATM    8  N1  UNL     1      23.014   2.445  52.989  1.00  0.00    -0.301 NA
HETATM    9  H1  UNL     1      23.670   3.206  53.170  1.00  0.00     0.186 HD
BRANCH   7  10
HETATM   10  C2  UNL     1      24.584   0.691  53.039  1.00  0.00    -0.009 A 
HETATM   11  C3  UNL     1      25.471   0.636  51.987  1.00  0.00     0.015 A 
HETATM   12  C4  UNL     1      26.767   0.162  52.069  1.00  0.00     0.020 A 
HETATM   13  C5  UNL     1      27.233  -0.299  53.296  1.00  0.00     0.011 A 
HETATM   14 BR1  UNL     1      29.000  -0.963  53.479  1.00  0.00    -0.051 Br
HETATM   15  C6  UNL     1      26.389  -0.266  54.380  1.00  0.00     0.020 A 
HETATM   16  C7  UNL     1      25.111   0.220  54.222  1.00  0.00     0.015 A 
ENDBRANCH   7  10
ENDBRANCH   1   7
BRANCH   1  17
HETATM   17  N2  UNL     1      21.630   0.490  51.249  1.00  0.00    -0.350 N 
HETATM   18  H6  UNL     1      22.177   0.495  50.356  1.00  0.00     0.163 HD
BRANCH  17  19
HETATM   19  C9  UNL     1      20.205   0.704  51.257  1.00  0.00     0.167 A 
HETATM   20  N3  UNL     1      19.235   0.022  51.403  1.00  0.00    -0.236 NA
HETATM   21  C10 UNL     1      17.990   0.477  51.366  1.00  0.00     0.126 A 
HETATM   22  C11 UNL     1      17.806   1.850  51.140  1.00  0.00     0.072 A 
HETATM   23  S1  UNL     1      19.553   2.410  50.990  1.00  0.00    -0.063 SA
ENDBRANCH  17  19
ENDBRANCH   1  17
TORSDOF 4
ENDMDL
MODEL 3
REMARK VINA RESULT:      -7.5      3.723      6.592
REMARK  4 active torsions:
REMARK  status: ('A' for Active; 'I' for Inactive)
REMARK    1  A    between atoms: C1_2  and  C2_3 
REMARK    2  A    between atoms: C1_2  and  C8_10 
REMARK    3  A    between atoms: C8_10  and  N2_11 
REMARK    4  A    between atoms: N2_11  and  C9_12 
ROOT
HETATM    1  C8  UNL     1      23.500   2.457  51.648  1.00  0.00     0.099 C 
HETATM    2  C12 UNL     1      22.151   2.981  52.066  1.00  0.00     0.024 C 
HETATM    3  C13 UNL     1      22.165   4.296  52.004  1.00  0.00    -0.015 C 
HETATM    4  C14 UNL     1      23.099   4.878  52.690  1.00  0.00    -0.018 C 
HETATM    5  C15 UNL     1      23.910   4.100  53.379  1.00  0.00    -0.011 C 
HETATM    6  C16 UNL     1      24.546   3.069  52.517  1.00  0.00     0.070 C 
ENDROOT
BRANCH   1   7
HETATM    7  C1  UNL     1      23.664   2.738  50.201  1.00  0.00     0.068 C 
HETATM    8  N1  UNL     1      22.871   2.212  49.368  1.00  0.00    -0.301 NA
HETATM    9  H1  UNL     1      22.842   2.300  48.351  1.00  0.00     0.186 HD
BRANCH   7  10
HETATM   10  C2  UNL     1      24.727   3.614  49.728  1.00  0.00    -0.009 A 
HETATM   11  C3  UNL     1      24.493   4.917  49.347  1.00  0.00     0.015 A 
HETATM   12  C4  UNL     1      25.459   5.793  48.890  1.00  0.00     0.020 A 
HETATM   13  C5  UNL     1      26.775   5.349  48.801  1.00  0.00     0.011 A 
HETATM   14 BR1  UNL     1      28.151   6.499  48.182  1.00  0.00    -0.051 Br
HETATM   15  C6  UNL     1      27.064   4.058  49.170  1.00  0.00     0.020 A 
HETATM   16  C7  UNL     1      26.049   3.242  49.615  1.00  0.00     0.015 A 
ENDBRANCH   7  10
ENDBRANCH   1   7
BRANCH   1  17
HETATM   17  N2  UNL     1      23.536   1.008  51.857  1.00  0.00    -0.350 N 
HETATM   18  H6  UNL     1      22.775   0.300  51.727  1.00  0.00     0.163 HD
BRANCH  17  19
HETATM   19  C9  UNL     1      24.852   0.622  52.298  1.00  0.00     0.167 A 
HETATM   20  N3  UNL     1      25.961   0.695  51.859  1.00  0.00    -0.236 NA
HETATM   21  C10 UNL     1      27.042   0.251  52.486  1.00  0.00     0.126 A 
HETATM   22  C11 UNL     1      26.866  -0.343  53.744  1.00  0.00     0.072 A 
HETATM   23  S1  UNL     1      25.041  -0.204  53.938  1.00  0.00    -0.063 SA
ENDBRANCH  17  19
ENDBRANCH   1  17
TORSDOF 4
ENDMDL
MODEL 4
REMARK VINA RESULT:      -7.5      3.181      5.481
REMARK  4 active torsions:
REMARK  status: ('A' for Active; 'I' for Inactive)
REMARK    1  A    between atoms: C1_2  and  C2_3 
REMARK    2  A    between atoms: C1_2  and  C8_10 
REMARK    3  A    between atoms: C8_10  and  N2_11 
REMARK    4  A    between atoms: N2_11  and  C9_12 
ROOT
HETATM    1  C8  UNL     1      24.698   1.525  52.218  1.00  0.00     0.099 C 
HETATM    2  C12 UNL     1      23.515   1.157  51.360  1.00  0.00     0.024 C 
HETATM    3  C13 UNL     1      22.411   1.337  52.055  1.00  0.00    -0.015 C 
HETATM    4  C14 UNL     1      22.353   0.706  53.187  1.00  0.00    -0.018 C 
HETATM    5  C15 UNL     1      23.385  -0.051  53.504  1.00  0.00    -0.011 C 
HETATM    6  C16 UNL     1      24.659   0.714  53.468  1.00  0.00     0.070 C 
ENDROOT
BRANCH   1   7
HETATM    7  C1  UNL     1      24.657   2.991  52.436  1.00  0.00     0.068 C 
HETATM    8  N1  UNL     1      24.763   3.453  53.608  1.00  0.00    -0.301 NA
HETATM    9  H1  UNL     1      24.757   4.422  53.930  1.00  0.00     0.186 HD
BRANCH   7  10
HETATM   10  C2  UNL     1      24.498   3.907  51.314  1.00  0.00    -0.009 A 
HETATM   11  C3  UNL     1      23.391   4.715  51.173  1.00  0.00     0.015 A 
HETATM   12  C4  UNL     1      23.185   5.600  50.132  1.00  0.00     0.020 A 
HETATM   13  C5  UNL     1      24.155   5.702  49.140  1.00  0.00     0.011 A 
HETATM   14 BR1  UNL     1      23.937   6.897  47.683  1.00  0.00    -0.051 Br
HETATM   15  C6  UNL     1      25.281   4.920  49.232  1.00  0.00     0.020 A 
HETATM   16  C7  UNL     1      25.416   4.060  50.298  1.00  0.00     0.015 A 
ENDBRANCH   7  10
ENDBRANCH   1   7
BRANCH   1  17
HETATM   17  N2  UNL     1      25.931   1.187  51.502  1.00  0.00    -0.350 N 
HETATM   18  H6  UNL     1      26.056   0.853  50.517  1.00  0.00     0.163 HD
BRANCH  17  19
HETATM   19  C9  UNL     1      27.058   1.381  52.378  1.00  0.00     0.167 A 
HETATM   20  N3  UNL     1      27.717   2.312  52.735  1.00  0.00    -0.236 NA
HETATM   21  C10 UNL     1      28.737   2.223  53.579  1.00  0.00     0.126 A 
HETATM   22  C11 UNL     1      29.059   0.953  54.079  1.00  0.00     0.072 A 
HETATM   23  S1  UNL     1      27.785  -0.079  53.242  1.00  0.00    -0.063 SA
ENDBRANCH  17  19
ENDBRANCH   1  17
TORSDOF 4
ENDMDL
MODEL 5
REMARK VINA RESULT:      -7.4      3.476      5.871
REMARK  4 active torsions:
REMARK  status: ('A' for Active; 'I' for Inactive)
REMARK    1  A    between atoms: C1_2  and  C2_3 
REMARK    2  A    between atoms: C1_2  and  C8_10 
REMARK    3  A    between atoms: C8_10  and  N2_11 
REMARK    4  A    between atoms: N2_11  and  C9_12 
ROOT
HETATM    1  C8  UNL     1      24.328   2.961  50.874  1.00  0.00     0.099 C 
HETATM    2  C12 UNL     1      25.450   2.913  49.870  1.00  0.00     0.024 C 
HETATM    3  C13 UNL     1      26.172   4.008  49.983  1.00  0.00    -0.015 C 
HETATM    4  C14 UNL     1      25.519   5.123  49.866  1.00  0.00    -0.018 C 
HETATM    5  C15 UNL     1      24.224   5.038  49.633  1.00  0.00    -0.011 C 
HETATM    6  C16 UNL     1      23.535   4.205  50.654  1.00  0.00     0.070 C 
ENDROOT
BRANCH   1   7
HETATM    7  C1  UNL     1      24.928   2.847  52.225  1.00  0.00     0.068 C 
HETATM    8  N1  UNL     1      24.544   3.622  53.148  1.00  0.00    -0.301 NA
HETATM    9  H1  UNL     1      24.848   3.676  54.122  1.00  0.00     0.186 HD
BRANCH   7  10
HETATM   10  C2  UNL     1      25.954   1.850  52.503  1.00  0.00    -0.009 A 
HETATM   11  C3  UNL     1      27.199   2.189  52.986  1.00  0.00     0.015 A 
HETATM   12  C4  UNL     1      28.210   1.290  53.267  1.00  0.00     0.020 A 
HETATM   13  C5  UNL     1      27.977  -0.065  53.054  1.00  0.00     0.011 A 
HETATM   14 BR1  UNL     1      29.321  -1.353  53.418  1.00  0.00    -0.051 Br
HETATM   15  C6  UNL     1      26.751  -0.459  52.573  1.00  0.00     0.020 A 
HETATM   16  C7  UNL     1      25.793   0.495  52.317  1.00  0.00     0.015 A 
ENDBRANCH   7  10
ENDBRANCH   1   7
BRANCH   1  17
HETATM   17  N2  UNL     1      23.439   1.818  50.652  1.00  0.00    -0.350 N 
HETATM   18  H6  UNL     1      23.631   0.913  50.162  1.00  0.00     0.163 HD
BRANCH  17  19
HETATM   19  C9  UNL     1      22.152   2.096  51.238  1.00  0.00     0.167 A 
HETATM   20  N3  UNL     1      21.726   2.246  52.344  1.00  0.00    -0.236 NA
HETATM   21  C10 UNL     1      20.455   2.502  52.626  1.00  0.00     0.126 A 
HETATM   22  C11 UNL     1      19.558   2.600  51.552  1.00  0.00     0.072 A 
HETATM   23  S1  UNL     1      20.688   2.298  50.130  1.00  0.00    -0.063 SA
ENDBRANCH  17  19
ENDBRANCH   1  17
TORSDOF 4
ENDMDL
MODEL 6
REMARK VINA RESULT:      -7.3      4.389      7.196
REMARK  4 active torsions:
REMARK  status: ('A' for Active; 'I' for Inactive)
REMARK    1  A    between atoms: C1_2  and  C2_3 
REMARK    2  A    between atoms: C1_2  and  C8_10 
REMARK    3  A    between atoms: C8_10  and  N2_11 
REMARK    4  A    between atoms: N2_11  and  C9_12 
ROOT
HETATM    1  C8  UNL     1      23.360   2.736  51.217  1.00  0.00     0.099 C 
HETATM    2  C12 UNL     1      21.958   3.199  51.519  1.00  0.00     0.024 C 
HETATM    3  C13 UNL     1      21.922   4.514  51.467  1.00  0.00    -0.015 C 
HETATM    4  C14 UNL     1      22.766   5.127  52.236  1.00  0.00    -0.018 C 
HETATM    5  C15 UNL     1      23.547   4.376  52.988  1.00  0.00    -0.011 C 
HETATM    6  C16 UNL     1      24.298   3.381  52.179  1.00  0.00     0.070 C 
ENDROOT
BRANCH   1   7
HETATM    7  C1  UNL     1      23.637   3.038  49.792  1.00  0.00     0.068 C 
HETATM    8  N1  UNL     1      22.893   2.552  48.893  1.00  0.00    -0.301 NA
HETATM    9  H1  UNL     1      22.942   2.660  47.878  1.00  0.00     0.186 HD
BRANCH   7  10
HETATM   10  C2  UNL     1      24.756   3.892  49.416  1.00  0.00    -0.009 A 
HETATM   11  C3  UNL     1      26.059   3.445  49.426  1.00  0.00     0.015 A 
HETATM   12  C4  UNL     1      27.160   4.207  49.082  1.00  0.00     0.020 A 
HETATM   13  C5  UNL     1      26.961   5.528  48.691  1.00  0.00     0.011 A 
HETATM   14 BR1  UNL     1      28.427   6.630  48.205  1.00  0.00    -0.051 Br
HETATM   15  C6  UNL     1      25.681   6.025  48.662  1.00  0.00     0.020 A 
HETATM   16  C7  UNL     1      24.634   5.206  49.019  1.00  0.00     0.015 A 
ENDBRANCH   7  10
ENDBRANCH   1   7
BRANCH   1  17
HETATM   17  N2  UNL     1      23.438   1.287  51.418  1.00  0.00    -0.350 N 
HETATM   18  H6  UNL     1      24.132   0.601  51.037  1.00  0.00     0.163 HD
BRANCH  17  19
HETATM   19  C9  UNL     1      22.361   0.866  52.277  1.00  0.00     0.167 A 
HETATM   20  N3  UNL     1      22.172   0.816  53.455  1.00  0.00    -0.236 NA
HETATM   21  C10 UNL     1      21.053   0.372  54.014  1.00  0.00     0.126 A 
HETATM   22  C11 UNL     1      20.030  -0.066  53.159  1.00  0.00     0.072 A 
HETATM   23  S1  UNL     1      20.810   0.215  51.516  1.00  0.00    -0.063 SA
ENDBRANCH  17  19
ENDBRANCH   1  17
TORSDOF 4
ENDMDL
MODEL 7
REMARK VINA RESULT:      -7.2      2.092      4.614
REMARK  4 active torsions:
REMARK  status: ('A' for Active; 'I' for Inactive)
REMARK    1  A    between atoms: C1_2  and  C2_3 
REMARK    2  A    between atoms: C1_2  and  C8_10 
REMARK    3  A    between atoms: C8_10  and  N2_11 
REMARK    4  A    between atoms: N2_11  and  C9_12 
ROOT
HETATM    1  C8  UNL     1      24.689   3.717  51.035  1.00  0.00     0.099 C 
HETATM    2  C12 UNL     1      24.451   5.052  50.378  1.00  0.00     0.024 C 
HETATM    3  C13 UNL     1      23.196   5.119  49.988  1.00  0.00    -0.015 C 
HETATM    4  C14 UNL     1      22.801   4.163  49.205  1.00  0.00    -0.018 C 
HETATM    5  C15 UNL     1      23.695   3.250  48.877  1.00  0.00    -0.011 C 
HETATM    6  C16 UNL     1      24.319   2.635  50.077  1.00  0.00     0.070 C 
ENDROOT
BRANCH   1   7
HETATM    7  C1  UNL     1      23.926   3.698  52.306  1.00  0.00     0.068 C 
HETATM    8  N1  UNL     1      24.179   4.555  53.201  1.00  0.00    -0.301 NA
HETATM    9  H1  UNL     1      23.752   4.682  54.120  1.00  0.00     0.186 HD
BRANCH   7  10
HETATM   10  C2  UNL     1      22.886   2.704  52.535  1.00  0.00    -0.009 A 
HETATM   11  C3  UNL     1      23.167   1.435  52.991  1.00  0.00     0.015 A 
HETATM   12  C4  UNL     1      22.225   0.451  53.225  1.00  0.00     0.020 A 
HETATM   13  C5  UNL     1      20.884   0.742  52.993  1.00  0.00     0.011 A 
HETATM   14 BR1  UNL     1      19.539  -0.561  53.293  1.00  0.00    -0.051 Br
HETATM   15  C6  UNL     1      20.547   1.994  52.538  1.00  0.00     0.020 A 
HETATM   16  C7  UNL     1      21.541   2.922  52.327  1.00  0.00     0.015 A 
ENDBRANCH   7  10
ENDBRANCH   1   7
BRANCH   1  17
HETATM   17  N2  UNL     1      26.116   3.580  51.337  1.00  0.00    -0.350 N 
HETATM   18  H6  UNL     1      26.883   4.288  51.253  1.00  0.00     0.163 HD
BRANCH  17  19
HETATM   19  C9  UNL     1      26.377   2.243  51.806  1.00  0.00     0.167 A 
HETATM   20  N3  UNL     1      26.360   1.147  51.331  1.00  0.00    -0.236 NA
HETATM   21  C10 UNL     1      26.653   0.039  51.999  1.00  0.00     0.126 A 
HETATM   22  C11 UNL     1      27.002   0.168  53.352  1.00  0.00     0.072 A 
HETATM   23  S1  UNL     1      26.874   1.992  53.567  1.00  0.00    -0.063 SA
ENDBRANCH  17  19
ENDBRANCH   1  17
TORSDOF 4
ENDMDL
MODEL 8
REMARK VINA RESULT:      -7.2      3.428      5.770
REMARK  4 active torsions:
REMARK  status: ('A' for Active; 'I' for Inactive)
REMARK    1  A    between atoms: C1_2  and  C2_3 
REMARK    2  A    between atoms: C1_2  and  C8_10 
REMARK    3  A    between atoms: C8_10  and  N2_11 
REMARK    4  A    between atoms: N2_11  and  C9_12 
ROOT
HETATM    1  C8  UNL     1      24.261   4.829  50.454  1.00  0.00     0.099 C 
HETATM    2  C12 UNL     1      23.432   5.964  49.910  1.00  0.00     0.024 C 
HETATM    3  C13 UNL     1      22.188   5.556  49.772  1.00  0.00    -0.015 C 
HETATM    4  C14 UNL     1      22.025   4.497  49.041  1.00  0.00    -0.018 C 
HETATM    5  C15 UNL     1      23.107   3.963  48.510  1.00  0.00    -0.011 C 
HETATM    6  C16 UNL     1      24.132   3.657  49.543  1.00  0.00     0.070 C 
ENDROOT
BRANCH   1   7
HETATM    7  C1  UNL     1      23.818   4.575  51.847  1.00  0.00     0.068 C 
HETATM    8  N1  UNL     1      23.784   5.529  52.677  1.00  0.00    -0.301 NA
HETATM    9  H1  UNL     1      23.506   5.527  53.659  1.00  0.00     0.186 HD
BRANCH   7  10
HETATM   10  C2  UNL     1      23.419   3.239  52.269  1.00  0.00    -0.009 A 
HETATM   11  C3  UNL     1      24.330   2.300  52.702  1.00  0.00     0.015 A 
HETATM   12  C4  UNL     1      24.013   1.020  53.112  1.00  0.00     0.020 A 
HETATM   13  C5  UNL     1      22.678   0.626  53.099  1.00  0.00     0.011 A 
HETATM   14 BR1  UNL     1      22.171  -1.117  53.650  1.00  0.00    -0.051 Br
HETATM   15  C6  UNL     1      21.727   1.524  52.677  1.00  0.00     0.020 A 
HETATM   16  C7  UNL     1      22.120   2.782  52.282  1.00  0.00     0.015 A 
ENDBRANCH   7  10
ENDBRANCH   1   7
BRANCH   1  17
HETATM   17  N2  UNL     1      25.669   5.231  50.471  1.00  0.00    -0.350 N 
HETATM   18  H6  UNL     1      26.459   4.858  51.050  1.00  0.00     0.163 HD
BRANCH  17  19
HETATM   19  C9  UNL     1      25.874   6.291  49.517  1.00  0.00     0.167 A 
HETATM   20  N3  UNL     1      25.942   6.374  48.327  1.00  0.00    -0.236 NA
HETATM   21  C10 UNL     1      26.142   7.508  47.668  1.00  0.00     0.126 A 
HETATM   22  C11 UNL     1      26.283   8.682  48.423  1.00  0.00     0.072 A 
HETATM   23  S1  UNL     1      26.104   8.017  50.130  1.00  0.00    -0.063 SA
ENDBRANCH  17  19
ENDBRANCH   1  17
TORSDOF 4
ENDMDL
MODEL 9
REMARK VINA RESULT:      -7.1      3.521      5.740
REMARK  4 active torsions:
REMARK  status: ('A' for Active; 'I' for Inactive)
REMARK    1  A    between atoms: C1_2  and  C2_3 
REMARK    2  A    between atoms: C1_2  and  C8_10 
REMARK    3  A    between atoms: C8_10  and  N2_11 
REMARK    4  A    between atoms: N2_11  and  C9_12 
ROOT
HETATM    1  C8  UNL     1      24.248   4.131  50.832  1.00  0.00     0.099 C 
HETATM    2  C12 UNL     1      22.800   4.543  50.788  1.00  0.00     0.024 C 
HETATM    3  C13 UNL     1      22.048   3.462  50.792  1.00  0.00    -0.015 C 
HETATM    4  C14 UNL     1      22.294   2.606  49.849  1.00  0.00    -0.018 C 
HETATM    5  C15 UNL     1      23.247   2.915  48.992  1.00  0.00    -0.011 C 
HETATM    6  C16 UNL     1      24.528   3.224  49.682  1.00  0.00     0.070 C 
ENDROOT
BRANCH   1   7
HETATM    7  C1  UNL     1      24.505   3.530  52.163  1.00  0.00     0.068 C 
HETATM    8  N1  UNL     1      24.197   4.171  53.209  1.00  0.00    -0.301 NA
HETATM    9  H1  UNL     1      24.303   3.906  54.190  1.00  0.00     0.186 HD
BRANCH   7  10
HETATM   10  C2  UNL     1      25.105   2.208  52.281  1.00  0.00    -0.009 A 
HETATM   11  C3  UNL     1      26.437   1.977  52.014  1.00  0.00     0.015 A 
HETATM   12  C4  UNL     1      27.061   0.747  52.106  1.00  0.00     0.020 A 
HETATM   13  C5  UNL     1      26.308  -0.356  52.498  1.00  0.00     0.011 A 
HETATM   14 BR1  UNL     1      27.100  -2.073  52.645  1.00  0.00    -0.051 Br
HETATM   15  C6  UNL     1      24.974  -0.182  52.777  1.00  0.00     0.020 A 
HETATM   16  C7  UNL     1      24.422   1.074  52.662  1.00  0.00     0.015 A 
ENDBRANCH   7  10
ENDBRANCH   1   7
BRANCH   1  17
HETATM   17  N2  UNL     1      25.089   5.320  50.679  1.00  0.00    -0.350 N 
HETATM   18  H6  UNL     1      26.039   5.517  51.074  1.00  0.00     0.163 HD
BRANCH  17  19
HETATM   19  C9  UNL     1      24.408   6.281  49.849  1.00  0.00     0.167 A 
HETATM   20  N3  UNL     1      24.123   6.368  48.692  1.00  0.00    -0.236 NA
HETATM   21  C10 UNL     1      23.468   7.391  48.159  1.00  0.00     0.126 A 
HETATM   22  C11 UNL     1      23.091   8.437  49.014  1.00  0.00     0.072 A 
HETATM   23  S1  UNL     1      23.748   7.824  50.620  1.00  0.00    -0.063 SA
ENDBRANCH  17  19
ENDBRANCH   1  17
TORSDOF 4
ENDMDL
