MODEL 1
REMARK VINA RESULT:      -6.8      0.000      0.000
REMARK  4 active torsions:
REMARK  status: ('A' for Active; 'I' for Inactive)
REMARK    1  A    between atoms: C2_2  and  O1_3 
REMARK    2  A    between atoms: O1_3  and  C3_4 
REMARK    3  A    between atoms: N3_12  and  C9_13 
REMARK    4  A    between atoms: C15_19  and  O2_20 
ROOT
HETATM    1  C3  UNL     1      23.167   2.148  50.371  1.00  0.00     0.100 A 
HETATM    2  C4  UNL     1      23.554   2.112  51.636  1.00  0.00     0.044 A 
HETATM    3  C5  UNL     1      22.963   1.332  52.720  1.00  0.00     0.164 A 
HETATM    4  C6  UNL     1      21.819   0.539  52.143  1.00  0.00     0.065 A 
HETATM    5  N1  UNL     1      21.129  -0.272  52.873  1.00  0.00    -0.244 NA
HETATM    6  C7  UNL     1      21.180  -0.652  54.247  1.00  0.00     0.229 C 
HETATM    7  N2  UNL     1      22.359  -0.852  54.727  1.00  0.00    -0.263 NA
HETATM    8  C8  UNL     1      23.667  -0.774  54.162  1.00  0.00     0.275 C 
HETATM    9  N3  UNL     1      23.831   0.423  53.394  1.00  0.00    -0.352 N 
HETATM   10  C14 UNL     1      21.339   0.545  50.743  1.00  0.00     0.069 A 
HETATM   11  C15 UNL     1      22.032   1.340  49.939  1.00  0.00     0.103 A 
ENDROOT
BRANCH   9  12
HETATM   12  C9  UNL     1      25.209   0.818  53.258  1.00  0.00     0.013 A 
HETATM   13  C10 UNL     1      26.066   0.096  52.528  1.00  0.00     0.025 A 
HETATM   14  C11 UNL     1      27.370   0.747  52.585  1.00  0.00    -0.002 A 
HETATM   15  C12 UNL     1      27.281   1.840  53.339  1.00  0.00    -0.021 A 
HETATM   16  C13 UNL     1      25.881   2.003  53.854  1.00  0.00     0.084 A 
ENDBRANCH   9  12
BRANCH   1  17
HETATM   17  O1  UNL     1      23.867   2.962  49.490  1.00  0.00    -0.349 OA
BRANCH  17  18
HETATM   18  C2  UNL     1      24.902   3.812  49.889  1.00  0.00     0.171 C 
HETATM   19  C1  UNL     1      26.279   3.292  49.543  1.00  0.00     0.034 C 
ENDBRANCH  17  18
ENDBRANCH   1  17
BRANCH  11  20
HETATM   20  O2  UNL     1      21.621   1.377  48.619  1.00  0.00    -0.353 OA
HETATM   21  C16 UNL     1      20.572   2.263  48.241  1.00  0.00     0.210 C 
ENDBRANCH  11  20
TORSDOF 4
ENDMDL
MODEL 2
REMARK VINA RESULT:      -6.8      2.198      4.820
REMARK  4 active torsions:
REMARK  status: ('A' for Active; 'I' for Inactive)
REMARK    1  A    between atoms: C2_2  and  O1_3 
REMARK    2  A    between atoms: O1_3  and  C3_4 
REMARK    3  A    between atoms: N3_12  and  C9_13 
REMARK    4  A    between atoms: C15_19  and  O2_20 
ROOT
HETATM    1  C3  UNL     1      26.260   0.826  52.789  1.00  0.00     0.100 A 
HETATM    2  C4  UNL     1      25.079   0.375  52.393  1.00  0.00     0.044 A 
HETATM    3  C5  UNL     1      24.120  -0.401  53.174  1.00  0.00     0.164 A 
HETATM    4  C6  UNL     1      24.703  -0.598  54.550  1.00  0.00     0.065 A 
HETATM    5  N1  UNL     1      24.053  -1.226  55.471  1.00  0.00    -0.244 NA
HETATM    6  C7  UNL     1      22.775  -1.857  55.522  1.00  0.00     0.229 C 
HETATM    7  N2  UNL     1      21.812  -1.214  54.955  1.00  0.00    -0.263 NA
HETATM    8  C8  UNL     1      21.748   0.032  54.264  1.00  0.00     0.275 C 
HETATM    9  N3  UNL     1      22.820   0.163  53.325  1.00  0.00    -0.352 N 
HETATM   10  C14 UNL     1      26.016  -0.125  55.045  1.00  0.00     0.069 A 
HETATM   11  C15 UNL     1      26.716   0.555  54.148  1.00  0.00     0.103 A 
ENDROOT
BRANCH   9  12
HETATM   12  C9  UNL     1      22.527   1.092  52.265  1.00  0.00     0.013 A 
HETATM   13  C10 UNL     1      22.751   2.403  52.413  1.00  0.00     0.025 A 
HETATM   14  C11 UNL     1      22.358   3.072  51.179  1.00  0.00    -0.002 A 
HETATM   15  C12 UNL     1      21.909   2.166  50.313  1.00  0.00    -0.021 A 
HETATM   16  C13 UNL     1      21.969   0.794  50.919  1.00  0.00     0.084 A 
ENDBRANCH   9  12
BRANCH   1  17
HETATM   17  O1  UNL     1      27.027   1.549  51.886  1.00  0.00    -0.349 OA
BRANCH  17  18
HETATM   18  C2  UNL     1      26.665   2.812  51.413  1.00  0.00     0.171 C 
HETATM   19  C1  UNL     1      26.417   2.852  49.922  1.00  0.00     0.034 C 
ENDBRANCH  17  18
ENDBRANCH   1  17
BRANCH  11  20
HETATM   20  O2  UNL     1      27.950   1.020  54.566  1.00  0.00    -0.353 OA
HETATM   21  C16 UNL     1      29.091   0.178  54.440  1.00  0.00     0.210 C 
ENDBRANCH  11  20
TORSDOF 4
ENDMDL
MODEL 3
REMARK VINA RESULT:      -6.8      2.806      5.984
REMARK  4 active torsions:
REMARK  status: ('A' for Active; 'I' for Inactive)
REMARK    1  A    between atoms: C2_2  and  O1_3 
REMARK    2  A    between atoms: O1_3  and  C3_4 
REMARK    3  A    between atoms: N3_12  and  C9_13 
REMARK    4  A    between atoms: C15_19  and  O2_20 
ROOT
HETATM    1  C3  UNL     1      24.469  -0.197  53.622  1.00  0.00     0.100 A 
HETATM    2  C4  UNL     1      23.805   0.886  53.248  1.00  0.00     0.044 A 
HETATM    3  C5  UNL     1      24.255   1.926  52.326  1.00  0.00     0.164 A 
HETATM    4  C6  UNL     1      25.632   1.546  51.844  1.00  0.00     0.065 A 
HETATM    5  N1  UNL     1      26.266   2.273  50.987  1.00  0.00    -0.244 NA
HETATM    6  C7  UNL     1      25.961   3.485  50.301  1.00  0.00     0.229 C 
HETATM    7  N2  UNL     1      24.761   3.580  49.843  1.00  0.00    -0.263 NA
HETATM    8  C8  UNL     1      23.635   2.705  49.874  1.00  0.00     0.275 C 
HETATM    9  N3  UNL     1      23.438   2.156  51.182  1.00  0.00    -0.352 N 
HETATM   10  C14 UNL     1      26.422   0.357  52.233  1.00  0.00     0.069 A 
HETATM   11  C15 UNL     1      25.805  -0.444  53.091  1.00  0.00     0.103 A 
ENDROOT
BRANCH   9  12
HETATM   12  C9  UNL     1      22.083   1.726  51.412  1.00  0.00     0.013 A 
HETATM   13  C10 UNL     1      21.603   0.617  50.837  1.00  0.00     0.025 A 
HETATM   14  C11 UNL     1      20.218   0.451  51.261  1.00  0.00    -0.002 A 
HETATM   15  C12 UNL     1      19.886   1.449  52.075  1.00  0.00    -0.021 A 
HETATM   16  C13 UNL     1      21.050   2.378  52.260  1.00  0.00     0.084 A 
ENDBRANCH   9  12
BRANCH   1  17
HETATM   17  O1  UNL     1      23.861  -1.068  54.516  1.00  0.00    -0.349 OA
BRANCH  17  18
HETATM   18  C2  UNL     1      22.549  -0.906  54.971  1.00  0.00     0.171 C 
HETATM   19  C1  UNL     1      21.542  -1.753  54.226  1.00  0.00     0.034 C 
ENDBRANCH  17  18
ENDBRANCH   1  17
BRANCH  11  20
HETATM   20  O2  UNL     1      26.505  -1.571  53.482  1.00  0.00    -0.353 OA
HETATM   21  C16 UNL     1      27.211  -2.326  52.503  1.00  0.00     0.210 C 
ENDBRANCH  11  20
TORSDOF 4
ENDMDL
MODEL 4
REMARK VINA RESULT:      -6.5      2.379      4.964
REMARK  4 active torsions:
REMARK  status: ('A' for Active; 'I' for Inactive)
REMARK    1  A    between atoms: C2_2  and  O1_3 
REMARK    2  A    between atoms: O1_3  and  C3_4 
REMARK    3  A    between atoms: N3_12  and  C9_13 
REMARK    4  A    between atoms: C15_19  and  O2_20 
ROOT
HETATM    1  C3  UNL     1      22.482   1.051  52.795  1.00  0.00     0.100 A 
HETATM    2  C4  UNL     1      23.227   2.136  52.657  1.00  0.00     0.044 A 
HETATM    3  C5  UNL     1      24.675   2.242  52.813  1.00  0.00     0.164 A 
HETATM    4  C6  UNL     1      25.200   0.871  53.151  1.00  0.00     0.065 A 
HETATM    5  N1  UNL     1      26.463   0.658  53.314  1.00  0.00    -0.244 NA
HETATM    6  C7  UNL     1      27.621   1.487  53.250  1.00  0.00     0.229 C 
HETATM    7  N2  UNL     1      27.651   2.328  52.274  1.00  0.00    -0.263 NA
HETATM    8  C8  UNL     1      26.747   2.618  51.210  1.00  0.00     0.275 C 
HETATM    9  N3  UNL     1      25.401   2.725  51.686  1.00  0.00    -0.352 N 
HETATM   10  C14 UNL     1      24.417  -0.373  53.325  1.00  0.00     0.069 A 
HETATM   11  C15 UNL     1      23.113  -0.219  53.139  1.00  0.00     0.103 A 
ENDROOT
BRANCH   9  12
HETATM   12  C9  UNL     1      24.560   3.511  50.820  1.00  0.00     0.013 A 
HETATM   13  C10 UNL     1      24.091   3.011  49.671  1.00  0.00     0.025 A 
HETATM   14  C11 UNL     1      23.280   4.037  49.028  1.00  0.00    -0.002 A 
HETATM   15  C12 UNL     1      23.272   5.130  49.788  1.00  0.00    -0.021 A 
HETATM   16  C13 UNL     1      24.095   4.908  51.023  1.00  0.00     0.084 A 
ENDBRANCH   9  12
BRANCH   1  17
HETATM   17  O1  UNL     1      21.111   1.162  52.604  1.00  0.00    -0.349 OA
BRANCH  17  18
HETATM   18  C2  UNL     1      20.534   1.523  51.384  1.00  0.00     0.171 C 
HETATM   19  C1  UNL     1      21.072   0.742  50.206  1.00  0.00     0.034 C 
ENDBRANCH  17  18
ENDBRANCH   1  17
BRANCH  11  20
HETATM   20  O2  UNL     1      22.339  -1.356  53.288  1.00  0.00    -0.353 OA
HETATM   21  C16 UNL     1      21.712  -1.611  54.541  1.00  0.00     0.210 C 
ENDBRANCH  11  20
TORSDOF 4
ENDMDL
MODEL 5
REMARK VINA RESULT:      -6.5      2.633      4.528
REMARK  4 active torsions:
REMARK  status: ('A' for Active; 'I' for Inactive)
REMARK    1  A    between atoms: C2_2  and  O1_3 
REMARK    2  A    between atoms: O1_3  and  C3_4 
REMARK    3  A    between atoms: N3_12  and  C9_13 
REMARK    4  A    between atoms: C15_19  and  O2_20 
ROOT
HETATM    1  C3  UNL     1      22.097   1.466  52.608  1.00  0.00     0.100 A 
HETATM    2  C4  UNL     1      23.252   1.058  52.105  1.00  0.00     0.044 A 
HETATM    3  C5  UNL     1      24.102   1.764  51.152  1.00  0.00     0.164 A 
HETATM    4  C6  UNL     1      23.439   3.081  50.836  1.00  0.00     0.065 A 
HETATM    5  N1  UNL     1      23.989   3.934  50.038  1.00  0.00    -0.244 NA
HETATM    6  C7  UNL     1      25.204   3.949  49.292  1.00  0.00     0.229 C 
HETATM    7  N2  UNL     1      26.244   3.505  49.911  1.00  0.00    -0.263 NA
HETATM    8  C8  UNL     1      26.448   2.987  51.224  1.00  0.00     0.275 C 
HETATM    9  N3  UNL     1      25.437   2.034  51.570  1.00  0.00    -0.352 N 
HETATM   10  C14 UNL     1      22.150   3.585  51.360  1.00  0.00     0.069 A 
HETATM   11  C15 UNL     1      21.554   2.761  52.210  1.00  0.00     0.103 A 
ENDROOT
BRANCH   9  12
HETATM   12  C9  UNL     1      25.859   1.116  52.596  1.00  0.00     0.013 A 
HETATM   13  C10 UNL     1      26.008   1.517  53.864  1.00  0.00     0.025 A 
HETATM   14  C11 UNL     1      26.440   0.370  54.654  1.00  0.00    -0.002 A 
HETATM   15  C12 UNL     1      26.542  -0.694  53.861  1.00  0.00    -0.021 A 
HETATM   16  C13 UNL     1      26.180  -0.328  52.451  1.00  0.00     0.084 A 
ENDBRANCH   9  12
BRANCH   1  17
HETATM   17  O1  UNL     1      21.438   0.638  53.507  1.00  0.00    -0.349 OA
BRANCH  17  18
HETATM   18  C2  UNL     1      21.723  -0.723  53.645  1.00  0.00     0.171 C 
HETATM   19  C1  UNL     1      22.414  -1.068  54.944  1.00  0.00     0.034 C 
ENDBRANCH  17  18
ENDBRANCH   1  17
BRANCH  11  20
HETATM   20  O2  UNL     1      20.346   3.191  52.729  1.00  0.00    -0.353 OA
HETATM   21  C16 UNL     1      19.196   3.209  51.891  1.00  0.00     0.210 C 
ENDBRANCH  11  20
TORSDOF 4
ENDMDL
MODEL 6
REMARK VINA RESULT:      -6.4      2.026      4.611
REMARK  4 active torsions:
REMARK  status: ('A' for Active; 'I' for Inactive)
REMARK    1  A    between atoms: C2_2  and  O1_3 
REMARK    2  A    between atoms: O1_3  and  C3_4 
REMARK    3  A    between atoms: N3_12  and  C9_13 
REMARK    4  A    between atoms: C15_19  and  O2_20 
ROOT
HETATM    1  C3  UNL     1      24.846   2.591  52.449  1.00  0.00     0.100 A 
HETATM    2  C4  UNL     1      23.588   2.319  52.758  1.00  0.00     0.044 A 
HETATM    3  C5  UNL     1      22.435   2.326  51.862  1.00  0.00     0.164 A 
HETATM    4  C6  UNL     1      22.928   2.689  50.485  1.00  0.00     0.065 A 
HETATM    5  N1  UNL     1      22.124   2.740  49.476  1.00  0.00    -0.244 NA
HETATM    6  C7  UNL     1      20.725   2.515  49.315  1.00  0.00     0.229 C 
HETATM    7  N2  UNL     1      20.248   1.495  49.942  1.00  0.00    -0.263 NA
HETATM    8  C8  UNL     1      20.837   0.510  50.788  1.00  0.00     0.275 C 
HETATM    9  N3  UNL     1      21.703   1.108  51.759  1.00  0.00    -0.352 N 
HETATM   10  C14 UNL     1      24.316   3.009  50.084  1.00  0.00     0.069 A 
HETATM   11  C15 UNL     1      25.193   2.943  51.077  1.00  0.00     0.103 A 
ENDROOT
BRANCH   9  12
HETATM   12  C9  UNL     1      21.891   0.285  52.926  1.00  0.00     0.013 A 
HETATM   13  C10 UNL     1      21.067   0.375  53.975  1.00  0.00     0.025 A 
HETATM   14  C11 UNL     1      21.515  -0.576  54.986  1.00  0.00    -0.002 A 
HETATM   15  C12 UNL     1      22.590  -1.218  54.537  1.00  0.00    -0.021 A 
HETATM   16  C13 UNL     1      22.949  -0.733  53.163  1.00  0.00     0.084 A 
ENDBRANCH   9  12
BRANCH   1  17
HETATM   17  O1  UNL     1      25.801   2.529  53.456  1.00  0.00    -0.349 OA
BRANCH  17  18
HETATM   18  C2  UNL     1      26.694   1.464  53.599  1.00  0.00     0.171 C 
HETATM   19  C1  UNL     1      26.238   0.421  54.593  1.00  0.00     0.034 C 
ENDBRANCH  17  18
ENDBRANCH   1  17
BRANCH  11  20
HETATM   20  O2  UNL     1      26.505   3.232  50.749  1.00  0.00    -0.353 OA
HETATM   21  C16 UNL     1      26.789   3.863  49.505  1.00  0.00     0.210 C 
ENDBRANCH  11  20
TORSDOF 4
ENDMDL
MODEL 7
REMARK VINA RESULT:      -6.1      2.390      3.957
REMARK  4 active torsions:
REMARK  status: ('A' for Active; 'I' for Inactive)
REMARK    1  A    between atoms: C2_2  and  O1_3 
REMARK    2  A    between atoms: O1_3  and  C3_4 
REMARK    3  A    between atoms: N3_12  and  C9_13 
REMARK    4  A    between atoms: C15_19  and  O2_20 
ROOT
HETATM    1  C3  UNL     1      19.622   1.081  52.451  1.00  0.00     0.100 A 
HETATM    2  C4  UNL     1      20.763   1.492  52.983  1.00  0.00     0.044 A 
HETATM    3  C5  UNL     1      21.657   0.735  53.854  1.00  0.00     0.164 A 
HETATM    4  C6  UNL     1      21.061  -0.636  54.041  1.00  0.00     0.065 A 
HETATM    5  N1  UNL     1      21.659  -1.538  54.744  1.00  0.00    -0.244 NA
HETATM    6  C7  UNL     1      22.883  -1.570  55.476  1.00  0.00     0.229 C 
HETATM    7  N2  UNL     1      23.893  -1.018  54.897  1.00  0.00    -0.263 NA
HETATM    8  C8  UNL     1      24.057  -0.361  53.641  1.00  0.00     0.275 C 
HETATM    9  N3  UNL     1      22.998   0.572  53.400  1.00  0.00    -0.352 N 
HETATM   10  C14 UNL     1      19.790  -1.147  53.478  1.00  0.00     0.069 A 
HETATM   11  C15 UNL     1      19.146  -0.271  52.720  1.00  0.00     0.103 A 
ENDROOT
BRANCH   9  12
HETATM   12  C9  UNL     1      23.364   1.608  52.468  1.00  0.00     0.013 A 
HETATM   13  C10 UNL     1      23.244   1.424  51.149  1.00  0.00     0.025 A 
HETATM   14  C11 UNL     1      23.689   2.640  50.480  1.00  0.00    -0.002 A 
HETATM   15  C12 UNL     1      24.066   3.531  51.395  1.00  0.00    -0.021 A 
HETATM   16  C13 UNL     1      23.897   2.961  52.773  1.00  0.00     0.084 A 
ENDBRANCH   9  12
BRANCH   1  17
HETATM   17  O1  UNL     1      18.914   1.963  51.644  1.00  0.00    -0.349 OA
BRANCH  17  18
HETATM   18  C2  UNL     1      19.442   2.528  50.481  1.00  0.00     0.171 C 
HETATM   19  C1  UNL     1      19.870   1.506  49.451  1.00  0.00     0.034 C 
ENDBRANCH  17  18
ENDBRANCH   1  17
BRANCH  11  20
HETATM   20  O2  UNL     1      17.953  -0.704  52.170  1.00  0.00    -0.353 OA
HETATM   21  C16 UNL     1      17.058  -1.475  52.966  1.00  0.00     0.210 C 
ENDBRANCH  11  20
TORSDOF 4
ENDMDL
MODEL 8
REMARK VINA RESULT:      -6.0      2.430      4.571
REMARK  4 active torsions:
REMARK  status: ('A' for Active; 'I' for Inactive)
REMARK    1  A    between atoms: C2_2  and  O1_3 
REMARK    2  A    between atoms: O1_3  and  C3_4 
REMARK    3  A    between atoms: N3_12  and  C9_13 
REMARK    4  A    between atoms: C15_19  and  O2_20 
ROOT
HETATM    1  C3  UNL     1      24.785   0.816  52.653  1.00  0.00     0.100 A 
HETATM    2  C4  UNL     1      23.973   1.443  51.815  1.00  0.00     0.044 A 
HETATM    3  C5  UNL     1      22.533   1.253  51.669  1.00  0.00     0.164 A 
HETATM    4  C6  UNL     1      22.105   0.208  52.667  1.00  0.00     0.065 A 
HETATM    5  N1  UNL     1      20.868  -0.141  52.785  1.00  0.00    -0.244 NA
HETATM    6  C7  UNL     1      19.663   0.257  52.134  1.00  0.00     0.229 C 
HETATM    7  N2  UNL     1      19.530   1.523  51.932  1.00  0.00    -0.263 NA
HETATM    8  C8  UNL     1      20.355   2.648  52.228  1.00  0.00     0.275 C 
HETATM    9  N3  UNL     1      21.718   2.405  51.864  1.00  0.00    -0.352 N 
HETATM   10  C14 UNL     1      22.966  -0.529  53.619  1.00  0.00     0.069 A 
HETATM   11  C15 UNL     1      24.246  -0.189  53.563  1.00  0.00     0.103 A 
ENDROOT
BRANCH   9  12
HETATM   12  C9  UNL     1      22.462   3.617  51.635  1.00  0.00     0.013 A 
HETATM   13  C10 UNL     1      22.617   4.111  50.402  1.00  0.00     0.025 A 
HETATM   14  C11 UNL     1      23.409   5.331  50.499  1.00  0.00    -0.002 A 
HETATM   15  C12 UNL     1      23.716   5.553  51.775  1.00  0.00    -0.021 A 
HETATM   16  C13 UNL     1      23.141   4.474  52.643  1.00  0.00     0.084 A 
ENDBRANCH   9  12
BRANCH   1  17
HETATM   17  O1  UNL     1      26.134   1.143  52.634  1.00  0.00    -0.349 OA
BRANCH  17  18
HETATM   18  C2  UNL     1      26.728   1.994  53.570  1.00  0.00     0.171 C 
HETATM   19  C1  UNL     1      28.185   2.282  53.286  1.00  0.00     0.034 C 
ENDBRANCH  17  18
ENDBRANCH   1  17
BRANCH  11  20
HETATM   20  O2  UNL     1      25.090  -0.850  54.438  1.00  0.00    -0.353 OA
HETATM   21  C16 UNL     1      24.601  -1.236  55.718  1.00  0.00     0.210 C 
ENDBRANCH  11  20
TORSDOF 4
ENDMDL
MODEL 9
REMARK VINA RESULT:      -5.8      2.314      4.781
REMARK  4 active torsions:
REMARK  status: ('A' for Active; 'I' for Inactive)
REMARK    1  A    between atoms: C2_2  and  O1_3 
REMARK    2  A    between atoms: O1_3  and  C3_4 
REMARK    3  A    between atoms: N3_12  and  C9_13 
REMARK    4  A    between atoms: C15_19  and  O2_20 
ROOT
HETATM    1  C3  UNL     1      20.078   1.266  50.311  1.00  0.00     0.100 A 
HETATM    2  C4  UNL     1      21.161   0.714  50.836  1.00  0.00     0.044 A 
HETATM    3  C5  UNL     1      22.490   1.308  50.951  1.00  0.00     0.164 A 
HETATM    4  C6  UNL     1      22.422   2.698  50.374  1.00  0.00     0.065 A 
HETATM    5  N1  UNL     1      23.452   3.476  50.373  1.00  0.00    -0.244 NA
HETATM    6  C7  UNL     1      24.796   3.336  50.831  1.00  0.00     0.229 C 
HETATM    7  N2  UNL     1      24.937   2.763  51.977  1.00  0.00    -0.263 NA
HETATM    8  C8  UNL     1      24.011   2.221  52.916  1.00  0.00     0.275 C 
HETATM    9  N3  UNL     1      23.029   1.405  52.267  1.00  0.00    -0.352 N 
HETATM   10  C14 UNL     1      21.245   3.362  49.770  1.00  0.00     0.069 A 
HETATM   11  C15 UNL     1      20.147   2.620  49.771  1.00  0.00     0.103 A 
ENDROOT
BRANCH   9  12
HETATM   12  C9  UNL     1      22.429   0.440  53.151  1.00  0.00     0.013 A 
HETATM   13  C10 UNL     1      22.967  -0.774  53.317  1.00  0.00     0.025 A 
HETATM   14  C11 UNL     1      22.138  -1.511  54.263  1.00  0.00    -0.002 A 
HETATM   15  C12 UNL     1      21.124  -0.741  54.650  1.00  0.00    -0.021 A 
HETATM   16  C13 UNL     1      21.202   0.598  53.976  1.00  0.00     0.084 A 
ENDBRANCH   9  12
BRANCH   1  17
HETATM   17  O1  UNL     1      18.902   0.528  50.296  1.00  0.00    -0.349 OA
BRANCH  17  18
HETATM   18  C2  UNL     1      17.976   0.541  51.342  1.00  0.00     0.171 C 
HETATM   19  C1  UNL     1      18.034  -0.689  52.218  1.00  0.00     0.034 C 
ENDBRANCH  17  18
ENDBRANCH   1  17
BRANCH  11  20
HETATM   20  O2  UNL     1      19.020   3.200  49.218  1.00  0.00    -0.353 OA
HETATM   21  C16 UNL     1      18.585   4.469  49.695  1.00  0.00     0.210 C 
ENDBRANCH  11  20
TORSDOF 4
ENDMDL
