MODEL 1
REMARK VINA RESULT:      -8.9      0.000      0.000
REMARK  7 active torsions:
REMARK  status: ('A' for Active; 'I' for Inactive)
REMARK    1  A    between atoms: O1_2  and  C2_3 
REMARK    2  A    between atoms: C5_6  and  C6_7 
REMARK    3  A    between atoms: C6_7  and  N1_8 
REMARK    4  A    between atoms: N1_8  and  C7_9 
REMARK    5  A    between atoms: N2_12  and  N3_13 
REMARK    6  A    between atoms: C11_17  and  N6_18 
REMARK    7  A    between atoms: N6_18  and  C12_19 
ROOT
HETATM    1  C7  UNL     1      25.564  -0.466  53.000  1.00  0.00     0.102 C 
HETATM    2  C8  UNL     1      26.802  -0.108  53.153  1.00  0.00     0.074 A 
HETATM    3  C9  UNL     1      27.846  -1.126  53.236  1.00  0.00     0.185 A 
HETATM    4  N2  UNL     1      27.605  -2.401  53.162  1.00  0.00    -0.161 NA
HETATM    5  N4  UNL     1      29.161  -0.605  53.404  1.00  0.00    -0.220 NA
HETATM    6  C10 UNL     1      29.384   0.663  53.475  1.00  0.00     0.237 A 
HETATM    7  N5  UNL     1      28.393   1.655  53.398  1.00  0.00    -0.223 NA
HETATM    8  C11 UNL     1      27.146   1.308  53.244  1.00  0.00     0.145 A 
ENDROOT
BRANCH   1   9
HETATM    9  N1  UNL     1      24.251  -0.026  52.866  1.00  0.00    -0.394 N 
HETATM   10  H8  UNL     1      23.894   0.641  52.117  1.00  0.00     0.159 HD
BRANCH   9  11
HETATM   11  C6  UNL     1      23.329  -0.547  53.850  1.00  0.00     0.157 C 
BRANCH  11  12
HETATM   12  C5  UNL     1      21.929  -0.401  53.319  1.00  0.00    -0.040 A 
HETATM   13  C4  UNL     1      21.808   0.216  52.089  1.00  0.00     0.011 A 
HETATM   14  C3  UNL     1      20.586   0.419  51.475  1.00  0.00     0.037 A 
HETATM   15  C2  UNL     1      19.460  -0.026  52.151  1.00  0.00     0.068 A 
HETATM   16  C19 UNL     1      19.587  -0.637  53.374  1.00  0.00     0.037 A 
HETATM   17  C18 UNL     1      20.802  -0.842  53.987  1.00  0.00     0.011 A 
BRANCH  15  18
HETATM   18  O1  UNL     1      18.190   0.144  51.597  1.00  0.00    -0.356 OA
HETATM   19  C1  UNL     1      17.055  -0.403  52.247  1.00  0.00     0.210 C 
ENDBRANCH  15  18
ENDBRANCH  11  12
ENDBRANCH   9  11
ENDBRANCH   1   9
BRANCH   8  20
HETATM   20  N6  UNL     1      26.159   2.303  53.167  1.00  0.00    -0.340 N 
HETATM   21  H13 UNL     1      25.771   2.669  54.064  1.00  0.00     0.167 HD
BRANCH  20  22
HETATM   22  C12 UNL     1      25.705   2.794  51.909  1.00  0.00     0.035 A 
HETATM   23  C13 UNL     1      26.602   2.880  50.838  1.00  0.00     0.029 A 
HETATM   24  C14 UNL     1      26.159   3.357  49.615  1.00  0.00     0.004 A 
HETATM   25  C15 UNL     1      24.844   3.745  49.459  1.00  0.00     0.024 A 
HETATM   26  C16 UNL     1      23.917   3.677  50.499  1.00  0.00     0.036 A 
HETATM   27 CL1  UNL     1      22.241   4.168  50.309  1.00  0.00    -0.084 Cl
HETATM   28  C17 UNL     1      24.403   3.196  51.691  1.00  0.00     0.053 A 
ENDBRANCH  20  22
ENDBRANCH   8  20
BRANCH   4  29
HETATM   29  N3  UNL     1      28.704  -3.273  53.256  1.00  0.00    -0.321 N 
HETATM   30  H10 UNL     1      28.821  -3.965  54.043  1.00  0.00     0.179 HD
HETATM   31  H11 UNL     1      29.532  -3.383  52.618  1.00  0.00     0.179 HD
ENDBRANCH   4  29
TORSDOF 7
ENDMDL
MODEL 2
REMARK VINA RESULT:      -8.8      1.658      1.938
REMARK  7 active torsions:
REMARK  status: ('A' for Active; 'I' for Inactive)
REMARK    1  A    between atoms: O1_2  and  C2_3 
REMARK    2  A    between atoms: C5_6  and  C6_7 
REMARK    3  A    between atoms: C6_7  and  N1_8 
REMARK    4  A    between atoms: N1_8  and  C7_9 
REMARK    5  A    between atoms: N2_12  and  N3_13 
REMARK    6  A    between atoms: C11_17  and  N6_18 
REMARK    7  A    between atoms: N6_18  and  C12_19 
ROOT
HETATM    1  C7  UNL     1      24.870  -0.542  53.552  1.00  0.00     0.102 C 
HETATM    2  C8  UNL     1      26.061  -0.047  53.410  1.00  0.00     0.074 A 
HETATM    3  C9  UNL     1      27.204  -0.943  53.250  1.00  0.00     0.185 A 
HETATM    4  N2  UNL     1      27.097  -2.238  53.242  1.00  0.00    -0.161 NA
HETATM    5  N4  UNL     1      28.455  -0.278  53.103  1.00  0.00    -0.220 NA
HETATM    6  C10 UNL     1      28.544   1.009  53.114  1.00  0.00     0.237 A 
HETATM    7  N5  UNL     1      27.457   1.884  53.266  1.00  0.00    -0.223 NA
HETATM    8  C11 UNL     1      26.255   1.400  53.410  1.00  0.00     0.145 A 
ENDROOT
BRANCH   1   9
HETATM    9  N1  UNL     1      23.521  -0.251  53.728  1.00  0.00    -0.394 N 
HETATM   10  H8  UNL     1      23.115   0.371  54.489  1.00  0.00     0.159 HD
BRANCH   9  11
HETATM   11  C6  UNL     1      22.633  -0.868  52.767  1.00  0.00     0.157 C 
BRANCH  11  12
HETATM   12  C5  UNL     1      21.759   0.200  52.168  1.00  0.00    -0.040 A 
HETATM   13  C4  UNL     1      21.207   1.102  53.057  1.00  0.00     0.011 A 
HETATM   14  C3  UNL     1      20.384   2.137  52.654  1.00  0.00     0.037 A 
HETATM   15  C2  UNL     1      20.123   2.241  51.296  1.00  0.00     0.068 A 
HETATM   16  C19 UNL     1      20.675   1.341  50.417  1.00  0.00     0.037 A 
HETATM   17  C18 UNL     1      21.495   0.311  50.816  1.00  0.00     0.011 A 
BRANCH  15  18
HETATM   18  O1  UNL     1      19.301   3.259  50.811  1.00  0.00    -0.356 OA
HETATM   19  C1  UNL     1      18.097   3.580  51.487  1.00  0.00     0.210 C 
ENDBRANCH  15  18
ENDBRANCH  11  12
ENDBRANCH   9  11
ENDBRANCH   1   9
BRANCH   8  20
HETATM   20  N6  UNL     1      25.171   2.279  53.562  1.00  0.00    -0.340 N 
HETATM   21  H13 UNL     1      24.860   2.500  54.533  1.00  0.00     0.167 HD
BRANCH  20  22
HETATM   22  C12 UNL     1      24.522   2.849  52.429  1.00  0.00     0.035 A 
HETATM   23  C13 UNL     1      24.777   2.330  51.154  1.00  0.00     0.029 A 
HETATM   24  C14 UNL     1      24.143   2.885  50.054  1.00  0.00     0.004 A 
HETATM   25  C15 UNL     1      23.271   3.941  50.217  1.00  0.00     0.024 A 
HETATM   26  C16 UNL     1      22.987   4.489  51.469  1.00  0.00     0.036 A 
HETATM   27 CL1  UNL     1      21.877   5.832  51.686  1.00  0.00    -0.084 Cl
HETATM   28  C17 UNL     1      23.638   3.905  52.529  1.00  0.00     0.053 A 
ENDBRANCH  20  22
ENDBRANCH   8  20
BRANCH   4  29
HETATM   29  N3  UNL     1      28.279  -2.983  53.080  1.00  0.00    -0.321 N 
HETATM   30  H10 UNL     1      29.133  -2.840  53.680  1.00  0.00     0.179 HD
HETATM   31  H11 UNL     1      28.505  -3.747  52.394  1.00  0.00     0.179 HD
ENDBRANCH   4  29
TORSDOF 7
ENDMDL
MODEL 3
REMARK VINA RESULT:      -8.6      3.606      6.952
REMARK  7 active torsions:
REMARK  status: ('A' for Active; 'I' for Inactive)
REMARK    1  A    between atoms: O1_2  and  C2_3 
REMARK    2  A    between atoms: C5_6  and  C6_7 
REMARK    3  A    between atoms: C6_7  and  N1_8 
REMARK    4  A    between atoms: N1_8  and  C7_9 
REMARK    5  A    between atoms: N2_12  and  N3_13 
REMARK    6  A    between atoms: C11_17  and  N6_18 
REMARK    7  A    between atoms: N6_18  and  C12_19 
ROOT
HETATM    1  C7  UNL     1      22.298   0.771  51.788  1.00  0.00     0.102 C 
HETATM    2  C8  UNL     1      22.509   0.096  52.877  1.00  0.00     0.074 A 
HETATM    3  C9  UNL     1      21.379  -0.479  53.603  1.00  0.00     0.185 A 
HETATM    4  N2  UNL     1      20.145  -0.353  53.216  1.00  0.00    -0.161 NA
HETATM    5  N4  UNL     1      21.742  -1.195  54.780  1.00  0.00    -0.220 NA
HETATM    6  C10 UNL     1      22.972  -1.311  55.151  1.00  0.00     0.237 A 
HETATM    7  N5  UNL     1      24.069  -0.765  54.465  1.00  0.00    -0.223 NA
HETATM    8  C11 UNL     1      23.870  -0.085  53.371  1.00  0.00     0.145 A 
ENDROOT
BRANCH   1   9
HETATM    9  N1  UNL     1      22.886   1.490  50.753  1.00  0.00    -0.394 N 
HETATM   10  H8  UNL     1      23.313   1.072  49.873  1.00  0.00     0.159 HD
BRANCH   9  11
HETATM   11  C6  UNL     1      22.893   2.925  50.932  1.00  0.00     0.157 C 
BRANCH  11  12
HETATM   12  C5  UNL     1      24.175   3.472  50.369  1.00  0.00    -0.040 A 
HETATM   13  C4  UNL     1      25.275   2.639  50.442  1.00  0.00     0.011 A 
HETATM   14  C3  UNL     1      26.520   3.005  49.965  1.00  0.00     0.037 A 
HETATM   15  C2  UNL     1      26.631   4.266  49.399  1.00  0.00     0.068 A 
HETATM   16  C19 UNL     1      25.535   5.090  49.329  1.00  0.00     0.037 A 
HETATM   17  C18 UNL     1      24.295   4.728  49.803  1.00  0.00     0.011 A 
BRANCH  15  18
HETATM   18  O1  UNL     1      27.855   4.708  48.895  1.00  0.00    -0.356 OA
HETATM   19  C1  UNL     1      27.944   5.972  48.257  1.00  0.00     0.210 C 
ENDBRANCH  15  18
ENDBRANCH  11  12
ENDBRANCH   9  11
ENDBRANCH   1   9
BRANCH   8  20
HETATM   20  N6  UNL     1      24.970   0.458  52.688  1.00  0.00    -0.340 N 
HETATM   21  H13 UNL     1      24.776   1.034  51.840  1.00  0.00     0.167 HD
BRANCH  20  22
HETATM   22  C12 UNL     1      26.302   0.231  53.139  1.00  0.00     0.035 A 
HETATM   23  C13 UNL     1      26.993   1.257  53.795  1.00  0.00     0.029 A 
HETATM   24  C14 UNL     1      28.288   1.034  54.234  1.00  0.00     0.004 A 
HETATM   25  C15 UNL     1      28.889  -0.190  54.022  1.00  0.00     0.024 A 
HETATM   26  C16 UNL     1      28.238  -1.240  53.373  1.00  0.00     0.036 A 
HETATM   27 CL1  UNL     1      28.995  -2.801  53.101  1.00  0.00    -0.084 Cl
HETATM   28  C17 UNL     1      26.956  -0.971  52.959  1.00  0.00     0.053 A 
ENDBRANCH  20  22
ENDBRANCH   8  20
BRANCH   4  29
HETATM   29  N3  UNL     1      19.154  -0.958  54.009  1.00  0.00    -0.321 N 
HETATM   30  H10 UNL     1      18.455  -0.405  54.572  1.00  0.00     0.179 HD
HETATM   31  H11 UNL     1      18.949  -1.976  54.171  1.00  0.00     0.179 HD
ENDBRANCH   4  29
TORSDOF 7
ENDMDL
MODEL 4
REMARK VINA RESULT:      -8.6      3.224      6.453
REMARK  7 active torsions:
REMARK  status: ('A' for Active; 'I' for Inactive)
REMARK    1  A    between atoms: O1_2  and  C2_3 
REMARK    2  A    between atoms: C5_6  and  C6_7 
REMARK    3  A    between atoms: C6_7  and  N1_8 
REMARK    4  A    between atoms: N1_8  and  C7_9 
REMARK    5  A    between atoms: N2_12  and  N3_13 
REMARK    6  A    between atoms: C11_17  and  N6_18 
REMARK    7  A    between atoms: N6_18  and  C12_19 
ROOT
HETATM    1  C7  UNL     1      26.766   2.077  52.117  1.00  0.00     0.102 C 
HETATM    2  C8  UNL     1      26.241   1.134  52.837  1.00  0.00     0.074 A 
HETATM    3  C9  UNL     1      27.101   0.117  53.438  1.00  0.00     0.185 A 
HETATM    4  N2  UNL     1      28.392   0.101  53.293  1.00  0.00    -0.161 NA
HETATM    5  N4  UNL     1      26.404  -0.862  54.203  1.00  0.00    -0.220 NA
HETATM    6  C10 UNL     1      25.122  -0.832  54.337  1.00  0.00     0.237 A 
HETATM    7  N5  UNL     1      24.282   0.137  53.767  1.00  0.00    -0.223 NA
HETATM    8  C11 UNL     1      24.796   1.090  53.042  1.00  0.00     0.145 A 
ENDROOT
BRANCH   1   9
HETATM    9  N1  UNL     1      26.514   3.215  51.358  1.00  0.00    -0.394 N 
HETATM   10  H8  UNL     1      26.284   4.180  51.744  1.00  0.00     0.159 HD
BRANCH   9  11
HETATM   11  C6  UNL     1      26.584   3.022  49.926  1.00  0.00     0.157 C 
BRANCH  11  12
HETATM   12  C5  UNL     1      26.646   4.370  49.263  1.00  0.00    -0.040 A 
HETATM   13  C4  UNL     1      25.459   5.077  49.212  1.00  0.00     0.011 A 
HETATM   14  C3  UNL     1      25.362   6.329  48.634  1.00  0.00     0.037 A 
HETATM   15  C2  UNL     1      26.521   6.865  48.094  1.00  0.00     0.068 A 
HETATM   16  C19 UNL     1      27.697   6.158  48.148  1.00  0.00     0.037 A 
HETATM   17  C18 UNL     1      27.797   4.911  48.723  1.00  0.00     0.011 A 
BRANCH  15  18
HETATM   18  O1  UNL     1      26.504   8.124  47.493  1.00  0.00    -0.356 OA
HETATM   19  C1  UNL     1      25.523   8.429  46.515  1.00  0.00     0.210 C 
ENDBRANCH  15  18
ENDBRANCH  11  12
ENDBRANCH   9  11
ENDBRANCH   1   9
BRANCH   8  20
HETATM   20  N6  UNL     1      23.952   2.057  52.473  1.00  0.00    -0.340 N 
HETATM   21  H13 UNL     1      24.029   3.035  52.828  1.00  0.00     0.167 HD
BRANCH  20  22
HETATM   22  C12 UNL     1      23.023   1.713  51.449  1.00  0.00     0.035 A 
HETATM   23  C13 UNL     1      21.946   0.871  51.749  1.00  0.00     0.029 A 
HETATM   24  C14 UNL     1      21.044   0.538  50.752  1.00  0.00     0.004 A 
HETATM   25  C15 UNL     1      21.210   1.032  49.475  1.00  0.00     0.024 A 
HETATM   26  C16 UNL     1      22.269   1.873  49.132  1.00  0.00     0.036 A 
HETATM   27 CL1  UNL     1      22.487   2.508  47.509  1.00  0.00    -0.084 Cl
HETATM   28  C17 UNL     1      23.136   2.176  50.154  1.00  0.00     0.053 A 
ENDBRANCH  20  22
ENDBRANCH   8  20
BRANCH   4  29
HETATM   29  N3  UNL     1      29.100  -0.936  53.927  1.00  0.00    -0.321 N 
HETATM   30  H10 UNL     1      29.417  -0.884  54.931  1.00  0.00     0.179 HD
HETATM   31  H11 UNL     1      29.413  -1.866  53.551  1.00  0.00     0.179 HD
ENDBRANCH   4  29
TORSDOF 7
ENDMDL
MODEL 5
REMARK VINA RESULT:      -8.5      2.174      4.410
REMARK  7 active torsions:
REMARK  status: ('A' for Active; 'I' for Inactive)
REMARK    1  A    between atoms: O1_2  and  C2_3 
REMARK    2  A    between atoms: C5_6  and  C6_7 
REMARK    3  A    between atoms: C6_7  and  N1_8 
REMARK    4  A    between atoms: N1_8  and  C7_9 
REMARK    5  A    between atoms: N2_12  and  N3_13 
REMARK    6  A    between atoms: C11_17  and  N6_18 
REMARK    7  A    between atoms: N6_18  and  C12_19 
ROOT
HETATM    1  C7  UNL     1      25.763   2.520  53.382  1.00  0.00     0.102 C 
HETATM    2  C8  UNL     1      26.453   1.425  53.289  1.00  0.00     0.074 A 
HETATM    3  C9  UNL     1      27.843   1.404  53.740  1.00  0.00     0.185 A 
HETATM    4  N2  UNL     1      28.444   2.440  54.241  1.00  0.00    -0.161 NA
HETATM    5  N4  UNL     1      28.490   0.144  53.585  1.00  0.00    -0.220 NA
HETATM    6  C10 UNL     1      27.879  -0.876  53.085  1.00  0.00     0.237 A 
HETATM    7  N5  UNL     1      26.545  -0.873  52.647  1.00  0.00    -0.223 NA
HETATM    8  C11 UNL     1      25.841   0.221  52.735  1.00  0.00     0.145 A 
ENDROOT
BRANCH   1   9
HETATM    9  N1  UNL     1      24.529   3.121  53.152  1.00  0.00    -0.394 N 
HETATM   10  H8  UNL     1      23.737   3.200  53.858  1.00  0.00     0.159 HD
BRANCH   9  11
HETATM   11  C6  UNL     1      24.356   3.672  51.826  1.00  0.00     0.157 C 
BRANCH  11  12
HETATM   12  C5  UNL     1      23.060   3.160  51.260  1.00  0.00    -0.040 A 
HETATM   13  C4  UNL     1      23.151   2.456  50.075  1.00  0.00     0.011 A 
HETATM   14  C3  UNL     1      22.046   1.925  49.436  1.00  0.00     0.037 A 
HETATM   15  C2  UNL     1      20.814   2.129  50.038  1.00  0.00     0.068 A 
HETATM   16  C19 UNL     1      20.729   2.830  51.216  1.00  0.00     0.037 A 
HETATM   17  C18 UNL     1      21.828   3.359  51.854  1.00  0.00     0.011 A 
BRANCH  15  18
HETATM   18  O1  UNL     1      19.651   1.624  49.455  1.00  0.00    -0.356 OA
HETATM   19  C1  UNL     1      18.541   2.479  49.233  1.00  0.00     0.210 C 
ENDBRANCH  15  18
ENDBRANCH  11  12
ENDBRANCH   9  11
ENDBRANCH   1   9
BRANCH   8  20
HETATM   20  N6  UNL     1      24.507   0.219  52.296  1.00  0.00    -0.340 N 
HETATM   21  H13 UNL     1      24.315   0.574  51.334  1.00  0.00     0.167 HD
BRANCH  20  22
HETATM   22  C12 UNL     1      23.457  -0.252  53.135  1.00  0.00     0.035 A 
HETATM   23  C13 UNL     1      23.766  -0.799  54.385  1.00  0.00     0.029 A 
HETATM   24  C14 UNL     1      22.743  -1.256  55.201  1.00  0.00     0.004 A 
HETATM   25  C15 UNL     1      21.432  -1.171  54.779  1.00  0.00     0.024 A 
HETATM   26  C16 UNL     1      21.079  -0.633  53.540  1.00  0.00     0.036 A 
HETATM   27 CL1  UNL     1      19.413  -0.521  52.996  1.00  0.00    -0.084 Cl
HETATM   28  C17 UNL     1      22.127  -0.193  52.769  1.00  0.00     0.053 A 
ENDBRANCH  20  22
ENDBRANCH   8  20
BRANCH   4  29
HETATM   29  N3  UNL     1      29.785   2.282  54.636  1.00  0.00    -0.321 N 
HETATM   30  H10 UNL     1      30.064   1.848  55.555  1.00  0.00     0.179 HD
HETATM   31  H11 UNL     1      30.670   2.542  54.132  1.00  0.00     0.179 HD
ENDBRANCH   4  29
TORSDOF 7
ENDMDL
MODEL 6
REMARK VINA RESULT:      -8.4      3.649      7.113
REMARK  7 active torsions:
REMARK  status: ('A' for Active; 'I' for Inactive)
REMARK    1  A    between atoms: O1_2  and  C2_3 
REMARK    2  A    between atoms: C5_6  and  C6_7 
REMARK    3  A    between atoms: C6_7  and  N1_8 
REMARK    4  A    between atoms: N1_8  and  C7_9 
REMARK    5  A    between atoms: N2_12  and  N3_13 
REMARK    6  A    between atoms: C11_17  and  N6_18 
REMARK    7  A    between atoms: N6_18  and  C12_19 
ROOT
HETATM    1  C7  UNL     1      26.810   2.297  51.558  1.00  0.00     0.102 C 
HETATM    2  C8  UNL     1      26.712   1.622  52.663  1.00  0.00     0.074 A 
HETATM    3  C9  UNL     1      27.786   1.690  53.651  1.00  0.00     0.185 A 
HETATM    4  N2  UNL     1      28.859   2.403  53.487  1.00  0.00    -0.161 NA
HETATM    5  N4  UNL     1      27.558   0.905  54.818  1.00  0.00    -0.220 NA
HETATM    6  C10 UNL     1      26.487   0.202  54.964  1.00  0.00     0.237 A 
HETATM    7  N5  UNL     1      25.446   0.126  54.026  1.00  0.00    -0.223 NA
HETATM    8  C11 UNL     1      25.532   0.798  52.912  1.00  0.00     0.145 A 
ENDROOT
BRANCH   1   9
HETATM    9  N1  UNL     1      26.195   2.617  50.352  1.00  0.00    -0.394 N 
HETATM   10  H8  UNL     1      26.231   2.032  49.464  1.00  0.00     0.159 HD
BRANCH   9  11
HETATM   11  C6  UNL     1      25.455   3.859  50.355  1.00  0.00     0.157 C 
BRANCH  11  12
HETATM   12  C5  UNL     1      26.222   4.876  49.554  1.00  0.00    -0.040 A 
HETATM   13  C4  UNL     1      25.655   6.132  49.465  1.00  0.00     0.011 A 
HETATM   14  C3  UNL     1      26.244   7.168  48.764  1.00  0.00     0.037 A 
HETATM   15  C2  UNL     1      27.451   6.897  48.137  1.00  0.00     0.068 A 
HETATM   16  C19 UNL     1      28.010   5.646  48.229  1.00  0.00     0.037 A 
HETATM   17  C18 UNL     1      27.425   4.614  48.926  1.00  0.00     0.011 A 
BRANCH  15  18
HETATM   18  O1  UNL     1      28.107   7.891  47.409  1.00  0.00    -0.356 OA
HETATM   19  C1  UNL     1      29.356   7.612  46.797  1.00  0.00     0.210 C 
ENDBRANCH  15  18
ENDBRANCH  11  12
ENDBRANCH   9  11
ENDBRANCH   1   9
BRANCH   8  20
HETATM   20  N6  UNL     1      24.489   0.719  51.977  1.00  0.00    -0.340 N 
HETATM   21  H13 UNL     1      24.747   0.579  50.975  1.00  0.00     0.167 HD
BRANCH  20  22
HETATM   22  C12 UNL     1      23.128   0.825  52.382  1.00  0.00     0.035 A 
HETATM   23  C13 UNL     1      22.454   2.042  52.227  1.00  0.00     0.029 A 
HETATM   24  C14 UNL     1      21.130   2.144  52.620  1.00  0.00     0.004 A 
HETATM   25  C15 UNL     1      20.484   1.052  53.162  1.00  0.00     0.024 A 
HETATM   26  C16 UNL     1      21.116  -0.180  53.335  1.00  0.00     0.036 A 
HETATM   27 CL1  UNL     1      20.301  -1.575  54.023  1.00  0.00    -0.084 Cl
HETATM   28  C17 UNL     1      22.427  -0.232  52.929  1.00  0.00     0.053 A 
ENDBRANCH  20  22
ENDBRANCH   8  20
BRANCH   4  29
HETATM   29  N3  UNL     1      29.815   2.378  54.519  1.00  0.00    -0.321 N 
HETATM   30  H10 UNL     1      30.704   2.942  54.490  1.00  0.00     0.179 HD
HETATM   31  H11 UNL     1      29.815   1.842  55.424  1.00  0.00     0.179 HD
ENDBRANCH   4  29
TORSDOF 7
ENDMDL
MODEL 7
REMARK VINA RESULT:      -8.3      3.742      7.779
REMARK  7 active torsions:
REMARK  status: ('A' for Active; 'I' for Inactive)
REMARK    1  A    between atoms: O1_2  and  C2_3 
REMARK    2  A    between atoms: C5_6  and  C6_7 
REMARK    3  A    between atoms: C6_7  and  N1_8 
REMARK    4  A    between atoms: N1_8  and  C7_9 
REMARK    5  A    between atoms: N2_12  and  N3_13 
REMARK    6  A    between atoms: C11_17  and  N6_18 
REMARK    7  A    between atoms: N6_18  and  C12_19 
ROOT
HETATM    1  C7  UNL     1      23.759   3.846  52.071  1.00  0.00     0.102 C 
HETATM    2  C8  UNL     1      22.603   3.805  51.483  1.00  0.00     0.074 A 
HETATM    3  C9  UNL     1      21.915   5.050  51.150  1.00  0.00     0.185 A 
HETATM    4  N2  UNL     1      22.402   6.225  51.414  1.00  0.00    -0.161 NA
HETATM    5  N4  UNL     1      20.656   4.870  50.508  1.00  0.00    -0.220 NA
HETATM    6  C10 UNL     1      20.186   3.696  50.253  1.00  0.00     0.237 A 
HETATM    7  N5  UNL     1      20.834   2.491  50.566  1.00  0.00    -0.223 NA
HETATM    8  C11 UNL     1      21.996   2.518  51.157  1.00  0.00     0.145 A 
ENDROOT
BRANCH   1   9
HETATM    9  N1  UNL     1      24.808   3.095  52.593  1.00  0.00    -0.394 N 
HETATM   10  H8  UNL     1      24.905   2.788  53.607  1.00  0.00     0.159 HD
BRANCH   9  11
HETATM   11  C6  UNL     1      25.827   2.723  51.638  1.00  0.00     0.157 C 
BRANCH  11  12
HETATM   12  C5  UNL     1      26.621   1.579  52.206  1.00  0.00    -0.040 A 
HETATM   13  C4  UNL     1      27.757   1.921  52.915  1.00  0.00     0.011 A 
HETATM   14  C3  UNL     1      28.585   0.979  53.495  1.00  0.00     0.037 A 
HETATM   15  C2  UNL     1      28.231  -0.353  53.337  1.00  0.00     0.068 A 
HETATM   16  C19 UNL     1      27.102  -0.687  52.631  1.00  0.00     0.037 A 
HETATM   17  C18 UNL     1      26.275   0.249  52.053  1.00  0.00     0.011 A 
BRANCH  15  18
HETATM   18  O1  UNL     1      29.017  -1.363  53.893  1.00  0.00    -0.356 OA
HETATM   19  C1  UNL     1      29.133  -2.614  53.234  1.00  0.00     0.210 C 
ENDBRANCH  15  18
ENDBRANCH  11  12
ENDBRANCH   9  11
ENDBRANCH   1   9
BRANCH   8  20
HETATM   20  N6  UNL     1      22.640   1.310  51.467  1.00  0.00    -0.340 N 
HETATM   21  H13 UNL     1      23.489   1.059  50.914  1.00  0.00     0.167 HD
BRANCH  20  22
HETATM   22  C12 UNL     1      22.152   0.460  52.500  1.00  0.00     0.035 A 
HETATM   23  C13 UNL     1      23.015   0.050  53.523  1.00  0.00     0.029 A 
HETATM   24  C14 UNL     1      22.538  -0.777  54.527  1.00  0.00     0.004 A 
HETATM   25  C15 UNL     1      21.223  -1.193  54.514  1.00  0.00     0.024 A 
HETATM   26  C16 UNL     1      20.328  -0.809  53.515  1.00  0.00     0.036 A 
HETATM   27 CL1  UNL     1      18.652  -1.333  53.492  1.00  0.00    -0.084 Cl
HETATM   28  C17 UNL     1      20.846   0.011  52.543  1.00  0.00     0.053 A 
ENDBRANCH  20  22
ENDBRANCH   8  20
BRANCH   4  29
HETATM   29  N3  UNL     1      21.634   7.342  51.039  1.00  0.00    -0.321 N 
HETATM   30  H10 UNL     1      20.727   7.262  50.508  1.00  0.00     0.179 HD
HETATM   31  H11 UNL     1      21.808   8.365  51.204  1.00  0.00     0.179 HD
ENDBRANCH   4  29
TORSDOF 7
ENDMDL
MODEL 8
REMARK VINA RESULT:      -8.1      2.840      5.425
REMARK  7 active torsions:
REMARK  status: ('A' for Active; 'I' for Inactive)
REMARK    1  A    between atoms: O1_2  and  C2_3 
REMARK    2  A    between atoms: C5_6  and  C6_7 
REMARK    3  A    between atoms: C6_7  and  N1_8 
REMARK    4  A    between atoms: N1_8  and  C7_9 
REMARK    5  A    between atoms: N2_12  and  N3_13 
REMARK    6  A    between atoms: C11_17  and  N6_18 
REMARK    7  A    between atoms: N6_18  and  C12_19 
ROOT
HETATM    1  C7  UNL     1      26.799   2.497  51.295  1.00  0.00     0.102 C 
HETATM    2  C8  UNL     1      26.588   1.842  52.396  1.00  0.00     0.074 A 
HETATM    3  C9  UNL     1      27.616   1.819  53.434  1.00  0.00     0.185 A 
HETATM    4  N2  UNL     1      28.757   2.430  53.319  1.00  0.00    -0.161 NA
HETATM    5  N4  UNL     1      27.264   1.066  54.591  1.00  0.00    -0.220 NA
HETATM    6  C10 UNL     1      26.127   0.465  54.689  1.00  0.00     0.237 A 
HETATM    7  N5  UNL     1      25.129   0.477  53.702  1.00  0.00    -0.223 NA
HETATM    8  C11 UNL     1      25.328   1.131  52.592  1.00  0.00     0.145 A 
ENDROOT
BRANCH   1   9
HETATM    9  N1  UNL     1      26.273   2.863  50.060  1.00  0.00    -0.394 N 
HETATM   10  H8  UNL     1      25.742   2.221  49.398  1.00  0.00     0.159 HD
BRANCH   9  11
HETATM   11  C6  UNL     1      26.491   4.243  49.689  1.00  0.00     0.157 C 
BRANCH  11  12
HETATM   12  C5  UNL     1      25.165   4.952  49.680  1.00  0.00    -0.040 A 
HETATM   13  C4  UNL     1      24.168   4.366  48.924  1.00  0.00     0.011 A 
HETATM   14  C3  UNL     1      22.898   4.903  48.820  1.00  0.00     0.037 A 
HETATM   15  C2  UNL     1      22.652   6.076  49.517  1.00  0.00     0.068 A 
HETATM   16  C19 UNL     1      23.647   6.654  50.267  1.00  0.00     0.037 A 
HETATM   17  C18 UNL     1      24.911   6.122  50.372  1.00  0.00     0.011 A 
BRANCH  15  18
HETATM   18  O1  UNL     1      21.395   6.679  49.463  1.00  0.00    -0.356 OA
HETATM   19  C1  UNL     1      21.081   7.743  50.346  1.00  0.00     0.210 C 
ENDBRANCH  15  18
ENDBRANCH  11  12
ENDBRANCH   9  11
ENDBRANCH   1   9
BRANCH   8  20
HETATM   20  N6  UNL     1      24.327   1.139  51.608  1.00  0.00    -0.340 N 
HETATM   21  H13 UNL     1      24.523   0.638  50.714  1.00  0.00     0.167 HD
BRANCH  20  22
HETATM   22  C12 UNL     1      23.089   1.809  51.824  1.00  0.00     0.035 A 
HETATM   23  C13 UNL     1      23.088   3.171  52.149  1.00  0.00     0.029 A 
HETATM   24  C14 UNL     1      21.883   3.821  52.358  1.00  0.00     0.004 A 
HETATM   25  C15 UNL     1      20.695   3.128  52.248  1.00  0.00     0.024 A 
HETATM   26  C16 UNL     1      20.648   1.771  51.926  1.00  0.00     0.036 A 
HETATM   27 CL1  UNL     1      19.141   0.882  51.782  1.00  0.00    -0.084 Cl
HETATM   28  C17 UNL     1      21.868   1.171  51.726  1.00  0.00     0.053 A 
ENDBRANCH  20  22
ENDBRANCH   8  20
BRANCH   4  29
HETATM   29  N3  UNL     1      29.656   2.326  54.395  1.00  0.00    -0.321 N 
HETATM   30  H10 UNL     1      30.396   3.050  54.595  1.00  0.00     0.179 HD
HETATM   31  H11 UNL     1      29.746   1.578  55.128  1.00  0.00     0.179 HD
ENDBRANCH   4  29
TORSDOF 7
ENDMDL
MODEL 9
REMARK VINA RESULT:      -8.1      4.017      7.836
REMARK  7 active torsions:
REMARK  status: ('A' for Active; 'I' for Inactive)
REMARK    1  A    between atoms: O1_2  and  C2_3 
REMARK    2  A    between atoms: C5_6  and  C6_7 
REMARK    3  A    between atoms: C6_7  and  N1_8 
REMARK    4  A    between atoms: N1_8  and  C7_9 
REMARK    5  A    between atoms: N2_12  and  N3_13 
REMARK    6  A    between atoms: C11_17  and  N6_18 
REMARK    7  A    between atoms: N6_18  and  C12_19 
ROOT
HETATM    1  C7  UNL     1      23.579   2.597  50.913  1.00  0.00     0.102 C 
HETATM    2  C8  UNL     1      23.452   1.665  51.807  1.00  0.00     0.074 A 
HETATM    3  C9  UNL     1      22.127   1.336  52.327  1.00  0.00     0.185 A 
HETATM    4  N2  UNL     1      21.041   1.934  51.939  1.00  0.00    -0.161 NA
HETATM    5  N4  UNL     1      22.122   0.298  53.303  1.00  0.00    -0.220 NA
HETATM    6  C10 UNL     1      23.209  -0.286  53.678  1.00  0.00     0.237 A 
HETATM    7  N5  UNL     1      24.489   0.018  53.189  1.00  0.00    -0.223 NA
HETATM    8  C11 UNL     1      24.631   0.952  52.290  1.00  0.00     0.145 A 
ENDROOT
BRANCH   1   9
HETATM    9  N1  UNL     1      24.470   3.301  50.109  1.00  0.00    -0.394 N 
HETATM   10  H8  UNL     1      25.052   2.889  49.320  1.00  0.00     0.159 HD
BRANCH   9  11
HETATM   11  C6  UNL     1      24.579   4.712  50.409  1.00  0.00     0.157 C 
BRANCH  11  12
HETATM   12  C5  UNL     1      25.753   5.272  49.654  1.00  0.00    -0.040 A 
HETATM   13  C4  UNL     1      26.730   4.366  49.289  1.00  0.00     0.011 A 
HETATM   14  C3  UNL     1      27.865   4.734  48.592  1.00  0.00     0.037 A 
HETATM   15  C2  UNL     1      27.995   6.075  48.264  1.00  0.00     0.068 A 
HETATM   16  C19 UNL     1      27.022   6.971  48.629  1.00  0.00     0.037 A 
HETATM   17  C18 UNL     1      25.890   6.607  49.323  1.00  0.00     0.011 A 
BRANCH  15  18
HETATM   18  O1  UNL     1      29.114   6.525  47.561  1.00  0.00    -0.356 OA
HETATM   19  C1  UNL     1      30.412   6.112  47.956  1.00  0.00     0.210 C 
ENDBRANCH  15  18
ENDBRANCH  11  12
ENDBRANCH   9  11
ENDBRANCH   1   9
BRANCH   8  20
HETATM   20  N6  UNL     1      25.913   1.252  51.804  1.00  0.00    -0.340 N 
HETATM   21  H13 UNL     1      25.979   1.726  50.876  1.00  0.00     0.167 HD
BRANCH  20  22
HETATM   22  C12 UNL     1      27.080   0.921  52.551  1.00  0.00     0.035 A 
HETATM   23  C13 UNL     1      27.753   1.924  53.259  1.00  0.00     0.029 A 
HETATM   24  C14 UNL     1      28.887   1.600  53.985  1.00  0.00     0.004 A 
HETATM   25  C15 UNL     1      29.347   0.300  54.007  1.00  0.00     0.024 A 
HETATM   26  C16 UNL     1      28.708  -0.730  53.316  1.00  0.00     0.036 A 
HETATM   27 CL1  UNL     1      29.287  -2.388  53.339  1.00  0.00    -0.084 Cl
HETATM   28  C17 UNL     1      27.588  -0.361  52.612  1.00  0.00     0.053 A 
ENDBRANCH  20  22
ENDBRANCH   8  20
BRANCH   4  29
HETATM   29  N3  UNL     1      19.831   1.518  52.522  1.00  0.00    -0.321 N 
HETATM   30  H10 UNL     1      19.572   1.733  53.521  1.00  0.00     0.179 HD
HETATM   31  H11 UNL     1      19.037   0.968  52.106  1.00  0.00     0.179 HD
ENDBRANCH   4  29
TORSDOF 7
ENDMDL
