MODEL 1
REMARK VINA RESULT:      -6.8      0.000      0.000
REMARK  6 active torsions:
REMARK  status: ('A' for Active; 'I' for Inactive)
REMARK    1  A    between atoms: C11_12  and  O1_13 
REMARK    2  A    between atoms: O1_13  and  C12_14 
REMARK    3  A    between atoms: C12_14  and  C13_15 
REMARK    4  A    between atoms: C13_15  and  O2_16 
REMARK    5  A    between atoms: C16_19  and  N2_20 
REMARK    6  A    between atoms: C18_23  and  O4_24 
ROOT
HETATM    1  C1  UNL     1      27.488   8.733  48.415  1.00  0.00     0.019 C 
HETATM    2  C2  UNL     1      28.577   8.200  48.345  1.00  0.00    -0.060 C 
HETATM    3  C3  UNL     1      29.883   7.559  48.275  1.00  0.00     0.084 C 
HETATM    4  C4  UNL     1      29.863   6.527  47.397  1.00  0.00     0.039 C 
HETATM    5  C5  UNL     1      30.763   5.349  47.543  1.00  0.00     0.015 C 
HETATM    6  C6  UNL     1      31.884   5.125  48.274  1.00  0.00    -0.003 C 
HETATM    7  C7  UNL     1      31.885   5.991  49.532  1.00  0.00     0.060 C 
HETATM    8  N1  UNL     1      31.677   5.696  50.768  1.00  0.00    -0.302 NA
HETATM    9  C8  UNL     1      32.165   7.480  49.424  1.00  0.00     0.178 C 
HETATM   10  C9  UNL     1      33.073   7.616  48.220  1.00  0.00     0.195 A 
HETATM   11  C10 UNL     1      32.419   8.423  47.267  1.00  0.00     0.033 A 
HETATM   12  C11 UNL     1      33.182   7.453  46.668  1.00  0.00     0.153 A 
HETATM   13  C15 UNL     1      33.820   6.674  47.574  1.00  0.00     0.223 A 
HETATM   14  C16 UNL     1      34.520   5.812  48.370  1.00  0.00     0.628 A 
HETATM   15  N2  UNL     1      33.780   6.746  48.953  1.00  0.00    -0.073 NA
HETATM   16  O3  UNL     1      34.484   5.634  46.798  1.00  0.00     0.000 OA
HETATM   17  C17 UNL     1      33.454   4.635  46.393  1.00  0.00     0.040 C 
HETATM   18  C18 UNL     1      32.764   4.086  47.601  1.00  0.00     0.156 C 
HETATM   19  N3  UNL     1      30.892   8.141  49.125  1.00  0.00    -0.365 N 
HETATM   20  C20 UNL     1      30.523   9.447  49.661  1.00  0.00     0.151 C 
HETATM   21  H4  UNL     1      31.464   4.689  51.022  1.00  0.00     0.186 HD
ENDROOT
BRANCH  18  22
HETATM   22  O4  UNL     1      31.827   3.124  47.141  1.00  0.00    -0.386 OA
HETATM   23  C19 UNL     1      32.482   1.929  46.844  1.00  0.00     0.202 C 
ENDBRANCH  18  22
BRANCH  12  24
HETATM   24  O1  UNL     1      33.200   7.401  45.287  1.00  0.00    -0.368 OA
BRANCH  24  25
HETATM   25  C12 UNL     1      34.109   8.048  44.480  1.00  0.00     0.195 C 
BRANCH  25  26
HETATM   26  C13 UNL     1      34.336   7.296  43.169  1.00  0.00     0.193 C 
BRANCH  26  27
HETATM   27  O2  UNL     1      34.841   6.026  43.403  1.00  0.00    -0.394 OA
HETATM   28  C14 UNL     1      34.182   5.040  42.701  1.00  0.00     0.201 C 
ENDBRANCH  26  27
ENDBRANCH  25  26
ENDBRANCH  24  25
ENDBRANCH  12  24
TORSDOF 6
ENDMDL
MODEL 2
REMARK VINA RESULT:      -6.6      7.746     10.957
REMARK  6 active torsions:
REMARK  status: ('A' for Active; 'I' for Inactive)
REMARK    1  A    between atoms: C11_12  and  O1_13 
REMARK    2  A    between atoms: O1_13  and  C12_14 
REMARK    3  A    between atoms: C12_14  and  C13_15 
REMARK    4  A    between atoms: C13_15  and  O2_16 
REMARK    5  A    between atoms: C16_19  and  N2_20 
REMARK    6  A    between atoms: C18_23  and  O4_24 
ROOT
HETATM    1  C1  UNL     1      27.917   5.105  48.516  1.00  0.00     0.019 C 
HETATM    2  C2  UNL     1      26.775   5.033  48.923  1.00  0.00    -0.060 C 
HETATM    3  C3  UNL     1      25.410   4.949  49.423  1.00  0.00     0.084 C 
HETATM    4  C4  UNL     1      24.605   5.820  48.767  1.00  0.00     0.039 C 
HETATM    5  C5  UNL     1      23.396   6.412  49.406  1.00  0.00     0.015 C 
HETATM    6  C6  UNL     1      22.682   6.088  50.514  1.00  0.00    -0.003 C 
HETATM    7  C7  UNL     1      23.572   5.388  51.539  1.00  0.00     0.060 C 
HETATM    8  N1  UNL     1      24.077   5.799  52.650  1.00  0.00    -0.302 NA
HETATM    9  C8  UNL     1      24.002   3.949  51.308  1.00  0.00     0.178 C 
HETATM   10  C9  UNL     1      22.876   3.334  50.501  1.00  0.00     0.195 A 
HETATM   11  C10 UNL     1      23.404   2.912  49.265  1.00  0.00     0.033 A 
HETATM   12  C11 UNL     1      22.114   3.357  49.135  1.00  0.00     0.153 A 
HETATM   13  C15 UNL     1      21.594   3.762  50.319  1.00  0.00     0.223 A 
HETATM   14  C16 UNL     1      20.942   4.204  51.436  1.00  0.00     0.628 A 
HETATM   15  N2  UNL     1      22.191   3.778  51.564  1.00  0.00    -0.073 NA
HETATM   16  O3  UNL     1      20.281   4.309  50.002  1.00  0.00     0.000 OA
HETATM   17  C17 UNL     1      20.477   5.666  49.417  1.00  0.00     0.040 C 
HETATM   18  C18 UNL     1      21.237   6.534  50.369  1.00  0.00     0.156 C 
HETATM   19  N3  UNL     1      25.207   3.984  50.476  1.00  0.00    -0.365 N 
HETATM   20  C20 UNL     1      26.317   3.050  50.635  1.00  0.00     0.151 C 
HETATM   21  H4  UNL     1      23.876   6.791  52.963  1.00  0.00     0.186 HD
ENDROOT
BRANCH  18  22
HETATM   22  O4  UNL     1      21.357   7.811  49.761  1.00  0.00    -0.386 OA
HETATM   23  C19 UNL     1      20.106   8.426  49.701  1.00  0.00     0.202 C 
ENDBRANCH  18  22
BRANCH  12  24
HETATM   24  O1  UNL     1      21.541   3.335  47.878  1.00  0.00    -0.368 OA
BRANCH  24  25
HETATM   25  C12 UNL     1      22.081   3.913  46.751  1.00  0.00     0.195 C 
BRANCH  25  26
HETATM   26  C13 UNL     1      21.017   4.173  45.684  1.00  0.00     0.193 C 
BRANCH  26  27
HETATM   27  O2  UNL     1      21.379   3.608  44.470  1.00  0.00    -0.394 OA
HETATM   28  C14 UNL     1      20.480   3.869  43.459  1.00  0.00     0.201 C 
ENDBRANCH  26  27
ENDBRANCH  25  26
ENDBRANCH  24  25
ENDBRANCH  12  24
TORSDOF 6
ENDMDL
MODEL 3
REMARK VINA RESULT:      -6.4      9.221     11.938
REMARK  6 active torsions:
REMARK  status: ('A' for Active; 'I' for Inactive)
REMARK    1  A    between atoms: C11_12  and  O1_13 
REMARK    2  A    between atoms: O1_13  and  C12_14 
REMARK    3  A    between atoms: C12_14  and  C13_15 
REMARK    4  A    between atoms: C13_15  and  O2_16 
REMARK    5  A    between atoms: C16_19  and  N2_20 
REMARK    6  A    between atoms: C18_23  and  O4_24 
ROOT
HETATM    1  C1  UNL     1      23.916  -0.497  53.283  1.00  0.00     0.019 C 
HETATM    2  C2  UNL     1      23.795   0.507  52.610  1.00  0.00    -0.060 C 
HETATM    3  C3  UNL     1      23.663   1.710  51.800  1.00  0.00     0.084 C 
HETATM    4  C4  UNL     1      22.724   1.539  50.838  1.00  0.00     0.039 C 
HETATM    5  C5  UNL     1      22.782   2.267  49.539  1.00  0.00     0.015 C 
HETATM    6  C6  UNL     1      23.478   3.353  49.117  1.00  0.00    -0.003 C 
HETATM    7  C7  UNL     1      24.787   3.484  49.893  1.00  0.00     0.060 C 
HETATM    8  N1  UNL     1      26.006   3.248  49.552  1.00  0.00    -0.302 NA
HETATM    9  C8  UNL     1      24.766   3.968  51.333  1.00  0.00     0.178 C 
HETATM   10  C9  UNL     1      23.557   4.877  51.418  1.00  0.00     0.195 A 
HETATM   11  C10 UNL     1      22.667   4.333  52.365  1.00  0.00     0.033 A 
HETATM   12  C11 UNL     1      21.996   4.948  51.340  1.00  0.00     0.153 A 
HETATM   13  C15 UNL     1      22.842   5.479  50.424  1.00  0.00     0.223 A 
HETATM   14  C16 UNL     1      23.571   6.059  49.424  1.00  0.00     0.628 A 
HETATM   15  N2  UNL     1      24.223   5.462  50.413  1.00  0.00    -0.073 NA
HETATM   16  O3  UNL     1      21.992   5.985  49.353  1.00  0.00     0.000 OA
HETATM   17  C17 UNL     1      21.544   4.823  48.534  1.00  0.00     0.040 C 
HETATM   18  C18 UNL     1      22.728   4.073  48.011  1.00  0.00     0.156 C 
HETATM   19  N3  UNL     1      24.530   2.797  52.182  1.00  0.00    -0.365 N 
HETATM   20  C20 UNL     1      25.151   2.619  53.490  1.00  0.00     0.151 C 
HETATM   21  H4  UNL     1      26.201   2.899  48.571  1.00  0.00     0.186 HD
ENDROOT
BRANCH  18  22
HETATM   22  O4  UNL     1      22.226   3.007  47.219  1.00  0.00    -0.386 OA
HETATM   23  C19 UNL     1      21.154   3.454  46.447  1.00  0.00     0.202 C 
ENDBRANCH  18  22
BRANCH  12  24
HETATM   24  O1  UNL     1      20.614   4.947  51.372  1.00  0.00    -0.368 OA
BRANCH  24  25
HETATM   25  C12 UNL     1      19.827   3.838  51.582  1.00  0.00     0.195 C 
BRANCH  25  26
HETATM   26  C13 UNL     1      18.409   4.042  51.050  1.00  0.00     0.193 C 
BRANCH  26  27
HETATM   27  O2  UNL     1      17.464   3.620  51.974  1.00  0.00    -0.394 OA
HETATM   28  C14 UNL     1      16.283   4.326  51.906  1.00  0.00     0.201 C 
ENDBRANCH  26  27
ENDBRANCH  25  26
ENDBRANCH  24  25
ENDBRANCH  12  24
TORSDOF 6
ENDMDL
MODEL 4
REMARK VINA RESULT:      -6.4      7.837     10.988
REMARK  6 active torsions:
REMARK  status: ('A' for Active; 'I' for Inactive)
REMARK    1  A    between atoms: C11_12  and  O1_13 
REMARK    2  A    between atoms: O1_13  and  C12_14 
REMARK    3  A    between atoms: C12_14  and  C13_15 
REMARK    4  A    between atoms: C13_15  and  O2_16 
REMARK    5  A    between atoms: C16_19  and  N2_20 
REMARK    6  A    between atoms: C18_23  and  O4_24 
ROOT
HETATM    1  C1  UNL     1      28.070   5.190  48.582  1.00  0.00     0.019 C 
HETATM    2  C2  UNL     1      26.910   5.083  48.929  1.00  0.00    -0.060 C 
HETATM    3  C3  UNL     1      25.517   4.963  49.334  1.00  0.00     0.084 C 
HETATM    4  C4  UNL     1      25.132   3.664  49.345  1.00  0.00     0.039 C 
HETATM    5  C5  UNL     1      23.719   3.257  49.104  1.00  0.00     0.015 C 
HETATM    6  C6  UNL     1      22.546   3.939  49.110  1.00  0.00    -0.003 C 
HETATM    7  C7  UNL     1      22.776   5.406  48.752  1.00  0.00     0.060 C 
HETATM    8  N1  UNL     1      22.527   6.068  47.676  1.00  0.00    -0.302 NA
HETATM    9  C8  UNL     1      23.408   6.341  49.768  1.00  0.00     0.178 C 
HETATM   10  C9  UNL     1      22.999   5.782  51.115  1.00  0.00     0.195 A 
HETATM   11  C10 UNL     1      24.169   5.427  51.816  1.00  0.00     0.033 A 
HETATM   12  C11 UNL     1      23.134   4.573  52.100  1.00  0.00     0.153 A 
HETATM   13  C15 UNL     1      22.001   4.907  51.435  1.00  0.00     0.223 A 
HETATM   14  C16 UNL     1      20.795   5.123  50.831  1.00  0.00     0.628 A 
HETATM   15  N2  UNL     1      21.795   5.949  50.552  1.00  0.00    -0.073 NA
HETATM   16  O3  UNL     1      21.042   3.853  51.742  1.00  0.00     0.000 OA
HETATM   17  C17 UNL     1      21.391   2.660  50.920  1.00  0.00     0.040 C 
HETATM   18  C18 UNL     1      21.392   3.017  49.467  1.00  0.00     0.156 C 
HETATM   19  N3  UNL     1      24.861   6.213  49.633  1.00  0.00    -0.365 N 
HETATM   20  C20 UNL     1      25.782   7.335  49.783  1.00  0.00     0.151 C 
HETATM   21  H4  UNL     1      22.083   5.562  46.858  1.00  0.00     0.186 HD
ENDROOT
BRANCH  18  22
HETATM   22  O4  UNL     1      21.698   1.831  48.749  1.00  0.00    -0.386 OA
HETATM   23  C19 UNL     1      21.168   0.725  49.414  1.00  0.00     0.202 C 
ENDBRANCH  18  22
BRANCH  12  24
HETATM   24  O1  UNL     1      23.369   3.536  52.982  1.00  0.00    -0.368 OA
BRANCH  24  25
HETATM   25  C12 UNL     1      24.544   2.824  53.074  1.00  0.00     0.195 C 
BRANCH  25  26
HETATM   26  C13 UNL     1      24.388   1.404  52.528  1.00  0.00     0.193 C 
BRANCH  26  27
HETATM   27  O2  UNL     1      23.317   0.755  53.124  1.00  0.00    -0.394 OA
HETATM   28  C14 UNL     1      23.632  -0.507  53.581  1.00  0.00     0.201 C 
ENDBRANCH  26  27
ENDBRANCH  25  26
ENDBRANCH  24  25
ENDBRANCH  12  24
TORSDOF 6
ENDMDL
MODEL 5
REMARK VINA RESULT:      -6.4      2.459      6.001
REMARK  6 active torsions:
REMARK  status: ('A' for Active; 'I' for Inactive)
REMARK    1  A    between atoms: C11_12  and  O1_13 
REMARK    2  A    between atoms: O1_13  and  C12_14 
REMARK    3  A    between atoms: C12_14  and  C13_15 
REMARK    4  A    between atoms: C13_15  and  O2_16 
REMARK    5  A    between atoms: C16_19  and  N2_20 
REMARK    6  A    between atoms: C18_23  and  O4_24 
ROOT
HETATM    1  C1  UNL     1      33.544   4.358  43.139  1.00  0.00     0.019 C 
HETATM    2  C2  UNL     1      33.251   4.971  44.146  1.00  0.00    -0.060 C 
HETATM    3  C3  UNL     1      32.914   5.706  45.357  1.00  0.00     0.084 C 
HETATM    4  C4  UNL     1      32.309   6.880  45.052  1.00  0.00     0.039 C 
HETATM    5  C5  UNL     1      32.405   8.072  45.941  1.00  0.00     0.015 C 
HETATM    6  C6  UNL     1      32.786   8.234  47.233  1.00  0.00    -0.003 C 
HETATM    7  C7  UNL     1      33.784   7.151  47.638  1.00  0.00     0.060 C 
HETATM    8  N1  UNL     1      35.057   7.194  47.827  1.00  0.00    -0.302 NA
HETATM    9  C8  UNL     1      33.300   5.732  47.884  1.00  0.00     0.178 C 
HETATM   10  C9  UNL     1      31.873   5.889  48.369  1.00  0.00     0.195 A 
HETATM   11  C10 UNL     1      31.026   5.230  47.456  1.00  0.00     0.033 A 
HETATM   12  C11 UNL     1      30.428   6.346  47.981  1.00  0.00     0.153 A 
HETATM   13  C15 UNL     1      31.232   6.986  48.865  1.00  0.00     0.223 A 
HETATM   14  C16 UNL     1      31.931   7.733  49.772  1.00  0.00     0.628 A 
HETATM   15  N2  UNL     1      32.513   6.656  49.262  1.00  0.00    -0.073 NA
HETATM   16  O3  UNL     1      30.514   8.198  49.241  1.00  0.00     0.000 OA
HETATM   17  C17 UNL     1      30.652   9.178  48.127  1.00  0.00     0.040 C 
HETATM   18  C18 UNL     1      32.098   9.441  47.847  1.00  0.00     0.156 C 
HETATM   19  N3  UNL     1      33.280   5.049  46.588  1.00  0.00    -0.365 N 
HETATM   20  C20 UNL     1      33.630   3.642  46.418  1.00  0.00     0.151 C 
HETATM   21  H4  UNL     1      35.560   8.117  47.695  1.00  0.00     0.186 HD
ENDROOT
BRANCH  18  22
HETATM   22  O4  UNL     1      32.150  10.402  46.803  1.00  0.00    -0.386 OA
HETATM   23  C19 UNL     1      31.317  11.479  47.109  1.00  0.00     0.202 C 
ENDBRANCH  18  22
BRANCH  12  24
HETATM   24  O1  UNL     1      29.148   6.657  47.563  1.00  0.00    -0.368 OA
BRANCH  24  25
HETATM   25  C12 UNL     1      27.991   6.283  48.207  1.00  0.00     0.195 C 
BRANCH  25  26
HETATM   26  C13 UNL     1      27.027   7.459  48.368  1.00  0.00     0.193 C 
BRANCH  26  27
HETATM   27  O2  UNL     1      26.792   7.733  49.708  1.00  0.00    -0.394 OA
HETATM   28  C14 UNL     1      27.139   9.016  50.070  1.00  0.00     0.201 C 
ENDBRANCH  26  27
ENDBRANCH  25  26
ENDBRANCH  24  25
ENDBRANCH  12  24
TORSDOF 6
ENDMDL
MODEL 6
REMARK VINA RESULT:      -6.3      8.757     10.934
REMARK  6 active torsions:
REMARK  status: ('A' for Active; 'I' for Inactive)
REMARK    1  A    between atoms: C11_12  and  O1_13 
REMARK    2  A    between atoms: O1_13  and  C12_14 
REMARK    3  A    between atoms: C12_14  and  C13_15 
REMARK    4  A    between atoms: C13_15  and  O2_16 
REMARK    5  A    between atoms: C16_19  and  N2_20 
REMARK    6  A    between atoms: C18_23  and  O4_24 
ROOT
HETATM    1  C1  UNL     1      21.894   3.650  45.381  1.00  0.00     0.019 C 
HETATM    2  C2  UNL     1      22.095   3.704  46.578  1.00  0.00    -0.060 C 
HETATM    3  C3  UNL     1      22.325   3.778  48.014  1.00  0.00     0.084 C 
HETATM    4  C4  UNL     1      22.195   2.555  48.583  1.00  0.00     0.039 C 
HETATM    5  C5  UNL     1      21.762   2.384  49.999  1.00  0.00     0.015 C 
HETATM    6  C6  UNL     1      21.682   3.238  51.051  1.00  0.00    -0.003 C 
HETATM    7  C7  UNL     1      21.461   4.668  50.565  1.00  0.00     0.060 C 
HETATM    8  N1  UNL     1      20.415   5.420  50.577  1.00  0.00    -0.302 NA
HETATM    9  C8  UNL     1      22.610   5.438  49.936  1.00  0.00     0.178 C 
HETATM   10  C9  UNL     1      23.855   4.876  50.590  1.00  0.00     0.195 A 
HETATM   11  C10 UNL     1      24.660   4.308  49.582  1.00  0.00     0.033 A 
HETATM   12  C11 UNL     1      24.757   3.609  50.758  1.00  0.00     0.153 A 
HETATM   13  C15 UNL     1      23.991   4.149  51.737  1.00  0.00     0.223 A 
HETATM   14  C16 UNL     1      23.268   4.581  52.813  1.00  0.00     0.628 A 
HETATM   15  N2  UNL     1      23.169   5.257  51.676  1.00  0.00    -0.073 NA
HETATM   16  O3  UNL     1      24.107   3.240  52.870  1.00  0.00     0.000 OA
HETATM   17  C17 UNL     1      23.246   2.054  52.599  1.00  0.00     0.040 C 
HETATM   18  C18 UNL     1      21.833   2.486  52.362  1.00  0.00     0.156 C 
HETATM   19  N3  UNL     1      22.635   5.095  48.512  1.00  0.00    -0.365 N 
HETATM   20  C20 UNL     1      22.973   6.052  47.464  1.00  0.00     0.151 C 
HETATM   21  H4  UNL     1      19.516   5.033  50.983  1.00  0.00     0.186 HD
ENDROOT
BRANCH  18  22
HETATM   22  O4  UNL     1      21.071   1.308  52.145  1.00  0.00    -0.386 OA
HETATM   23  C19 UNL     1      21.377   0.359  53.120  1.00  0.00     0.202 C 
ENDBRANCH  18  22
BRANCH  12  24
HETATM   24  O1  UNL     1      25.583   2.501  50.790  1.00  0.00    -0.368 OA
BRANCH  24  25
HETATM   25  C12 UNL     1      26.811   2.445  51.410  1.00  0.00     0.195 C 
BRANCH  25  26
HETATM   26  C13 UNL     1      26.928   1.225  52.324  1.00  0.00     0.193 C 
BRANCH  26  27
HETATM   27  O2  UNL     1      26.893   1.598  53.660  1.00  0.00    -0.394 OA
HETATM   28  C14 UNL     1      26.643   0.545  54.512  1.00  0.00     0.201 C 
ENDBRANCH  26  27
ENDBRANCH  25  26
ENDBRANCH  24  25
ENDBRANCH  12  24
TORSDOF 6
ENDMDL
MODEL 7
REMARK VINA RESULT:      -6.2      7.823     10.733
REMARK  6 active torsions:
REMARK  status: ('A' for Active; 'I' for Inactive)
REMARK    1  A    between atoms: C11_12  and  O1_13 
REMARK    2  A    between atoms: O1_13  and  C12_14 
REMARK    3  A    between atoms: C12_14  and  C13_15 
REMARK    4  A    between atoms: C13_15  and  O2_16 
REMARK    5  A    between atoms: C16_19  and  N2_20 
REMARK    6  A    between atoms: C18_23  and  O4_24 
ROOT
HETATM    1  C1  UNL     1      21.812   0.278  51.531  1.00  0.00     0.019 C 
HETATM    2  C2  UNL     1      22.046   1.431  51.227  1.00  0.00    -0.060 C 
HETATM    3  C3  UNL     1      22.330   2.815  50.877  1.00  0.00     0.084 C 
HETATM    4  C4  UNL     1      23.241   2.879  49.876  1.00  0.00     0.039 C 
HETATM    5  C5  UNL     1      24.165   4.037  49.721  1.00  0.00     0.015 C 
HETATM    6  C6  UNL     1      24.173   5.290  50.241  1.00  0.00    -0.003 C 
HETATM    7  C7  UNL     1      23.466   5.314  51.594  1.00  0.00     0.060 C 
HETATM    8  N1  UNL     1      23.925   5.401  52.794  1.00  0.00    -0.302 NA
HETATM    9  C8  UNL     1      21.951   5.220  51.656  1.00  0.00     0.178 C 
HETATM   10  C9  UNL     1      21.472   5.846  50.362  1.00  0.00     0.195 A 
HETATM   11  C10 UNL     1      20.763   4.866  49.638  1.00  0.00     0.033 A 
HETATM   12  C11 UNL     1      21.446   5.713  48.803  1.00  0.00     0.153 A 
HETATM   13  C15 UNL     1      22.128   6.663  49.488  1.00  0.00     0.223 A 
HETATM   14  C16 UNL     1      22.863   7.672  50.044  1.00  0.00     0.628 A 
HETATM   15  N2  UNL     1      22.207   6.852  50.854  1.00  0.00    -0.073 NA
HETATM   16  O3  UNL     1      22.886   7.400  48.485  1.00  0.00     0.000 OA
HETATM   17  C17 UNL     1      24.065   6.573  48.100  1.00  0.00     0.040 C 
HETATM   18  C18 UNL     1      24.887   6.253  49.307  1.00  0.00     0.156 C 
HETATM   19  N3  UNL     1      21.602   3.797  51.643  1.00  0.00    -0.365 N 
HETATM   20  C20 UNL     1      20.490   3.238  52.404  1.00  0.00     0.151 C 
HETATM   21  H4  UNL     1      24.974   5.473  52.933  1.00  0.00     0.186 HD
ENDROOT
BRANCH  18  22
HETATM   22  O4  UNL     1      26.002   5.496  48.860  1.00  0.00    -0.386 OA
HETATM   23  C19 UNL     1      27.083   6.343  48.618  1.00  0.00     0.202 C 
ENDBRANCH  18  22
BRANCH  12  24
HETATM   24  O1  UNL     1      21.354   5.498  47.441  1.00  0.00    -0.368 OA
BRANCH  24  25
HETATM   25  C12 UNL     1      21.740   4.348  46.792  1.00  0.00     0.195 C 
BRANCH  25  26
HETATM   26  C13 UNL     1      22.035   4.604  45.314  1.00  0.00     0.193 C 
BRANCH  26  27
HETATM   27  O2  UNL     1      21.564   3.566  44.524  1.00  0.00    -0.394 OA
HETATM   28  C14 UNL     1      20.289   3.780  44.047  1.00  0.00     0.201 C 
ENDBRANCH  26  27
ENDBRANCH  25  26
ENDBRANCH  24  25
ENDBRANCH  12  24
TORSDOF 6
ENDMDL
MODEL 8
REMARK VINA RESULT:      -6.0      8.250     11.324
REMARK  6 active torsions:
REMARK  status: ('A' for Active; 'I' for Inactive)
REMARK    1  A    between atoms: C11_12  and  O1_13 
REMARK    2  A    between atoms: O1_13  and  C12_14 
REMARK    3  A    between atoms: C12_14  and  C13_15 
REMARK    4  A    between atoms: C13_15  and  O2_16 
REMARK    5  A    between atoms: C16_19  and  N2_20 
REMARK    6  A    between atoms: C18_23  and  O4_24 
ROOT
HETATM    1  C1  UNL     1      25.860   6.973  48.159  1.00  0.00     0.019 C 
HETATM    2  C2  UNL     1      25.021   6.297  48.723  1.00  0.00    -0.060 C 
HETATM    3  C3  UNL     1      24.009   5.499  49.398  1.00  0.00     0.084 C 
HETATM    4  C4  UNL     1      23.677   4.416  48.653  1.00  0.00     0.039 C 
HETATM    5  C5  UNL     1      22.328   3.788  48.731  1.00  0.00     0.015 C 
HETATM    6  C6  UNL     1      21.311   3.885  49.624  1.00  0.00    -0.003 C 
HETATM    7  C7  UNL     1      21.338   5.245  50.320  1.00  0.00     0.060 C 
HETATM    8  N1  UNL     1      20.592   6.285  50.184  1.00  0.00    -0.302 NA
HETATM    9  C8  UNL     1      22.391   5.532  51.377  1.00  0.00     0.178 C 
HETATM   10  C9  UNL     1      22.698   4.182  51.993  1.00  0.00     0.195 A 
HETATM   11  C10 UNL     1      24.061   3.900  51.772  1.00  0.00     0.033 A 
HETATM   12  C11 UNL     1      23.299   2.760  51.738  1.00  0.00     0.153 A 
HETATM   13  C15 UNL     1      21.986   3.019  51.955  1.00  0.00     0.223 A 
HETATM   14  C16 UNL     1      20.639   3.130  52.155  1.00  0.00     0.628 A 
HETATM   15  N2  UNL     1      21.373   4.234  52.185  1.00  0.00    -0.073 NA
HETATM   16  O3  UNL     1      21.302   1.745  51.772  1.00  0.00     0.000 OA
HETATM   17  C17 UNL     1      21.197   1.485  50.308  1.00  0.00     0.040 C 
HETATM   18  C18 UNL     1      20.483   2.612  49.633  1.00  0.00     0.156 C 
HETATM   19  N3  UNL     1      23.588   6.009  50.680  1.00  0.00    -0.365 N 
HETATM   20  C20 UNL     1      24.465   7.046  51.213  1.00  0.00     0.151 C 
HETATM   21  H4  UNL     1      19.802   6.256  49.479  1.00  0.00     0.186 HD
ENDROOT
BRANCH  18  22
HETATM   22  O4  UNL     1      20.393   2.281  48.256  1.00  0.00    -0.386 OA
HETATM   23  C19 UNL     1      19.248   2.856  47.704  1.00  0.00     0.202 C 
ENDBRANCH  18  22
BRANCH  12  24
HETATM   24  O1  UNL     1      23.937   1.558  51.501  1.00  0.00    -0.368 OA
BRANCH  24  25
HETATM   25  C12 UNL     1      24.676   0.856  52.425  1.00  0.00     0.195 C 
BRANCH  25  26
HETATM   26  C13 UNL     1      26.170   0.898  52.105  1.00  0.00     0.193 C 
BRANCH  26  27
HETATM   27  O2  UNL     1      26.651  -0.368  51.803  1.00  0.00    -0.394 OA
HETATM   28  C14 UNL     1      27.170  -1.028  52.895  1.00  0.00     0.201 C 
ENDBRANCH  26  27
ENDBRANCH  25  26
ENDBRANCH  24  25
ENDBRANCH  12  24
TORSDOF 6
ENDMDL
MODEL 9
REMARK VINA RESULT:      -6.0      3.777      5.408
REMARK  6 active torsions:
REMARK  status: ('A' for Active; 'I' for Inactive)
REMARK    1  A    between atoms: C11_12  and  O1_13 
REMARK    2  A    between atoms: O1_13  and  C12_14 
REMARK    3  A    between atoms: C12_14  and  C13_15 
REMARK    4  A    between atoms: C13_15  and  O2_16 
REMARK    5  A    between atoms: C16_19  and  N2_20 
REMARK    6  A    between atoms: C18_23  and  O4_24 
ROOT
HETATM    1  C1  UNL     1      24.025   7.761  46.757  1.00  0.00     0.019 C 
HETATM    2  C2  UNL     1      25.114   8.175  47.102  1.00  0.00    -0.060 C 
HETATM    3  C3  UNL     1      26.414   8.673  47.529  1.00  0.00     0.084 C 
HETATM    4  C4  UNL     1      27.383   7.761  47.273  1.00  0.00     0.039 C 
HETATM    5  C5  UNL     1      28.624   7.675  48.094  1.00  0.00     0.015 C 
HETATM    6  C6  UNL     1      29.205   8.519  48.984  1.00  0.00    -0.003 C 
HETATM    7  C7  UNL     1      28.153   9.406  49.647  1.00  0.00     0.060 C 
HETATM    8  N1  UNL     1      27.644   9.384  50.829  1.00  0.00    -0.302 NA
HETATM    9  C8  UNL     1      27.526  10.547  48.865  1.00  0.00     0.178 C 
HETATM   10  C9  UNL     1      28.595  10.975  47.881  1.00  0.00     0.195 A 
HETATM   11  C10 UNL     1      28.092  10.788  46.578  1.00  0.00     0.033 A 
HETATM   12  C11 UNL     1      29.441  10.548  46.636  1.00  0.00     0.153 A 
HETATM   13  C15 UNL     1      29.937  10.730  47.883  1.00  0.00     0.223 A 
HETATM   14  C16 UNL     1      30.573  10.873  49.084  1.00  0.00     0.628 A 
HETATM   15  N2  UNL     1      29.268  11.103  49.032  1.00  0.00    -0.073 NA
HETATM   16  O3  UNL     1      31.337  10.328  47.810  1.00  0.00     0.000 OA
HETATM   17  C17 UNL     1      31.388   8.838  47.810  1.00  0.00     0.040 C 
HETATM   18  C18 UNL     1      30.707   8.298  49.028  1.00  0.00     0.156 C 
HETATM   19  N3  UNL     1      26.397   9.991  48.114  1.00  0.00    -0.365 N 
HETATM   20  C20 UNL     1      25.150  10.715  47.889  1.00  0.00     0.151 C 
HETATM   21  H4  UNL     1      27.973   8.641  51.510  1.00  0.00     0.186 HD
ENDROOT
BRANCH  18  22
HETATM   22  O4  UNL     1      30.824   6.885  48.975  1.00  0.00    -0.386 OA
HETATM   23  C19 UNL     1      31.959   6.477  49.675  1.00  0.00     0.202 C 
ENDBRANCH  18  22
BRANCH  12  24
HETATM   24  O1  UNL     1      30.085  10.171  45.473  1.00  0.00    -0.368 OA
BRANCH  24  25
HETATM   25  C12 UNL     1      30.411  11.017  44.437  1.00  0.00     0.195 C 
BRANCH  25  26
HETATM   26  C13 UNL     1      31.449  12.056  44.860  1.00  0.00     0.193 C 
BRANCH  26  27
HETATM   27  O2  UNL     1      31.078  13.328  44.452  1.00  0.00    -0.394 OA
HETATM   28  C14 UNL     1      30.057  13.866  45.204  1.00  0.00     0.201 C 
ENDBRANCH  26  27
ENDBRANCH  25  26
ENDBRANCH  24  25
ENDBRANCH  12  24
TORSDOF 6
ENDMDL
