MODEL 1
REMARK VINA RESULT:      -7.7      0.000      0.000
REMARK  7 active torsions:
REMARK  status: ('A' for Active; 'I' for Inactive)
REMARK    1  A    between atoms: C2_2  and  N2_14 
REMARK    2  A    between atoms: C3_3  and  C4_4 
REMARK    3  A    between atoms: C5_5  and  N1_6 
REMARK    4  A    between atoms: N1_6  and  C6_7 
REMARK    5  A    between atoms: N2_14  and  C12_15 
REMARK    6  A    between atoms: C13_16  and  C14_17 
REMARK    7  A    between atoms: C14_17  and  N3_18 
ROOT
HETATM    1  C1  UNL     1      25.227   5.761  48.937  1.00  0.00     0.068 C 
HETATM    2  C2  UNL     1      26.700   5.557  49.049  1.00  0.00     0.005 C 
HETATM    3  C3  UNL     1      27.150   4.344  49.322  1.00  0.00     0.026 C 
ENDROOT
BRANCH   2   4
HETATM    4  N2  UNL     1      27.578   6.658  48.866  1.00  0.00    -0.370 N 
HETATM    5  H12 UNL     1      27.520   7.538  49.447  1.00  0.00     0.165 HD
BRANCH   4   6
HETATM    6  C12 UNL     1      28.535   6.501  47.849  1.00  0.00     0.085 C 
HETATM    7  C13 UNL     1      29.843   6.547  47.704  1.00  0.00     0.010 C 
BRANCH   7   8
HETATM    8  C14 UNL     1      30.908   6.816  48.697  1.00  0.00     0.154 C 
BRANCH   8   9
HETATM    9  N3  UNL     1      32.022   5.941  48.400  1.00  0.00    -0.345 N 
HETATM   10  C15 UNL     1      32.067   4.581  47.879  1.00  0.00     0.152 C 
HETATM   11  C16 UNL     1      33.318   4.526  47.012  1.00  0.00     0.188 C 
HETATM   12  O1  UNL     1      34.487   4.535  47.762  1.00  0.00    -0.380 OA
HETATM   13  C17 UNL     1      34.552   5.588  48.657  1.00  0.00     0.270 C 
HETATM   14  C18 UNL     1      33.345   6.460  48.645  1.00  0.00     0.243 C 
HETATM   15  O2  UNL     1      33.485   7.709  48.858  1.00  0.00    -0.271 OA
ENDBRANCH   8   9
ENDBRANCH   7   8
ENDBRANCH   4   6
ENDBRANCH   2   4
BRANCH   3  16
HETATM   16  C4  UNL     1      26.214   3.247  49.504  1.00  0.00     0.019 C 
HETATM   17  C5  UNL     1      26.019   2.691  50.686  1.00  0.00     0.088 C 
BRANCH  17  18
HETATM   18  N1  UNL     1      26.539   2.896  51.991  1.00  0.00    -0.366 N 
HETATM   19  H7  UNL     1      26.111   3.853  52.171  1.00  0.00     0.165 HD
BRANCH  18  20
HETATM   20  C6  UNL     1      27.374   1.969  52.681  1.00  0.00     0.033 A 
HETATM   21  C7  UNL     1      28.427   2.208  53.537  1.00  0.00     0.029 A 
HETATM   22  C8  UNL     1      29.121   1.140  54.105  1.00  0.00     0.004 A 
HETATM   23  C9  UNL     1      28.704  -0.132  53.768  1.00  0.00     0.019 A 
HETATM   24  C10 UNL     1      27.663  -0.431  52.922  1.00  0.00     0.013 A 
HETATM   25 BR1  UNL     1      27.229  -2.236  52.569  1.00  0.00    -0.051 Br
HETATM   26  C11 UNL     1      26.991   0.662  52.373  1.00  0.00     0.048 A 
ENDBRANCH  18  20
ENDBRANCH  17  18
ENDBRANCH   3  16
TORSDOF 7
ENDMDL
MODEL 2
REMARK VINA RESULT:      -7.6      1.503      2.004
REMARK  7 active torsions:
REMARK  status: ('A' for Active; 'I' for Inactive)
REMARK    1  A    between atoms: C2_2  and  N2_14 
REMARK    2  A    between atoms: C3_3  and  C4_4 
REMARK    3  A    between atoms: C5_5  and  N1_6 
REMARK    4  A    between atoms: N1_6  and  C6_7 
REMARK    5  A    between atoms: N2_14  and  C12_15 
REMARK    6  A    between atoms: C13_16  and  C14_17 
REMARK    7  A    between atoms: C14_17  and  N3_18 
ROOT
HETATM    1  C1  UNL     1      26.159   6.164  48.693  1.00  0.00     0.068 C 
HETATM    2  C2  UNL     1      27.213   5.132  48.912  1.00  0.00     0.005 C 
HETATM    3  C3  UNL     1      26.845   3.929  49.321  1.00  0.00     0.026 C 
ENDROOT
BRANCH   2   4
HETATM    4  N2  UNL     1      28.575   5.460  48.682  1.00  0.00    -0.370 N 
HETATM    5  H12 UNL     1      29.373   4.843  48.995  1.00  0.00     0.165 HD
BRANCH   4   6
HETATM    6  C12 UNL     1      28.797   6.673  48.007  1.00  0.00     0.085 C 
HETATM    7  C13 UNL     1      29.642   7.681  48.034  1.00  0.00     0.010 C 
BRANCH   7   8
HETATM    8  C14 UNL     1      30.816   7.924  48.904  1.00  0.00     0.154 C 
BRANCH   8   9
HETATM    9  N3  UNL     1      31.942   7.212  48.339  1.00  0.00    -0.345 N 
HETATM   10  C15 UNL     1      32.934   7.609  47.348  1.00  0.00     0.152 C 
HETATM   11  C16 UNL     1      34.224   6.922  47.775  1.00  0.00     0.188 C 
HETATM   12  O1  UNL     1      34.198   5.551  47.554  1.00  0.00    -0.380 OA
HETATM   13  C17 UNL     1      33.097   4.930  48.116  1.00  0.00     0.270 C 
HETATM   14  C18 UNL     1      32.167   5.866  48.806  1.00  0.00     0.243 C 
HETATM   15  O2  UNL     1      31.548   5.466  49.846  1.00  0.00    -0.271 OA
ENDBRANCH   8   9
ENDBRANCH   7   8
ENDBRANCH   4   6
ENDBRANCH   2   4
BRANCH   3  16
HETATM   16  C4  UNL     1      25.438   3.639  49.546  1.00  0.00     0.019 C 
HETATM   17  C5  UNL     1      24.997   3.208  50.713  1.00  0.00     0.088 C 
BRANCH  17  18
HETATM   18  N1  UNL     1      25.596   2.912  51.966  1.00  0.00    -0.366 N 
HETATM   19  H7  UNL     1      25.710   3.911  52.314  1.00  0.00     0.165 HD
BRANCH  18  20
HETATM   20  C6  UNL     1      25.880   1.596  52.433  1.00  0.00     0.033 A 
HETATM   21  C7  UNL     1      25.025   0.534  52.635  1.00  0.00     0.029 A 
HETATM   22  C8  UNL     1      25.520  -0.680  53.111  1.00  0.00     0.004 A 
HETATM   23  C9  UNL     1      26.876  -0.752  53.362  1.00  0.00     0.019 A 
HETATM   24  C10 UNL     1      27.775   0.271  53.181  1.00  0.00     0.013 A 
HETATM   25 BR1  UNL     1      29.602  -0.002  53.580  1.00  0.00    -0.051 Br
HETATM   26  C11 UNL     1      27.245   1.471  52.703  1.00  0.00     0.048 A 
ENDBRANCH  18  20
ENDBRANCH  17  18
ENDBRANCH   3  16
TORSDOF 7
ENDMDL
MODEL 3
REMARK VINA RESULT:      -7.6      4.705      7.862
REMARK  7 active torsions:
REMARK  status: ('A' for Active; 'I' for Inactive)
REMARK    1  A    between atoms: C2_2  and  N2_14 
REMARK    2  A    between atoms: C3_3  and  C4_4 
REMARK    3  A    between atoms: C5_5  and  N1_6 
REMARK    4  A    between atoms: N1_6  and  C6_7 
REMARK    5  A    between atoms: N2_14  and  C12_15 
REMARK    6  A    between atoms: C13_16  and  C14_17 
REMARK    7  A    between atoms: C14_17  and  N3_18 
ROOT
HETATM    1  C1  UNL     1      21.527   2.964  51.907  1.00  0.00     0.068 C 
HETATM    2  C2  UNL     1      22.945   2.552  52.118  1.00  0.00     0.005 C 
HETATM    3  C3  UNL     1      23.843   3.489  52.374  1.00  0.00     0.026 C 
ENDROOT
BRANCH   2   4
HETATM    4  N2  UNL     1      23.297   1.179  52.037  1.00  0.00    -0.370 N 
HETATM    5  H12 UNL     1      23.350   0.655  51.122  1.00  0.00     0.165 HD
BRANCH   4   6
HETATM    6  C12 UNL     1      23.570   0.554  53.267  1.00  0.00     0.085 C 
HETATM    7  C13 UNL     1      24.457  -0.270  53.783  1.00  0.00     0.010 C 
BRANCH   7   8
HETATM    8  C14 UNL     1      25.639  -0.914  53.166  1.00  0.00     0.154 C 
BRANCH   8   9
HETATM    9  N3  UNL     1      26.637   0.110  52.944  1.00  0.00    -0.345 N 
HETATM   10  C15 UNL     1      26.774   1.111  51.894  1.00  0.00     0.152 C 
HETATM   11  C16 UNL     1      27.379   2.330  52.579  1.00  0.00     0.188 C 
HETATM   12  O1  UNL     1      28.714   2.147  52.913  1.00  0.00    -0.380 OA
HETATM   13  C17 UNL     1      28.938   1.001  53.655  1.00  0.00     0.270 C 
HETATM   14  C18 UNL     1      27.708   0.200  53.907  1.00  0.00     0.243 C 
HETATM   15  O2  UNL     1      27.597  -0.429  55.009  1.00  0.00    -0.271 OA
ENDBRANCH   8   9
ENDBRANCH   7   8
ENDBRANCH   4   6
ENDBRANCH   2   4
BRANCH   3  16
HETATM   16  C4  UNL     1      23.437   4.882  52.445  1.00  0.00     0.019 C 
HETATM   17  C5  UNL     1      23.455   5.665  51.381  1.00  0.00     0.088 C 
BRANCH  17  18
HETATM   18  N1  UNL     1      23.808   5.497  50.016  1.00  0.00    -0.366 N 
HETATM   19  H7  UNL     1      22.838   5.618  49.598  1.00  0.00     0.165 HD
BRANCH  18  20
HETATM   20  C6  UNL     1      25.131   5.245  49.550  1.00  0.00     0.033 A 
HETATM   21  C7  UNL     1      25.892   4.101  49.651  1.00  0.00     0.029 A 
HETATM   22  C8  UNL     1      27.184   4.072  49.124  1.00  0.00     0.004 A 
HETATM   23  C9  UNL     1      27.640   5.224  48.515  1.00  0.00     0.019 A 
HETATM   24  C10 UNL     1      26.928   6.392  48.384  1.00  0.00     0.013 A 
HETATM   25 BR1  UNL     1      27.713   7.878  47.520  1.00  0.00    -0.051 Br
HETATM   26  C11 UNL     1      25.641   6.384  48.923  1.00  0.00     0.048 A 
ENDBRANCH  18  20
ENDBRANCH  17  18
ENDBRANCH   3  16
TORSDOF 7
ENDMDL
MODEL 4
REMARK VINA RESULT:      -7.6      1.816      2.250
REMARK  7 active torsions:
REMARK  status: ('A' for Active; 'I' for Inactive)
REMARK    1  A    between atoms: C2_2  and  N2_14 
REMARK    2  A    between atoms: C3_3  and  C4_4 
REMARK    3  A    between atoms: C5_5  and  N1_6 
REMARK    4  A    between atoms: N1_6  and  C6_7 
REMARK    5  A    between atoms: N2_14  and  C12_15 
REMARK    6  A    between atoms: C13_16  and  C14_17 
REMARK    7  A    between atoms: C14_17  and  N3_18 
ROOT
HETATM    1  C1  UNL     1      26.269   6.329  48.745  1.00  0.00     0.068 C 
HETATM    2  C2  UNL     1      27.244   5.219  48.943  1.00  0.00     0.005 C 
HETATM    3  C3  UNL     1      26.789   4.040  49.333  1.00  0.00     0.026 C 
ENDROOT
BRANCH   2   4
HETATM    4  N2  UNL     1      28.627   5.449  48.716  1.00  0.00    -0.370 N 
HETATM    5  H12 UNL     1      29.382   4.813  49.091  1.00  0.00     0.165 HD
BRANCH   4   6
HETATM    6  C12 UNL     1      28.930   6.591  47.954  1.00  0.00     0.085 C 
HETATM    7  C13 UNL     1      29.766   7.607  47.982  1.00  0.00     0.010 C 
BRANCH   7   8
HETATM    8  C14 UNL     1      30.824   7.950  48.959  1.00  0.00     0.154 C 
BRANCH   8   9
HETATM    9  N3  UNL     1      32.069   7.389  48.479  1.00  0.00    -0.345 N 
HETATM   10  C15 UNL     1      33.128   7.956  47.655  1.00  0.00     0.152 C 
HETATM   11  C16 UNL     1      34.418   7.341  48.179  1.00  0.00     0.188 C 
HETATM   12  O1  UNL     1      34.544   5.999  47.843  1.00  0.00    -0.380 OA
HETATM   13  C17 UNL     1      33.448   5.240  48.212  1.00  0.00     0.270 C 
HETATM   14  C18 UNL     1      32.363   6.028  48.857  1.00  0.00     0.243 C 
HETATM   15  O2  UNL     1      31.668   5.482  49.776  1.00  0.00    -0.271 OA
ENDBRANCH   8   9
ENDBRANCH   7   8
ENDBRANCH   4   6
ENDBRANCH   2   4
BRANCH   3  16
HETATM   16  C4  UNL     1      25.365   3.851  49.556  1.00  0.00     0.019 C 
HETATM   17  C5  UNL     1      24.897   3.410  50.709  1.00  0.00     0.088 C 
BRANCH  17  18
HETATM   18  N1  UNL     1      25.475   3.019  51.945  1.00  0.00    -0.366 N 
HETATM   19  H7  UNL     1      25.659   3.992  52.335  1.00  0.00     0.165 HD
BRANCH  18  20
HETATM   20  C6  UNL     1      25.668   1.667  52.354  1.00  0.00     0.033 A 
HETATM   21  C7  UNL     1      26.781   0.866  52.233  1.00  0.00     0.029 A 
HETATM   22  C8  UNL     1      26.751  -0.448  52.702  1.00  0.00     0.004 A 
HETATM   23  C9  UNL     1      25.573  -0.883  53.277  1.00  0.00     0.019 A 
HETATM   24  C10 UNL     1      24.433  -0.131  53.425  1.00  0.00     0.013 A 
HETATM   25 BR1  UNL     1      22.905  -0.892  54.235  1.00  0.00    -0.051 Br
HETATM   26  C11 UNL     1      24.501   1.177  52.944  1.00  0.00     0.048 A 
ENDBRANCH  18  20
ENDBRANCH  17  18
ENDBRANCH   3  16
TORSDOF 7
ENDMDL
MODEL 5
REMARK VINA RESULT:      -7.3      1.654      2.672
REMARK  7 active torsions:
REMARK  status: ('A' for Active; 'I' for Inactive)
REMARK    1  A    between atoms: C2_2  and  N2_14 
REMARK    2  A    between atoms: C3_3  and  C4_4 
REMARK    3  A    between atoms: C5_5  and  N1_6 
REMARK    4  A    between atoms: N1_6  and  C6_7 
REMARK    5  A    between atoms: N2_14  and  C12_15 
REMARK    6  A    between atoms: C13_16  and  C14_17 
REMARK    7  A    between atoms: C14_17  and  N3_18 
ROOT
HETATM    1  C1  UNL     1      25.192   5.844  49.242  1.00  0.00     0.068 C 
HETATM    2  C2  UNL     1      26.586   5.316  49.239  1.00  0.00     0.005 C 
HETATM    3  C3  UNL     1      26.775   4.030  49.482  1.00  0.00     0.026 C 
ENDROOT
BRANCH   2   4
HETATM    4  N2  UNL     1      27.670   6.196  48.980  1.00  0.00    -0.370 N 
HETATM    5  H12 UNL     1      27.710   7.181  49.359  1.00  0.00     0.165 HD
BRANCH   4   6
HETATM    6  C12 UNL     1      28.695   5.668  48.176  1.00  0.00     0.085 C 
HETATM    7  C13 UNL     1      30.005   5.735  48.072  1.00  0.00     0.010 C 
BRANCH   7   8
HETATM    8  C14 UNL     1      30.993   6.492  48.875  1.00  0.00     0.154 C 
BRANCH   8   9
HETATM    9  N3  UNL     1      30.834   7.896  48.563  1.00  0.00    -0.345 N 
HETATM   10  C15 UNL     1      30.005   8.930  49.169  1.00  0.00     0.152 C 
HETATM   11  C16 UNL     1      30.824  10.210  49.068  1.00  0.00     0.188 C 
HETATM   12  O1  UNL     1      30.900  10.694  47.769  1.00  0.00    -0.380 OA
HETATM   13  C17 UNL     1      31.345   9.749  46.861  1.00  0.00     0.270 C 
HETATM   14  C18 UNL     1      31.615   8.416  47.467  1.00  0.00     0.243 C 
HETATM   15  O2  UNL     1      32.567   7.709  47.002  1.00  0.00    -0.271 OA
ENDBRANCH   8   9
ENDBRANCH   7   8
ENDBRANCH   4   6
ENDBRANCH   2   4
BRANCH   3  16
HETATM   16  C4  UNL     1      25.635   3.167  49.744  1.00  0.00     0.019 C 
HETATM   17  C5  UNL     1      25.379   2.704  50.954  1.00  0.00     0.088 C 
BRANCH  17  18
HETATM   18  N1  UNL     1      25.990   2.834  52.229  1.00  0.00    -0.366 N 
HETATM   19  H7  UNL     1      25.454   3.691  52.562  1.00  0.00     0.165 HD
BRANCH  18  20
HETATM   20  C6  UNL     1      27.006   1.968  52.729  1.00  0.00     0.033 A 
HETATM   21  C7  UNL     1      28.176   2.280  53.386  1.00  0.00     0.029 A 
HETATM   22  C8  UNL     1      29.044   1.264  53.787  1.00  0.00     0.004 A 
HETATM   23  C9  UNL     1      28.672  -0.033  53.494  1.00  0.00     0.019 A 
HETATM   24  C10 UNL     1      27.520  -0.404  52.843  1.00  0.00     0.013 A 
HETATM   25 BR1  UNL     1      27.169  -2.233  52.522  1.00  0.00    -0.051 Br
HETATM   26  C11 UNL     1      26.676   0.639  52.457  1.00  0.00     0.048 A 
ENDBRANCH  18  20
ENDBRANCH  17  18
ENDBRANCH   3  16
TORSDOF 7
ENDMDL
MODEL 6
REMARK VINA RESULT:      -7.3      3.967      8.130
REMARK  7 active torsions:
REMARK  status: ('A' for Active; 'I' for Inactive)
REMARK    1  A    between atoms: C2_2  and  N2_14 
REMARK    2  A    between atoms: C3_3  and  C4_4 
REMARK    3  A    between atoms: C5_5  and  N1_6 
REMARK    4  A    between atoms: N1_6  and  C6_7 
REMARK    5  A    between atoms: N2_14  and  C12_15 
REMARK    6  A    between atoms: C13_16  and  C14_17 
REMARK    7  A    between atoms: C14_17  and  N3_18 
ROOT
HETATM    1  C1  UNL     1      24.640   4.469  49.317  1.00  0.00     0.068 C 
HETATM    2  C2  UNL     1      25.866   3.713  49.706  1.00  0.00     0.005 C 
HETATM    3  C3  UNL     1      27.043   4.179  49.325  1.00  0.00     0.026 C 
ENDROOT
BRANCH   2   4
HETATM    4  N2  UNL     1      25.743   2.520  50.465  1.00  0.00    -0.370 N 
HETATM    5  H12 UNL     1      26.355   1.674  50.305  1.00  0.00     0.165 HD
BRANCH   4   6
HETATM    6  C12 UNL     1      24.743   2.534  51.453  1.00  0.00     0.085 C 
HETATM    7  C13 UNL     1      24.647   2.510  52.766  1.00  0.00     0.010 C 
BRANCH   7   8
HETATM    8  C14 UNL     1      25.702   2.452  53.803  1.00  0.00     0.154 C 
BRANCH   8   9
HETATM    9  N3  UNL     1      26.291   1.130  53.762  1.00  0.00    -0.345 N 
HETATM   10  C15 UNL     1      25.760  -0.174  54.137  1.00  0.00     0.152 C 
HETATM   11  C16 UNL     1      26.373  -1.156  53.148  1.00  0.00     0.188 C 
HETATM   12  O1  UNL     1      27.726  -1.372  53.378  1.00  0.00    -0.380 OA
HETATM   13  C17 UNL     1      28.462  -0.202  53.434  1.00  0.00     0.270 C 
HETATM   14  C18 UNL     1      27.643   1.031  53.267  1.00  0.00     0.243 C 
HETATM   15  O2  UNL     1      28.152   2.033  52.667  1.00  0.00    -0.271 OA
ENDBRANCH   8   9
ENDBRANCH   7   8
ENDBRANCH   4   6
ENDBRANCH   2   4
BRANCH   3  16
HETATM   16  C4  UNL     1      27.119   5.403  48.545  1.00  0.00     0.019 C 
HETATM   17  C5  UNL     1      28.248   6.077  48.421  1.00  0.00     0.088 C 
BRANCH  17  18
HETATM   18  N1  UNL     1      29.574   5.913  48.901  1.00  0.00    -0.366 N 
HETATM   19  H7  UNL     1      29.443   4.969  49.375  1.00  0.00     0.165 HD
BRANCH  18  20
HETATM   20  C6  UNL     1      30.627   6.853  48.702  1.00  0.00     0.033 A 
HETATM   21  C7  UNL     1      30.560   8.218  48.531  1.00  0.00     0.029 A 
HETATM   22  C8  UNL     1      31.730   8.956  48.343  1.00  0.00     0.004 A 
HETATM   23  C9  UNL     1      32.920   8.257  48.337  1.00  0.00     0.019 A 
HETATM   24  C10 UNL     1      33.048   6.900  48.503  1.00  0.00     0.013 A 
HETATM   25 BR1  UNL     1      34.763   6.106  48.464  1.00  0.00    -0.051 Br
HETATM   26  C11 UNL     1      31.858   6.194  48.689  1.00  0.00     0.048 A 
ENDBRANCH  18  20
ENDBRANCH  17  18
ENDBRANCH   3  16
TORSDOF 7
ENDMDL
MODEL 7
REMARK VINA RESULT:      -7.2      2.047      2.757
REMARK  7 active torsions:
REMARK  status: ('A' for Active; 'I' for Inactive)
REMARK    1  A    between atoms: C2_2  and  N2_14 
REMARK    2  A    between atoms: C3_3  and  C4_4 
REMARK    3  A    between atoms: C5_5  and  N1_6 
REMARK    4  A    between atoms: N1_6  and  C6_7 
REMARK    5  A    between atoms: N2_14  and  C12_15 
REMARK    6  A    between atoms: C13_16  and  C14_17 
REMARK    7  A    between atoms: C14_17  and  N3_18 
ROOT
HETATM    1  C1  UNL     1      26.941   7.827  48.732  1.00  0.00     0.068 C 
HETATM    2  C2  UNL     1      27.747   6.608  48.432  1.00  0.00     0.005 C 
HETATM    3  C3  UNL     1      27.190   5.422  48.613  1.00  0.00     0.026 C 
ENDROOT
BRANCH   2   4
HETATM    4  N2  UNL     1      29.081   6.745  47.968  1.00  0.00    -0.370 N 
HETATM    5  H12 UNL     1      29.453   7.642  47.551  1.00  0.00     0.165 HD
BRANCH   4   6
HETATM    6  C12 UNL     1      29.884   5.598  48.095  1.00  0.00     0.085 C 
HETATM    7  C13 UNL     1      31.064   5.167  47.702  1.00  0.00     0.010 C 
BRANCH   7   8
HETATM    8  C14 UNL     1      32.101   5.829  46.878  1.00  0.00     0.154 C 
BRANCH   8   9
HETATM    9  N3  UNL     1      33.301   5.023  46.944  1.00  0.00    -0.345 N 
HETATM   10  C15 UNL     1      34.209   4.734  48.047  1.00  0.00     0.152 C 
HETATM   11  C16 UNL     1      34.677   3.304  47.816  1.00  0.00     0.188 C 
HETATM   12  O1  UNL     1      35.556   3.196  46.746  1.00  0.00    -0.380 OA
HETATM   13  C17 UNL     1      35.063   3.749  45.578  1.00  0.00     0.270 C 
HETATM   14  C18 UNL     1      33.716   4.366  45.728  1.00  0.00     0.243 C 
HETATM   15  O2  UNL     1      32.901   4.312  44.751  1.00  0.00    -0.271 OA
ENDBRANCH   8   9
ENDBRANCH   7   8
ENDBRANCH   4   6
ENDBRANCH   2   4
BRANCH   3  16
HETATM   16  C4  UNL     1      25.821   5.331  49.093  1.00  0.00     0.019 C 
HETATM   17  C5  UNL     1      25.484   4.517  50.077  1.00  0.00     0.088 C 
BRANCH  17  18
HETATM   18  N1  UNL     1      26.180   3.591  50.897  1.00  0.00    -0.366 N 
HETATM   19  H7  UNL     1      27.169   3.917  50.680  1.00  0.00     0.165 HD
BRANCH  18  20
HETATM   20  C6  UNL     1      25.553   2.592  51.698  1.00  0.00     0.033 A 
HETATM   21  C7  UNL     1      24.347   2.632  52.362  1.00  0.00     0.029 A 
HETATM   22  C8  UNL     1      23.921   1.530  53.104  1.00  0.00     0.004 A 
HETATM   23  C9  UNL     1      24.757   0.432  53.134  1.00  0.00     0.019 A 
HETATM   24  C10 UNL     1      25.968   0.334  52.494  1.00  0.00     0.013 A 
HETATM   25 BR1  UNL     1      26.987  -1.250  52.647  1.00  0.00    -0.051 Br
HETATM   26  C11 UNL     1      26.361   1.455  51.761  1.00  0.00     0.048 A 
ENDBRANCH  18  20
ENDBRANCH  17  18
ENDBRANCH   3  16
TORSDOF 7
ENDMDL
MODEL 8
REMARK VINA RESULT:      -7.2      4.813      7.929
REMARK  7 active torsions:
REMARK  status: ('A' for Active; 'I' for Inactive)
REMARK    1  A    between atoms: C2_2  and  N2_14 
REMARK    2  A    between atoms: C3_3  and  C4_4 
REMARK    3  A    between atoms: C5_5  and  N1_6 
REMARK    4  A    between atoms: N1_6  and  C6_7 
REMARK    5  A    between atoms: N2_14  and  C12_15 
REMARK    6  A    between atoms: C13_16  and  C14_17 
REMARK    7  A    between atoms: C14_17  and  N3_18 
ROOT
HETATM    1  C1  UNL     1      22.607   4.875  48.911  1.00  0.00     0.068 C 
HETATM    2  C2  UNL     1      22.815   4.556  50.352  1.00  0.00     0.005 C 
HETATM    3  C3  UNL     1      22.792   5.546  51.229  1.00  0.00     0.026 C 
ENDROOT
BRANCH   2   4
HETATM    4  N2  UNL     1      23.034   3.211  50.749  1.00  0.00    -0.370 N 
HETATM    5  H12 UNL     1      22.954   2.397  50.081  1.00  0.00     0.165 HD
BRANCH   4   6
HETATM    6  C12 UNL     1      23.364   3.028  52.104  1.00  0.00     0.085 C 
HETATM    7  C13 UNL     1      24.129   2.251  52.840  1.00  0.00     0.010 C 
BRANCH   7   8
HETATM    8  C14 UNL     1      25.032   1.145  52.447  1.00  0.00     0.154 C 
BRANCH   8   9
HETATM    9  N3  UNL     1      26.204   1.207  53.295  1.00  0.00    -0.345 N 
HETATM   10  C15 UNL     1      26.491   0.599  54.588  1.00  0.00     0.152 C 
HETATM   11  C16 UNL     1      27.980   0.281  54.558  1.00  0.00     0.188 C 
HETATM   12  O1  UNL     1      28.771   1.419  54.646  1.00  0.00    -0.380 OA
HETATM   13  C17 UNL     1      28.452   2.378  53.702  1.00  0.00     0.270 C 
HETATM   14  C18 UNL     1      27.314   1.997  52.821  1.00  0.00     0.243 C 
HETATM   15  O2  UNL     1      27.319   2.381  51.606  1.00  0.00    -0.271 OA
ENDBRANCH   8   9
ENDBRANCH   7   8
ENDBRANCH   4   6
ENDBRANCH   2   4
BRANCH   3  16
HETATM   16  C4  UNL     1      22.566   6.909  50.776  1.00  0.00     0.019 C 
HETATM   17  C5  UNL     1      23.550   7.786  50.700  1.00  0.00     0.088 C 
BRANCH  17  18
HETATM   18  N1  UNL     1      24.943   7.760  50.975  1.00  0.00    -0.366 N 
HETATM   19  H7  UNL     1      24.900   8.098  51.983  1.00  0.00     0.165 HD
BRANCH  18  20
HETATM   20  C6  UNL     1      25.943   7.367  50.039  1.00  0.00     0.033 A 
HETATM   21  C7  UNL     1      26.093   6.173  49.367  1.00  0.00     0.029 A 
HETATM   22  C8  UNL     1      27.163   5.996  48.489  1.00  0.00     0.004 A 
HETATM   23  C9  UNL     1      28.036   7.054  48.340  1.00  0.00     0.019 A 
HETATM   24  C10 UNL     1      27.938   8.265  48.981  1.00  0.00     0.013 A 
HETATM   25 BR1  UNL     1      29.229   9.607  48.659  1.00  0.00    -0.051 Br
HETATM   26  C11 UNL     1      26.855   8.407  49.851  1.00  0.00     0.048 A 
ENDBRANCH  18  20
ENDBRANCH  17  18
ENDBRANCH   3  16
TORSDOF 7
ENDMDL
MODEL 9
REMARK VINA RESULT:      -7.2      3.795      7.886
REMARK  7 active torsions:
REMARK  status: ('A' for Active; 'I' for Inactive)
REMARK    1  A    between atoms: C2_2  and  N2_14 
REMARK    2  A    between atoms: C3_3  and  C4_4 
REMARK    3  A    between atoms: C5_5  and  N1_6 
REMARK    4  A    between atoms: N1_6  and  C6_7 
REMARK    5  A    between atoms: N2_14  and  C12_15 
REMARK    6  A    between atoms: C13_16  and  C14_17 
REMARK    7  A    between atoms: C14_17  and  N3_18 
ROOT
HETATM    1  C1  UNL     1      25.728   6.746  48.385  1.00  0.00     0.068 C 
HETATM    2  C2  UNL     1      26.634   5.751  49.026  1.00  0.00     0.005 C 
HETATM    3  C3  UNL     1      27.904   5.725  48.659  1.00  0.00     0.026 C 
ENDROOT
BRANCH   2   4
HETATM    4  N2  UNL     1      26.119   4.861  50.005  1.00  0.00    -0.370 N 
HETATM    5  H12 UNL     1      25.359   5.135  50.684  1.00  0.00     0.165 HD
BRANCH   4   6
HETATM    6  C12 UNL     1      26.695   3.578  50.015  1.00  0.00     0.085 C 
HETATM    7  C13 UNL     1      26.540   2.428  50.634  1.00  0.00     0.010 C 
BRANCH   7   8
HETATM    8  C14 UNL     1      25.571   2.026  51.680  1.00  0.00     0.154 C 
BRANCH   8   9
HETATM    9  N3  UNL     1      26.184   0.982  52.474  1.00  0.00    -0.345 N 
HETATM   10  C15 UNL     1      26.643  -0.355  52.120  1.00  0.00     0.152 C 
HETATM   11  C16 UNL     1      27.867  -0.602  52.991  1.00  0.00     0.188 C 
HETATM   12  O1  UNL     1      27.540  -0.806  54.326  1.00  0.00    -0.380 OA
HETATM   13  C17 UNL     1      26.752   0.202  54.853  1.00  0.00     0.270 C 
HETATM   14  C18 UNL     1      26.401   1.265  53.872  1.00  0.00     0.243 C 
HETATM   15  O2  UNL     1      26.289   2.467  54.279  1.00  0.00    -0.271 OA
ENDBRANCH   8   9
ENDBRANCH   7   8
ENDBRANCH   4   6
ENDBRANCH   2   4
BRANCH   3  16
HETATM   16  C4  UNL     1      28.387   6.654  47.651  1.00  0.00     0.019 C 
HETATM   17  C5  UNL     1      29.677   6.847  47.447  1.00  0.00     0.088 C 
BRANCH  17  18
HETATM   18  N1  UNL     1      30.872   6.332  48.013  1.00  0.00    -0.366 N 
HETATM   19  H7  UNL     1      30.704   6.643  49.017  1.00  0.00     0.165 HD
BRANCH  18  20
HETATM   20  C6  UNL     1      31.877   5.635  47.281  1.00  0.00     0.033 A 
HETATM   21  C7  UNL     1      32.929   6.135  46.545  1.00  0.00     0.029 A 
HETATM   22  C8  UNL     1      33.802   5.263  45.893  1.00  0.00     0.004 A 
HETATM   23  C9  UNL     1      33.555   3.911  46.026  1.00  0.00     0.019 A 
HETATM   24  C10 UNL     1      32.525   3.355  46.745  1.00  0.00     0.013 A 
HETATM   25 BR1  UNL     1      32.335   1.476  46.817  1.00  0.00    -0.051 Br
HETATM   26  C11 UNL     1      31.672   4.258  47.383  1.00  0.00     0.048 A 
ENDBRANCH  18  20
ENDBRANCH  17  18
ENDBRANCH   3  16
TORSDOF 7
ENDMDL
