MODEL 1
REMARK VINA RESULT:      -6.8      0.000      0.000
REMARK  6 active torsions:
REMARK  status: ('A' for Active; 'I' for Inactive)
REMARK    1  A    between atoms: C2_2  and  C3_3 
REMARK    2  A    between atoms: C3_3  and  C4_4 
REMARK    3  A    between atoms: C4_4  and  C5_6 
REMARK    4  A    between atoms: C5_6  and  C6_7 
REMARK    5  A    between atoms: C7_8  and  C8_9 
REMARK    6  A    between atoms: C15_19  and  O3_20 
ROOT
HETATM    1  C3  UNL     1      23.557   0.694  53.127  1.00  0.00    -0.007 C 
HETATM    2  C9  UNL     1      24.775   0.745  53.545  1.00  0.00    -0.038 C 
HETATM    3  C10 UNL     1      25.258  -0.377  54.490  1.00  0.00     0.059 C 
HETATM    4  C11 UNL     1      26.682  -0.296  54.467  1.00  0.00     0.120 C 
HETATM    5  C12 UNL     1      26.754  -0.401  52.965  1.00  0.00     0.066 C 
HETATM    6  N1  UNL     1      26.821  -0.465  51.771  1.00  0.00    -0.197 NA
HETATM    7  C13 UNL     1      27.983   0.252  54.600  1.00  0.00     0.187 C 
HETATM    8  O2  UNL     1      28.063   1.386  53.707  1.00  0.00    -0.387 OA
HETATM    9  C14 UNL     1      26.929   2.156  53.691  1.00  0.00     0.203 C 
HETATM   10  C15 UNL     1      25.644   1.901  53.088  1.00  0.00     0.171 C 
ENDROOT
BRANCH   1  11
HETATM   11  C2  UNL     1      22.638  -0.398  53.533  1.00  0.00     0.038 C 
HETATM   12  C1  UNL     1      21.411   0.127  54.245  1.00  0.00     0.010 C 
ENDBRANCH   1  11
BRANCH   1  13
HETATM   13  C4  UNL     1      23.002   1.685  52.245  1.00  0.00     0.159 C 
HETATM   14  O1  UNL     1      22.414   2.748  52.048  1.00  0.00    -0.292 OA
BRANCH  13  15
HETATM   15  C5  UNL     1      22.958   1.731  50.787  1.00  0.00     0.110 C 
BRANCH  15  16
HETATM   16  C6  UNL     1      21.766   0.947  50.327  1.00  0.00    -0.021 C 
HETATM   17  C7  UNL     1      21.246   1.136  49.123  1.00  0.00     0.000 C 
BRANCH  17  18
HETATM   18  C8  UNL     1      21.565   2.015  47.984  1.00  0.00     0.249 C 
HETATM   19  F1  UNL     1      22.758   1.633  47.354  1.00  0.00    -0.251 F 
ENDBRANCH  17  18
ENDBRANCH  15  16
ENDBRANCH  13  15
ENDBRANCH   1  13
BRANCH  10  20
HETATM   20  O3  UNL     1      24.849   3.020  53.479  1.00  0.00    -0.389 OA
HETATM   21  H20 UNL     1      23.924   2.929  53.202  1.00  0.00     0.210 HD
ENDBRANCH  10  20
TORSDOF 6
ENDMDL
MODEL 2
REMARK VINA RESULT:      -6.6      1.878      2.289
REMARK  6 active torsions:
REMARK  status: ('A' for Active; 'I' for Inactive)
REMARK    1  A    between atoms: C2_2  and  C3_3 
REMARK    2  A    between atoms: C3_3  and  C4_4 
REMARK    3  A    between atoms: C4_4  and  C5_6 
REMARK    4  A    between atoms: C5_6  and  C6_7 
REMARK    5  A    between atoms: C7_8  and  C8_9 
REMARK    6  A    between atoms: C15_19  and  O3_20 
ROOT
HETATM    1  C3  UNL     1      23.376   1.109  52.466  1.00  0.00    -0.007 C 
HETATM    2  C9  UNL     1      24.458   1.003  53.157  1.00  0.00    -0.038 C 
HETATM    3  C10 UNL     1      24.667  -0.291  53.974  1.00  0.00     0.059 C 
HETATM    4  C11 UNL     1      26.056  -0.307  54.297  1.00  0.00     0.120 C 
HETATM    5  C12 UNL     1      26.485  -0.168  52.858  1.00  0.00     0.066 C 
HETATM    6  N1  UNL     1      26.835  -0.039  51.721  1.00  0.00    -0.197 NA
HETATM    7  C13 UNL     1      27.302   0.118  54.824  1.00  0.00     0.187 C 
HETATM    8  O2  UNL     1      27.628   1.374  54.188  1.00  0.00    -0.387 OA
HETATM    9  C14 UNL     1      26.554   2.215  54.047  1.00  0.00     0.203 C 
HETATM   10  C15 UNL     1      25.446   2.154  53.126  1.00  0.00     0.171 C 
ENDROOT
BRANCH   1  11
HETATM   11  C2  UNL     1      22.355   0.032  52.447  1.00  0.00     0.038 C 
HETATM   12  C1  UNL     1      21.050   0.477  53.070  1.00  0.00     0.010 C 
ENDBRANCH   1  11
BRANCH   1  13
HETATM   13  C4  UNL     1      23.079   2.268  51.669  1.00  0.00     0.159 C 
HETATM   14  O1  UNL     1      22.580   3.385  51.530  1.00  0.00    -0.292 OA
BRANCH  13  15
HETATM   15  C5  UNL     1      23.401   2.563  50.276  1.00  0.00     0.110 C 
BRANCH  15  16
HETATM   16  C6  UNL     1      24.002   3.935  50.213  1.00  0.00    -0.021 C 
HETATM   17  C7  UNL     1      25.280   4.108  49.904  1.00  0.00     0.000 C 
BRANCH  17  18
HETATM   18  C8  UNL     1      26.394   3.206  49.566  1.00  0.00     0.249 C 
HETATM   19  F1  UNL     1      27.384   3.860  48.821  1.00  0.00    -0.251 F 
ENDBRANCH  17  18
ENDBRANCH  15  16
ENDBRANCH  13  15
ENDBRANCH   1  13
BRANCH  10  20
HETATM   20  O3  UNL     1      24.613   3.247  53.515  1.00  0.00    -0.389 OA
HETATM   21  H20 UNL     1      25.126   4.037  53.744  1.00  0.00     0.210 HD
ENDBRANCH  10  20
TORSDOF 6
ENDMDL
MODEL 3
REMARK VINA RESULT:      -6.5      2.880      5.716
REMARK  6 active torsions:
REMARK  status: ('A' for Active; 'I' for Inactive)
REMARK    1  A    between atoms: C2_2  and  C3_3 
REMARK    2  A    between atoms: C3_3  and  C4_4 
REMARK    3  A    between atoms: C4_4  and  C5_6 
REMARK    4  A    between atoms: C5_6  and  C6_7 
REMARK    5  A    between atoms: C7_8  and  C8_9 
REMARK    6  A    between atoms: C15_19  and  O3_20 
ROOT
HETATM    1  C3  UNL     1      23.104   0.781  52.542  1.00  0.00    -0.007 C 
HETATM    2  C9  UNL     1      22.287   1.178  51.628  1.00  0.00    -0.038 C 
HETATM    3  C10 UNL     1      21.196   0.190  51.161  1.00  0.00     0.059 C 
HETATM    4  C11 UNL     1      20.236   0.993  50.477  1.00  0.00     0.120 C 
HETATM    5  C12 UNL     1      20.050   1.928  51.645  1.00  0.00     0.066 C 
HETATM    6  N1  UNL     1      19.911   2.687  52.560  1.00  0.00    -0.197 NA
HETATM    7  C13 UNL     1      19.696   1.897  49.528  1.00  0.00     0.187 C 
HETATM    8  O2  UNL     1      20.396   3.152  49.686  1.00  0.00    -0.387 OA
HETATM    9  C14 UNL     1      21.743   3.008  49.895  1.00  0.00     0.203 C 
HETATM   10  C15 UNL     1      22.458   2.578  51.072  1.00  0.00     0.171 C 
ENDROOT
BRANCH   1  11
HETATM   11  C2  UNL     1      23.013  -0.577  53.133  1.00  0.00     0.038 C 
HETATM   12  C1  UNL     1      22.373  -0.558  54.504  1.00  0.00     0.010 C 
ENDBRANCH   1  11
BRANCH   1  13
HETATM   13  C4  UNL     1      24.159   1.615  53.051  1.00  0.00     0.159 C 
HETATM   14  O1  UNL     1      24.597   2.712  53.398  1.00  0.00    -0.292 OA
BRANCH  13  15
HETATM   15  C5  UNL     1      25.520   1.275  53.452  1.00  0.00     0.110 C 
BRANCH  15  16
HETATM   16  C6  UNL     1      26.305   0.942  52.219  1.00  0.00    -0.021 C 
HETATM   17  C7  UNL     1      26.744  -0.289  51.999  1.00  0.00     0.000 C 
BRANCH  17  18
HETATM   18  C8  UNL     1      26.656  -1.565  52.730  1.00  0.00     0.249 C 
HETATM   19  F1  UNL     1      26.666  -2.664  51.860  1.00  0.00    -0.251 F 
ENDBRANCH  17  18
ENDBRANCH  15  16
ENDBRANCH  13  15
ENDBRANCH   1  13
BRANCH  10  20
HETATM   20  O3  UNL     1      23.823   2.550  50.657  1.00  0.00    -0.389 OA
HETATM   21  H20 UNL     1      24.372   1.997  51.235  1.00  0.00     0.210 HD
ENDBRANCH  10  20
TORSDOF 6
ENDMDL
MODEL 4
REMARK VINA RESULT:      -6.5      3.262      5.661
REMARK  6 active torsions:
REMARK  status: ('A' for Active; 'I' for Inactive)
REMARK    1  A    between atoms: C2_2  and  C3_3 
REMARK    2  A    between atoms: C3_3  and  C4_4 
REMARK    3  A    between atoms: C4_4  and  C5_6 
REMARK    4  A    between atoms: C5_6  and  C6_7 
REMARK    5  A    between atoms: C7_8  and  C8_9 
REMARK    6  A    between atoms: C15_19  and  O3_20 
ROOT
HETATM    1  C3  UNL     1      24.504   0.973  52.690  1.00  0.00    -0.007 C 
HETATM    2  C9  UNL     1      24.472   1.801  51.703  1.00  0.00    -0.038 C 
HETATM    3  C10 UNL     1      23.298   1.687  50.706  1.00  0.00     0.059 C 
HETATM    4  C11 UNL     1      23.297   2.919  49.990  1.00  0.00     0.120 C 
HETATM    5  C12 UNL     1      23.229   3.754  51.244  1.00  0.00     0.066 C 
HETATM    6  N1  UNL     1      23.194   4.424  52.234  1.00  0.00    -0.197 NA
HETATM    7  C13 UNL     1      23.764   3.983  49.177  1.00  0.00     0.187 C 
HETATM    8  O2  UNL     1      24.915   4.554  49.840  1.00  0.00    -0.387 OA
HETATM    9  C14 UNL     1      25.750   3.619  50.395  1.00  0.00     0.203 C 
HETATM   10  C15 UNL     1      25.587   2.822  51.586  1.00  0.00     0.171 C 
ENDROOT
BRANCH   1  11
HETATM   11  C2  UNL     1      23.457  -0.062  52.873  1.00  0.00     0.038 C 
HETATM   12  C1  UNL     1      22.385   0.380  53.845  1.00  0.00     0.010 C 
ENDBRANCH   1  11
BRANCH   1  13
HETATM   13  C4  UNL     1      25.549   0.988  53.677  1.00  0.00     0.159 C 
HETATM   14  O1  UNL     1      26.321   1.588  54.425  1.00  0.00    -0.292 OA
BRANCH  13  15
HETATM   15  C5  UNL     1      26.263  -0.116  54.311  1.00  0.00     0.110 C 
BRANCH  15  16
HETATM   16  C6  UNL     1      26.895  -0.947  53.236  1.00  0.00    -0.021 C 
HETATM   17  C7  UNL     1      28.212  -1.002  53.098  1.00  0.00     0.000 C 
BRANCH  17  18
HETATM   18  C8  UNL     1      29.352  -0.392  53.805  1.00  0.00     0.249 C 
HETATM   19  F1  UNL     1      30.389  -1.313  54.009  1.00  0.00    -0.251 F 
ENDBRANCH  17  18
ENDBRANCH  15  16
ENDBRANCH  13  15
ENDBRANCH   1  13
BRANCH  10  20
HETATM   20  O3  UNL     1      26.740   1.980  51.599  1.00  0.00    -0.389 OA
HETATM   21  H20 UNL     1      27.260   2.082  52.411  1.00  0.00     0.210 HD
ENDBRANCH  10  20
TORSDOF 6
ENDMDL
MODEL 5
REMARK VINA RESULT:      -6.4      2.019      2.276
REMARK  6 active torsions:
REMARK  status: ('A' for Active; 'I' for Inactive)
REMARK    1  A    between atoms: C2_2  and  C3_3 
REMARK    2  A    between atoms: C3_3  and  C4_4 
REMARK    3  A    between atoms: C4_4  and  C5_6 
REMARK    4  A    between atoms: C5_6  and  C6_7 
REMARK    5  A    between atoms: C7_8  and  C8_9 
REMARK    6  A    between atoms: C15_19  and  O3_20 
ROOT
HETATM    1  C3  UNL     1      23.331   0.171  52.986  1.00  0.00    -0.007 C 
HETATM    2  C9  UNL     1      24.504   0.384  53.475  1.00  0.00    -0.038 C 
HETATM    3  C10 UNL     1      25.032  -0.607  54.535  1.00  0.00     0.059 C 
HETATM    4  C11 UNL     1      26.437  -0.373  54.596  1.00  0.00     0.120 C 
HETATM    5  C12 UNL     1      26.628  -0.578  53.114  1.00  0.00     0.066 C 
HETATM    6  N1  UNL     1      26.786  -0.720  51.937  1.00  0.00    -0.197 NA
HETATM    7  C13 UNL     1      27.661   0.321  54.767  1.00  0.00     0.187 C 
HETATM    8  O2  UNL     1      27.687   1.389  53.793  1.00  0.00    -0.387 OA
HETATM    9  C14 UNL     1      26.483   2.028  53.645  1.00  0.00     0.203 C 
HETATM   10  C15 UNL     1      25.279   1.592  52.983  1.00  0.00     0.171 C 
ENDROOT
BRANCH   1  11
HETATM   11  C2  UNL     1      22.504  -0.982  53.419  1.00  0.00     0.038 C 
HETATM   12  C1  UNL     1      21.585  -0.625  54.566  1.00  0.00     0.010 C 
ENDBRANCH   1  11
BRANCH   1  13
HETATM   13  C4  UNL     1      22.740   1.029  51.995  1.00  0.00     0.159 C 
HETATM   14  O1  UNL     1      22.795   1.659  50.939  1.00  0.00    -0.292 OA
BRANCH  13  15
HETATM   15  C5  UNL     1      21.407   1.620  51.934  1.00  0.00     0.110 C 
BRANCH  15  16
HETATM   16  C6  UNL     1      20.638   0.937  50.844  1.00  0.00    -0.021 C 
HETATM   17  C7  UNL     1      19.496   0.313  51.099  1.00  0.00     0.000 C 
BRANCH  17  18
HETATM   18  C8  UNL     1      18.689   0.089  52.311  1.00  0.00     0.249 C 
HETATM   19  F1  UNL     1      18.506  -1.278  52.566  1.00  0.00    -0.251 F 
ENDBRANCH  17  18
ENDBRANCH  15  16
ENDBRANCH  13  15
ENDBRANCH   1  13
BRANCH  10  20
HETATM   20  O3  UNL     1      24.346   2.643  53.234  1.00  0.00    -0.389 OA
HETATM   21  H20 UNL     1      23.476   2.307  53.502  1.00  0.00     0.210 HD
ENDBRANCH  10  20
TORSDOF 6
ENDMDL
MODEL 6
REMARK VINA RESULT:      -6.4      2.849      3.826
REMARK  6 active torsions:
REMARK  status: ('A' for Active; 'I' for Inactive)
REMARK    1  A    between atoms: C2_2  and  C3_3 
REMARK    2  A    between atoms: C3_3  and  C4_4 
REMARK    3  A    between atoms: C4_4  and  C5_6 
REMARK    4  A    between atoms: C5_6  and  C6_7 
REMARK    5  A    between atoms: C7_8  and  C8_9 
REMARK    6  A    between atoms: C15_19  and  O3_20 
ROOT
HETATM    1  C3  UNL     1      24.629   2.505  51.477  1.00  0.00    -0.007 C 
HETATM    2  C9  UNL     1      25.222   1.518  52.054  1.00  0.00    -0.038 C 
HETATM    3  C10 UNL     1      26.506   0.967  51.397  1.00  0.00     0.059 C 
HETATM    4  C11 UNL     1      27.140   0.191  52.411  1.00  0.00     0.120 C 
HETATM    5  C12 UNL     1      27.148   1.326  53.403  1.00  0.00     0.066 C 
HETATM    6  N1  UNL     1      27.142   2.217  54.203  1.00  0.00    -0.197 NA
HETATM    7  C13 UNL     1      27.322  -0.814  53.395  1.00  0.00     0.187 C 
HETATM    8  O2  UNL     1      26.311  -0.608  54.408  1.00  0.00    -0.387 OA
HETATM    9  C14 UNL     1      25.081  -0.278  53.899  1.00  0.00     0.203 C 
HETATM   10  C15 UNL     1      24.617   0.963  53.329  1.00  0.00     0.171 C 
ENDROOT
BRANCH   1  11
HETATM   11  C2  UNL     1      25.150   3.102  50.222  1.00  0.00     0.038 C 
HETATM   12  C1  UNL     1      24.068   3.262  49.177  1.00  0.00     0.010 C 
ENDBRANCH   1  11
BRANCH   1  13
HETATM   13  C4  UNL     1      23.427   3.097  51.999  1.00  0.00     0.159 C 
HETATM   14  O1  UNL     1      22.220   3.063  52.235  1.00  0.00    -0.292 OA
BRANCH  13  15
HETATM   15  C5  UNL     1      23.214   4.392  52.638  1.00  0.00     0.110 C 
BRANCH  15  16
HETATM   16  C6  UNL     1      22.418   5.252  51.704  1.00  0.00    -0.021 C 
HETATM   17  C7  UNL     1      22.958   6.317  51.127  1.00  0.00     0.000 C 
BRANCH  17  18
HETATM   18  C8  UNL     1      24.286   6.952  51.165  1.00  0.00     0.249 C 
HETATM   19  F1  UNL     1      25.218   6.251  50.387  1.00  0.00    -0.251 F 
ENDBRANCH  17  18
ENDBRANCH  15  16
ENDBRANCH  13  15
ENDBRANCH   1  13
BRANCH  10  20
HETATM   20  O3  UNL     1      23.286   0.672  52.903  1.00  0.00    -0.389 OA
HETATM   21  H20 UNL     1      23.244   0.429  51.965  1.00  0.00     0.210 HD
ENDBRANCH  10  20
TORSDOF 6
ENDMDL
MODEL 7
REMARK VINA RESULT:      -6.2      3.295      4.037
REMARK  6 active torsions:
REMARK  status: ('A' for Active; 'I' for Inactive)
REMARK    1  A    between atoms: C2_2  and  C3_3 
REMARK    2  A    between atoms: C3_3  and  C4_4 
REMARK    3  A    between atoms: C4_4  and  C5_6 
REMARK    4  A    between atoms: C5_6  and  C6_7 
REMARK    5  A    between atoms: C7_8  and  C8_9 
REMARK    6  A    between atoms: C15_19  and  O3_20 
ROOT
HETATM    1  C3  UNL     1      25.489   2.381  51.552  1.00  0.00    -0.007 C 
HETATM    2  C9  UNL     1      26.134   1.819  52.515  1.00  0.00    -0.038 C 
HETATM    3  C10 UNL     1      25.321   1.324  53.732  1.00  0.00     0.059 C 
HETATM    4  C11 UNL     1      26.192   0.428  54.420  1.00  0.00     0.120 C 
HETATM    5  C12 UNL     1      26.436  -0.419  53.198  1.00  0.00     0.066 C 
HETATM    6  N1  UNL     1      26.651  -1.087  52.228  1.00  0.00    -0.197 NA
HETATM    7  C13 UNL     1      27.338  -0.043  55.109  1.00  0.00     0.187 C 
HETATM    8  O2  UNL     1      28.466   0.116  54.220  1.00  0.00    -0.387 OA
HETATM    9  C14 UNL     1      28.451   1.293  53.516  1.00  0.00     0.203 C 
HETATM   10  C15 UNL     1      27.640   1.690  52.392  1.00  0.00     0.171 C 
ENDROOT
BRANCH   1  11
HETATM   11  C2  UNL     1      24.016   2.555  51.596  1.00  0.00     0.038 C 
HETATM   12  C1  UNL     1      23.617   3.856  52.255  1.00  0.00     0.010 C 
ENDBRANCH   1  11
BRANCH   1  13
HETATM   13  C4  UNL     1      26.143   2.880  50.372  1.00  0.00     0.159 C 
HETATM   14  O1  UNL     1      26.966   2.769  49.464  1.00  0.00    -0.292 OA
BRANCH  13  15
HETATM   15  C5  UNL     1      25.944   4.127  49.640  1.00  0.00     0.110 C 
BRANCH  15  16
HETATM   16  C6  UNL     1      27.234   4.489  48.969  1.00  0.00    -0.021 C 
HETATM   17  C7  UNL     1      27.457   5.721  48.533  1.00  0.00     0.000 C 
BRANCH  17  18
HETATM   18  C8  UNL     1      26.681   6.974  48.533  1.00  0.00     0.249 C 
HETATM   19  F1  UNL     1      25.514   6.861  47.764  1.00  0.00    -0.251 F 
ENDBRANCH  17  18
ENDBRANCH  15  16
ENDBRANCH  13  15
ENDBRANCH   1  13
BRANCH  10  20
HETATM   20  O3  UNL     1      28.018   3.045  52.153  1.00  0.00    -0.389 OA
HETATM   21  H20 UNL     1      27.765   3.347  51.267  1.00  0.00     0.210 HD
ENDBRANCH  10  20
TORSDOF 6
ENDMDL
MODEL 8
REMARK VINA RESULT:      -6.2      2.067      2.593
REMARK  6 active torsions:
REMARK  status: ('A' for Active; 'I' for Inactive)
REMARK    1  A    between atoms: C2_2  and  C3_3 
REMARK    2  A    between atoms: C3_3  and  C4_4 
REMARK    3  A    between atoms: C4_4  and  C5_6 
REMARK    4  A    between atoms: C5_6  and  C6_7 
REMARK    5  A    between atoms: C7_8  and  C8_9 
REMARK    6  A    between atoms: C15_19  and  O3_20 
ROOT
HETATM    1  C3  UNL     1      25.289   2.598  52.285  1.00  0.00    -0.007 C 
HETATM    2  C9  UNL     1      26.166   1.952  52.973  1.00  0.00    -0.038 C 
HETATM    3  C10 UNL     1      25.735   1.400  54.349  1.00  0.00     0.059 C 
HETATM    4  C11 UNL     1      26.727   0.434  54.689  1.00  0.00     0.120 C 
HETATM    5  C12 UNL     1      26.550  -0.335  53.405  1.00  0.00     0.066 C 
HETATM    6  N1  UNL     1      26.430  -0.941  52.379  1.00  0.00    -0.197 NA
HETATM    7  C13 UNL     1      28.004  -0.117  54.969  1.00  0.00     0.187 C 
HETATM    8  O2  UNL     1      28.818   0.068  53.789  1.00  0.00    -0.387 OA
HETATM    9  C14 UNL     1      28.649   1.291  53.191  1.00  0.00     0.203 C 
HETATM   10  C15 UNL     1      27.557   1.787  52.391  1.00  0.00     0.171 C 
ENDROOT
BRANCH   1  11
HETATM   11  C2  UNL     1      23.909   2.812  52.785  1.00  0.00     0.038 C 
HETATM   12  C1  UNL     1      23.530   4.276  52.799  1.00  0.00     0.010 C 
ENDBRANCH   1  11
BRANCH   1  13
HETATM   13  C4  UNL     1      25.580   3.156  50.992  1.00  0.00     0.159 C 
HETATM   14  O1  UNL     1      26.103   4.011  50.277  1.00  0.00    -0.292 OA
BRANCH  13  15
HETATM   15  C5  UNL     1      25.195   2.701  49.660  1.00  0.00     0.110 C 
BRANCH  15  16
HETATM   16  C6  UNL     1      24.028   3.522  49.201  1.00  0.00    -0.021 C 
HETATM   17  C7  UNL     1      22.801   3.021  49.190  1.00  0.00     0.000 C 
BRANCH  17  18
HETATM   18  C8  UNL     1      22.212   1.719  49.550  1.00  0.00     0.249 C 
HETATM   19  F1  UNL     1      21.857   0.979  48.414  1.00  0.00    -0.251 F 
ENDBRANCH  17  18
ENDBRANCH  15  16
ENDBRANCH  13  15
ENDBRANCH   1  13
BRANCH  10  20
HETATM   20  O3  UNL     1      27.912   3.144  52.125  1.00  0.00    -0.389 OA
HETATM   21  H20 UNL     1      27.186   3.758  52.316  1.00  0.00     0.210 HD
ENDBRANCH  10  20
TORSDOF 6
ENDMDL
MODEL 9
REMARK VINA RESULT:      -6.1      3.269      6.236
REMARK  6 active torsions:
REMARK  status: ('A' for Active; 'I' for Inactive)
REMARK    1  A    between atoms: C2_2  and  C3_3 
REMARK    2  A    between atoms: C3_3  and  C4_4 
REMARK    3  A    between atoms: C4_4  and  C5_6 
REMARK    4  A    between atoms: C5_6  and  C6_7 
REMARK    5  A    between atoms: C7_8  and  C8_9 
REMARK    6  A    between atoms: C15_19  and  O3_20 
ROOT
HETATM    1  C3  UNL     1      24.574   1.400  52.803  1.00  0.00    -0.007 C 
HETATM    2  C9  UNL     1      23.324   1.707  52.751  1.00  0.00    -0.038 C 
HETATM    3  C10 UNL     1      22.956   3.172  52.432  1.00  0.00     0.059 C 
HETATM    4  C11 UNL     1      21.580   3.137  52.057  1.00  0.00     0.120 C 
HETATM    5  C12 UNL     1      21.804   2.097  50.989  1.00  0.00     0.066 C 
HETATM    6  N1  UNL     1      21.969   1.258  50.152  1.00  0.00    -0.197 NA
HETATM    7  C13 UNL     1      20.185   2.901  52.146  1.00  0.00     0.187 C 
HETATM    8  O2  UNL     1      20.003   1.481  52.341  1.00  0.00    -0.387 OA
HETATM    9  C14 UNL     1      20.909   0.923  53.206  1.00  0.00     0.203 C 
HETATM   10  C15 UNL     1      22.304   0.614  53.013  1.00  0.00     0.171 C 
ENDROOT
BRANCH   1  11
HETATM   11  C2  UNL     1      25.635   2.410  52.568  1.00  0.00     0.038 C 
HETATM   12  C1  UNL     1      26.396   2.148  51.287  1.00  0.00     0.010 C 
ENDBRANCH   1  11
BRANCH   1  13
HETATM   13  C4  UNL     1      25.031   0.067  53.092  1.00  0.00     0.159 C 
HETATM   14  O1  UNL     1      24.920  -1.155  53.008  1.00  0.00    -0.292 OA
BRANCH  13  15
HETATM   15  C5  UNL     1      26.191  -0.387  53.852  1.00  0.00     0.110 C 
BRANCH  15  16
HETATM   16  C6  UNL     1      27.068  -1.189  52.939  1.00  0.00    -0.021 C 
HETATM   17  C7  UNL     1      28.386  -1.187  53.079  1.00  0.00     0.000 C 
BRANCH  17  18
HETATM   18  C8  UNL     1      29.326  -0.529  54.002  1.00  0.00     0.249 C 
HETATM   19  F1  UNL     1      30.556  -1.200  54.055  1.00  0.00    -0.251 F 
ENDBRANCH  17  18
ENDBRANCH  15  16
ENDBRANCH  13  15
ENDBRANCH   1  13
BRANCH  10  20
HETATM   20  O3  UNL     1      22.732   0.133  54.287  1.00  0.00    -0.389 OA
HETATM   21  H20 UNL     1      23.453  -0.512  54.213  1.00  0.00     0.210 HD
ENDBRANCH  10  20
TORSDOF 6
ENDMDL
