MODEL 1
REMARK VINA RESULT:      -8.6      0.000      0.000
REMARK  7 active torsions:
REMARK  status: ('A' for Active; 'I' for Inactive)
REMARK       I    between atoms: C1_2  and  N1_3 
REMARK       I    between atoms: C1_2  and  N2_10 
REMARK    1  A    between atoms: N1_3  and  C2_4 
REMARK    2  A    between atoms: N2_10  and  C8_11 
REMARK    3  A    between atoms: N2_10  and  C15_19 
REMARK    4  A    between atoms: C8_11  and  C9_12 
REMARK    5  A    between atoms: C12_15  and  O2_16 
REMARK    6  A    between atoms: C15_19  and  C16_20 
REMARK    7  A    between atoms: C20_25  and  O3_26 
ROOT
HETATM    1  O1  UNL     1      26.461   0.459  51.281  1.00  0.00    -0.247 OA
HETATM    2  C1  UNL     1      25.671   0.718  52.252  1.00  0.00     0.323 C 
HETATM    3  N1  UNL     1      26.149   0.047  53.413  1.00  0.00    -0.309 N 
HETATM    4  N2  UNL     1      24.489   1.539  52.231  1.00  0.00    -0.329 N 
HETATM    5  H1  UNL     1      25.648   0.131  54.316  1.00  0.00     0.170 HD
ENDROOT
BRANCH   4   6
HETATM    6  C8  UNL     1      23.686   1.719  53.408  1.00  0.00     0.166 C 
BRANCH   6   7
HETATM    7  C9  UNL     1      22.610   0.700  53.562  1.00  0.00    -0.040 A 
HETATM    8  C10 UNL     1      21.328   1.090  53.146  1.00  0.00     0.011 A 
HETATM    9  C11 UNL     1      20.198   0.302  53.205  1.00  0.00     0.037 A 
HETATM   10  C12 UNL     1      20.320  -0.962  53.706  1.00  0.00     0.065 A 
HETATM   11  C13 UNL     1      21.574  -1.377  54.125  1.00  0.00     0.037 A 
HETATM   12  C14 UNL     1      22.683  -0.564  54.053  1.00  0.00     0.011 A 
BRANCH  10  13
HETATM   13  O2  UNL     1      19.200  -1.771  53.774  1.00  0.00    -0.361 OA
HETATM   14  H11 UNL     1      18.873  -2.271  52.958  1.00  0.00     0.217 HD
ENDBRANCH  10  13
ENDBRANCH   6   7
ENDBRANCH   4   6
BRANCH   4  15
HETATM   15  C15 UNL     1      24.252   2.103  50.938  1.00  0.00     0.143 C 
BRANCH  15  16
HETATM   16  C16 UNL     1      24.579   3.552  50.786  1.00  0.00     0.085 A 
HETATM   17  C17 UNL     1      23.800   4.260  49.770  1.00  0.00    -0.012 A 
HETATM   18  C18 UNL     1      24.619   4.875  48.897  1.00  0.00     0.023 A 
HETATM   19  C19 UNL     1      26.019   4.606  49.291  1.00  0.00     0.063 A 
HETATM   20 CL1  UNL     1      27.479   5.184  48.474  1.00  0.00    -0.082 Cl
HETATM   21  C20 UNL     1      25.981   3.836  50.392  1.00  0.00     0.074 A 
BRANCH  21  22
HETATM   22  O3  UNL     1      27.156   3.411  51.014  1.00  0.00    -0.362 OA
HETATM   23  H19 UNL     1      27.901   3.998  51.312  1.00  0.00     0.217 HD
ENDBRANCH  21  22
ENDBRANCH  15  16
ENDBRANCH   4  15
BRANCH   3  24
HETATM   24  C2  UNL     1      27.324  -0.753  53.371  1.00  0.00     0.036 A 
HETATM   25  C3  UNL     1      28.461  -0.097  53.813  1.00  0.00     0.029 A 
HETATM   26  C4  UNL     1      29.660  -0.794  53.810  1.00  0.00     0.002 A 
HETATM   27  C5  UNL     1      29.755  -2.100  53.387  1.00  0.00     0.000 A 
HETATM   28  C6  UNL     1      28.601  -2.749  52.944  1.00  0.00     0.002 A 
HETATM   29  C7  UNL     1      27.388  -2.063  52.940  1.00  0.00     0.029 A 
ENDBRANCH   3  24
TORSDOF 7
ENDMDL
MODEL 2
REMARK VINA RESULT:      -8.2      2.343      5.651
REMARK  7 active torsions:
REMARK  status: ('A' for Active; 'I' for Inactive)
REMARK       I    between atoms: C1_2  and  N1_3 
REMARK       I    between atoms: C1_2  and  N2_10 
REMARK    1  A    between atoms: N1_3  and  C2_4 
REMARK    2  A    between atoms: N2_10  and  C8_11 
REMARK    3  A    between atoms: N2_10  and  C15_19 
REMARK    4  A    between atoms: C8_11  and  C9_12 
REMARK    5  A    between atoms: C12_15  and  O2_16 
REMARK    6  A    between atoms: C15_19  and  C16_20 
REMARK    7  A    between atoms: C20_25  and  O3_26 
ROOT
HETATM    1  O1  UNL     1      26.980   3.049  51.321  1.00  0.00    -0.247 OA
HETATM    2  C1  UNL     1      25.759   2.773  51.065  1.00  0.00     0.323 C 
HETATM    3  N1  UNL     1      25.299   3.660  50.051  1.00  0.00    -0.309 N 
HETATM    4  N2  UNL     1      24.942   1.753  51.668  1.00  0.00    -0.329 N 
HETATM    5  H1  UNL     1      24.327   3.599  49.696  1.00  0.00     0.170 HD
ENDROOT
BRANCH   4   6
HETATM    6  C8  UNL     1      23.568   1.576  51.286  1.00  0.00     0.166 C 
BRANCH   6   7
HETATM    7  C9  UNL     1      22.751   0.855  52.302  1.00  0.00    -0.040 A 
HETATM    8  C10 UNL     1      22.949  -0.532  52.381  1.00  0.00     0.011 A 
HETATM    9  C11 UNL     1      22.295  -1.381  53.248  1.00  0.00     0.037 A 
HETATM   10  C12 UNL     1      21.377  -0.845  54.105  1.00  0.00     0.065 A 
HETATM   11  C13 UNL     1      21.159   0.522  54.050  1.00  0.00     0.037 A 
HETATM   12  C14 UNL     1      21.829   1.343  53.171  1.00  0.00     0.011 A 
BRANCH  10  13
HETATM   13  O2  UNL     1      20.708  -1.678  54.984  1.00  0.00    -0.361 OA
HETATM   14  H11 UNL     1      20.409  -2.600  54.696  1.00  0.00     0.217 HD
ENDBRANCH  10  13
ENDBRANCH   6   7
ENDBRANCH   4   6
BRANCH   4  15
HETATM   15  C15 UNL     1      25.662   0.997  52.646  1.00  0.00     0.143 C 
BRANCH  15  16
HETATM   16  C16 UNL     1      26.726   0.090  52.120  1.00  0.00     0.085 A 
HETATM   17  C17 UNL     1      26.446  -1.339  52.260  1.00  0.00    -0.012 A 
HETATM   18  C18 UNL     1      27.456  -1.952  52.905  1.00  0.00     0.023 A 
HETATM   19  C19 UNL     1      28.487  -0.944  53.237  1.00  0.00     0.063 A 
HETATM   20 CL1  UNL     1      30.014  -1.231  54.084  1.00  0.00    -0.082 Cl
HETATM   21  C20 UNL     1      28.049   0.239  52.773  1.00  0.00     0.074 A 
BRANCH  21  22
HETATM   22  O3  UNL     1      28.809   1.399  52.931  1.00  0.00    -0.362 OA
HETATM   23  H19 UNL     1      29.802   1.447  52.927  1.00  0.00     0.217 HD
ENDBRANCH  21  22
ENDBRANCH  15  16
ENDBRANCH   4  15
BRANCH   3  24
HETATM   24  C2  UNL     1      26.155   4.650  49.495  1.00  0.00     0.036 A 
HETATM   25  C3  UNL     1      25.681   5.944  49.644  1.00  0.00     0.029 A 
HETATM   26  C4  UNL     1      26.446   6.982  49.133  1.00  0.00     0.002 A 
HETATM   27  C5  UNL     1      27.644   6.771  48.491  1.00  0.00     0.000 A 
HETATM   28  C6  UNL     1      28.109   5.462  48.348  1.00  0.00     0.002 A 
HETATM   29  C7  UNL     1      27.354   4.408  48.854  1.00  0.00     0.029 A 
ENDBRANCH   3  24
TORSDOF 7
ENDMDL
MODEL 3
REMARK VINA RESULT:      -8.1      2.914      7.014
REMARK  7 active torsions:
REMARK  status: ('A' for Active; 'I' for Inactive)
REMARK       I    between atoms: C1_2  and  N1_3 
REMARK       I    between atoms: C1_2  and  N2_10 
REMARK    1  A    between atoms: N1_3  and  C2_4 
REMARK    2  A    between atoms: N2_10  and  C8_11 
REMARK    3  A    between atoms: N2_10  and  C15_19 
REMARK    4  A    between atoms: C8_11  and  C9_12 
REMARK    5  A    between atoms: C12_15  and  O2_16 
REMARK    6  A    between atoms: C15_19  and  C16_20 
REMARK    7  A    between atoms: C20_25  and  O3_26 
ROOT
HETATM    1  O1  UNL     1      23.748   2.784  50.434  1.00  0.00    -0.247 OA
HETATM    2  C1  UNL     1      24.447   2.566  51.481  1.00  0.00     0.323 C 
HETATM    3  N1  UNL     1      25.533   3.486  51.497  1.00  0.00    -0.309 N 
HETATM    4  N2  UNL     1      24.221   1.576  52.500  1.00  0.00    -0.329 N 
HETATM    5  H1  UNL     1      26.222   3.478  52.272  1.00  0.00     0.170 HD
ENDROOT
BRANCH   4   6
HETATM    6  C8  UNL     1      25.114   1.438  53.617  1.00  0.00     0.166 C 
BRANCH   6   7
HETATM    7  C9  UNL     1      26.119   0.351  53.451  1.00  0.00    -0.040 A 
HETATM    8  C10 UNL     1      27.318   0.505  54.163  1.00  0.00     0.011 A 
HETATM    9  C11 UNL     1      28.373  -0.382  54.146  1.00  0.00     0.037 A 
HETATM   10  C12 UNL     1      28.258  -1.506  53.378  1.00  0.00     0.065 A 
HETATM   11  C13 UNL     1      27.085  -1.687  52.664  1.00  0.00     0.037 A 
HETATM   12  C14 UNL     1      26.049  -0.780  52.702  1.00  0.00     0.011 A 
BRANCH  10  13
HETATM   13  O2  UNL     1      29.304  -2.410  53.346  1.00  0.00    -0.361 OA
HETATM   14  H11 UNL     1      29.719  -2.689  52.467  1.00  0.00     0.217 HD
ENDBRANCH  10  13
ENDBRANCH   6   7
ENDBRANCH   4   6
BRANCH   4  15
HETATM   15  C15 UNL     1      23.049   0.798  52.241  1.00  0.00     0.143 C 
BRANCH  15  16
HETATM   16  C16 UNL     1      22.180   0.508  53.420  1.00  0.00     0.085 A 
HETATM   17  C17 UNL     1      22.390  -0.801  54.038  1.00  0.00    -0.012 A 
HETATM   18  C18 UNL     1      21.228  -1.476  54.111  1.00  0.00     0.023 A 
HETATM   19  C19 UNL     1      20.156  -0.636  53.534  1.00  0.00     0.063 A 
HETATM   20 CL1  UNL     1      18.443  -1.057  53.389  1.00  0.00    -0.082 Cl
HETATM   21  C20 UNL     1      20.724   0.516  53.137  1.00  0.00     0.074 A 
BRANCH  21  22
HETATM   22  O3  UNL     1      19.963   1.527  52.549  1.00  0.00    -0.362 OA
HETATM   23  H19 UNL     1      19.022   1.753  52.776  1.00  0.00     0.217 HD
ENDBRANCH  21  22
ENDBRANCH  15  16
ENDBRANCH   4  15
BRANCH   3  24
HETATM   24  C2  UNL     1      25.705   4.442  50.459  1.00  0.00     0.036 A 
HETATM   25  C3  UNL     1      26.805   4.199  49.653  1.00  0.00     0.029 A 
HETATM   26  C4  UNL     1      27.058   5.077  48.610  1.00  0.00     0.002 A 
HETATM   27  C5  UNL     1      26.262   6.170  48.354  1.00  0.00     0.000 A 
HETATM   28  C6  UNL     1      25.157   6.403  49.174  1.00  0.00     0.002 A 
HETATM   29  C7  UNL     1      24.888   5.531  50.226  1.00  0.00     0.029 A 
ENDBRANCH   3  24
TORSDOF 7
ENDMDL
MODEL 4
REMARK VINA RESULT:      -8.0      2.214      6.501
REMARK  7 active torsions:
REMARK  status: ('A' for Active; 'I' for Inactive)
REMARK       I    between atoms: C1_2  and  N1_3 
REMARK       I    between atoms: C1_2  and  N2_10 
REMARK    1  A    between atoms: N1_3  and  C2_4 
REMARK    2  A    between atoms: N2_10  and  C8_11 
REMARK    3  A    between atoms: N2_10  and  C15_19 
REMARK    4  A    between atoms: C8_11  and  C9_12 
REMARK    5  A    between atoms: C12_15  and  O2_16 
REMARK    6  A    between atoms: C15_19  and  C16_20 
REMARK    7  A    between atoms: C20_25  and  O3_26 
ROOT
HETATM    1  O1  UNL     1      21.676   1.560  52.207  1.00  0.00    -0.247 OA
HETATM    2  C1  UNL     1      22.327   0.640  52.810  1.00  0.00     0.323 C 
HETATM    3  N1  UNL     1      21.448  -0.454  53.047  1.00  0.00    -0.309 N 
HETATM    4  N2  UNL     1      23.711   0.656  53.205  1.00  0.00    -0.329 N 
HETATM    5  H1  UNL     1      21.784  -1.309  53.526  1.00  0.00     0.170 HD
ENDROOT
BRANCH   4   6
HETATM    6  C8  UNL     1      24.300  -0.456  53.900  1.00  0.00     0.166 C 
BRANCH   6   7
HETATM    7  C9  UNL     1      25.787  -0.396  53.975  1.00  0.00    -0.040 A 
HETATM    8  C10 UNL     1      26.483  -1.130  53.002  1.00  0.00     0.011 A 
HETATM    9  C11 UNL     1      27.855  -1.210  52.896  1.00  0.00     0.037 A 
HETATM   10  C12 UNL     1      28.612  -0.527  53.804  1.00  0.00     0.065 A 
HETATM   11  C13 UNL     1      27.954   0.208  54.777  1.00  0.00     0.037 A 
HETATM   12  C14 UNL     1      26.580   0.266  54.856  1.00  0.00     0.011 A 
BRANCH  10  13
HETATM   13  O2  UNL     1      29.991  -0.592  53.717  1.00  0.00    -0.361 OA
HETATM   14  H11 UNL     1      30.520   0.169  53.314  1.00  0.00     0.217 HD
ENDBRANCH  10  13
ENDBRANCH   6   7
ENDBRANCH   4   6
BRANCH   4  15
HETATM   15  C15 UNL     1      24.362   1.872  52.829  1.00  0.00     0.143 C 
BRANCH  15  16
HETATM   16  C16 UNL     1      24.923   1.914  51.446  1.00  0.00     0.085 A 
HETATM   17  C17 UNL     1      26.370   2.116  51.369  1.00  0.00    -0.012 A 
HETATM   18  C18 UNL     1      26.654   3.171  50.583  1.00  0.00     0.023 A 
HETATM   19  C19 UNL     1      25.385   3.742  50.080  1.00  0.00     0.063 A 
HETATM   20 CL1  UNL     1      25.203   5.139  49.009  1.00  0.00    -0.082 Cl
HETATM   21  C20 UNL     1      24.386   3.000  50.590  1.00  0.00     0.074 A 
BRANCH  21  22
HETATM   22  O3  UNL     1      23.054   3.289  50.294  1.00  0.00    -0.362 OA
HETATM   23  H19 UNL     1      22.738   3.938  49.610  1.00  0.00     0.217 HD
ENDBRANCH  21  22
ENDBRANCH  15  16
ENDBRANCH   4  15
BRANCH   3  24
HETATM   24  C2  UNL     1      20.088  -0.409  52.634  1.00  0.00     0.036 A 
HETATM   25  C3  UNL     1      19.215  -1.021  53.519  1.00  0.00     0.029 A 
HETATM   26  C4  UNL     1      17.865  -1.030  53.204  1.00  0.00     0.002 A 
HETATM   27  C5  UNL     1      17.370  -0.458  52.054  1.00  0.00     0.000 A 
HETATM   28  C6  UNL     1      18.261   0.155  51.171  1.00  0.00     0.002 A 
HETATM   29  C7  UNL     1      19.620   0.173  51.471  1.00  0.00     0.029 A 
ENDBRANCH   3  24
TORSDOF 7
ENDMDL
MODEL 5
REMARK VINA RESULT:      -8.0      1.913      2.370
REMARK  7 active torsions:
REMARK  status: ('A' for Active; 'I' for Inactive)
REMARK       I    between atoms: C1_2  and  N1_3 
REMARK       I    between atoms: C1_2  and  N2_10 
REMARK    1  A    between atoms: N1_3  and  C2_4 
REMARK    2  A    between atoms: N2_10  and  C8_11 
REMARK    3  A    between atoms: N2_10  and  C15_19 
REMARK    4  A    between atoms: C8_11  and  C9_12 
REMARK    5  A    between atoms: C12_15  and  O2_16 
REMARK    6  A    between atoms: C15_19  and  C16_20 
REMARK    7  A    between atoms: C20_25  and  O3_26 
ROOT
HETATM    1  O1  UNL     1      27.155   1.985  51.326  1.00  0.00    -0.247 OA
HETATM    2  C1  UNL     1      26.143   2.096  52.098  1.00  0.00     0.323 C 
HETATM    3  N1  UNL     1      26.311   1.202  53.193  1.00  0.00    -0.309 N 
HETATM    4  N2  UNL     1      25.003   2.960  51.937  1.00  0.00    -0.329 N 
HETATM    5  H1  UNL     1      25.595   1.141  53.941  1.00  0.00     0.170 HD
ENDROOT
BRANCH   4   6
HETATM    6  C8  UNL     1      23.926   2.957  52.887  1.00  0.00     0.166 C 
BRANCH   6   7
HETATM    7  C9  UNL     1      22.802   2.050  52.518  1.00  0.00    -0.040 A 
HETATM    8  C10 UNL     1      21.578   2.672  52.227  1.00  0.00     0.011 A 
HETATM    9  C11 UNL     1      20.419   2.018  51.867  1.00  0.00     0.037 A 
HETATM   10  C12 UNL     1      20.448   0.655  51.784  1.00  0.00     0.065 A 
HETATM   11  C13 UNL     1      21.643   0.012  52.066  1.00  0.00     0.037 A 
HETATM   12  C14 UNL     1      22.783   0.696  52.423  1.00  0.00     0.011 A 
BRANCH  10  13
HETATM   13  O2  UNL     1      19.297  -0.023  51.425  1.00  0.00    -0.361 OA
HETATM   14  H11 UNL     1      19.321  -0.741  50.714  1.00  0.00     0.217 HD
ENDBRANCH  10  13
ENDBRANCH   6   7
ENDBRANCH   4   6
BRANCH   4  15
HETATM   15  C15 UNL     1      25.102   3.763  50.757  1.00  0.00     0.143 C 
BRANCH  15  16
HETATM   16  C16 UNL     1      23.927   4.635  50.458  1.00  0.00     0.085 A 
HETATM   17  C17 UNL     1      23.538   4.690  49.050  1.00  0.00    -0.012 A 
HETATM   18  C18 UNL     1      23.495   5.966  48.625  1.00  0.00     0.023 A 
HETATM   19  C19 UNL     1      23.861   6.852  49.751  1.00  0.00     0.063 A 
HETATM   20 CL1  UNL     1      23.957   8.619  49.720  1.00  0.00    -0.082 Cl
HETATM   21  C20 UNL     1      24.109   6.065  50.812  1.00  0.00     0.074 A 
BRANCH  21  22
HETATM   22  O3  UNL     1      24.481   6.611  52.041  1.00  0.00    -0.362 OA
HETATM   23  H19 UNL     1      25.411   6.695  52.382  1.00  0.00     0.217 HD
ENDBRANCH  21  22
ENDBRANCH  15  16
ENDBRANCH   4  15
BRANCH   3  24
HETATM   24  C2  UNL     1      27.460   0.371  53.297  1.00  0.00     0.036 A 
HETATM   25  C3  UNL     1      27.236  -0.942  52.915  1.00  0.00     0.029 A 
HETATM   26  C4  UNL     1      28.297  -1.832  52.981  1.00  0.00     0.002 A 
HETATM   27  C5  UNL     1      29.550  -1.457  53.408  1.00  0.00     0.000 A 
HETATM   28  C6  UNL     1      29.762  -0.131  53.790  1.00  0.00     0.002 A 
HETATM   29  C7  UNL     1      28.707   0.776  53.731  1.00  0.00     0.029 A 
ENDBRANCH   3  24
TORSDOF 7
ENDMDL
MODEL 6
REMARK VINA RESULT:      -7.9      2.907      3.658
REMARK  7 active torsions:
REMARK  status: ('A' for Active; 'I' for Inactive)
REMARK       I    between atoms: C1_2  and  N1_3 
REMARK       I    between atoms: C1_2  and  N2_10 
REMARK    1  A    between atoms: N1_3  and  C2_4 
REMARK    2  A    between atoms: N2_10  and  C8_11 
REMARK    3  A    between atoms: N2_10  and  C15_19 
REMARK    4  A    between atoms: C8_11  and  C9_12 
REMARK    5  A    between atoms: C12_15  and  O2_16 
REMARK    6  A    between atoms: C15_19  and  C16_20 
REMARK    7  A    between atoms: C20_25  and  O3_26 
ROOT
HETATM    1  O1  UNL     1      27.140   2.432  50.816  1.00  0.00    -0.247 OA
HETATM    2  C1  UNL     1      25.942   2.398  51.260  1.00  0.00     0.323 C 
HETATM    3  N1  UNL     1      25.927   1.637  52.462  1.00  0.00    -0.309 N 
HETATM    4  N2  UNL     1      24.772   3.007  50.683  1.00  0.00    -0.329 N 
HETATM    5  H1  UNL     1      25.045   1.491  52.986  1.00  0.00     0.170 HD
ENDROOT
BRANCH   4   6
HETATM    6  C8  UNL     1      23.479   2.862  51.293  1.00  0.00     0.166 C 
BRANCH   6   7
HETATM    7  C9  UNL     1      22.351   2.881  50.319  1.00  0.00    -0.040 A 
HETATM    8  C10 UNL     1      22.129   1.690  49.610  1.00  0.00     0.011 A 
HETATM    9  C11 UNL     1      21.142   1.499  48.666  1.00  0.00     0.037 A 
HETATM   10  C12 UNL     1      20.307   2.542  48.386  1.00  0.00     0.065 A 
HETATM   11  C13 UNL     1      20.502   3.731  49.071  1.00  0.00     0.037 A 
HETATM   12  C14 UNL     1      21.498   3.890  50.008  1.00  0.00     0.011 A 
BRANCH  10  13
HETATM   13  O2  UNL     1      19.310   2.374  47.443  1.00  0.00    -0.361 OA
HETATM   14  H11 UNL     1      18.653   1.608  47.516  1.00  0.00     0.217 HD
ENDBRANCH  10  13
ENDBRANCH   6   7
ENDBRANCH   4   6
BRANCH   4  15
HETATM   15  C15 UNL     1      25.077   3.725  49.484  1.00  0.00     0.143 C 
BRANCH  15  16
HETATM   16  C16 UNL     1      25.472   5.154  49.659  1.00  0.00     0.085 A 
HETATM   17  C17 UNL     1      24.585   6.125  49.020  1.00  0.00    -0.012 A 
HETATM   18  C18 UNL     1      25.286   6.934  48.204  1.00  0.00     0.023 A 
HETATM   19  C19 UNL     1      26.711   6.539  48.257  1.00  0.00     0.063 A 
HETATM   20 CL1  UNL     1      28.050   7.284  47.371  1.00  0.00    -0.082 Cl
HETATM   21  C20 UNL     1      26.805   5.503  49.108  1.00  0.00     0.074 A 
BRANCH  21  22
HETATM   22  O3  UNL     1      28.035   4.902  49.375  1.00  0.00    -0.362 OA
HETATM   23  H19 UNL     1      28.619   4.451  48.709  1.00  0.00     0.217 HD
ENDBRANCH  21  22
ENDBRANCH  15  16
ENDBRANCH   4  15
BRANCH   3  24
HETATM   24  C2  UNL     1      27.117   1.058  52.982  1.00  0.00     0.036 A 
HETATM   25  C3  UNL     1      27.232  -0.300  52.734  1.00  0.00     0.029 A 
HETATM   26  C4  UNL     1      28.360  -0.957  53.202  1.00  0.00     0.002 A 
HETATM   27  C5  UNL     1      29.356  -0.311  53.898  1.00  0.00     0.000 A 
HETATM   28  C6  UNL     1      29.228   1.057  54.141  1.00  0.00     0.002 A 
HETATM   29  C7  UNL     1      28.101   1.733  53.678  1.00  0.00     0.029 A 
ENDBRANCH   3  24
TORSDOF 7
ENDMDL
MODEL 7
REMARK VINA RESULT:      -7.9      2.958      6.509
REMARK  7 active torsions:
REMARK  status: ('A' for Active; 'I' for Inactive)
REMARK       I    between atoms: C1_2  and  N1_3 
REMARK       I    between atoms: C1_2  and  N2_10 
REMARK    1  A    between atoms: N1_3  and  C2_4 
REMARK    2  A    between atoms: N2_10  and  C8_11 
REMARK    3  A    between atoms: N2_10  and  C15_19 
REMARK    4  A    between atoms: C8_11  and  C9_12 
REMARK    5  A    between atoms: C12_15  and  O2_16 
REMARK    6  A    between atoms: C15_19  and  C16_20 
REMARK    7  A    between atoms: C20_25  and  O3_26 
ROOT
HETATM    1  O1  UNL     1      25.302   2.493  53.200  1.00  0.00    -0.247 OA
HETATM    2  C1  UNL     1      25.490   2.630  51.943  1.00  0.00     0.323 C 
HETATM    3  N1  UNL     1      26.749   2.057  51.610  1.00  0.00    -0.309 N 
HETATM    4  N2  UNL     1      24.612   3.248  50.985  1.00  0.00    -0.329 N 
HETATM    5  H1  UNL     1      27.090   2.061  50.631  1.00  0.00     0.170 HD
ENDROOT
BRANCH   4   6
HETATM    6  C8  UNL     1      24.974   3.344  49.597  1.00  0.00     0.166 C 
BRANCH   6   7
HETATM    7  C9  UNL     1      25.765   4.563  49.267  1.00  0.00    -0.040 A 
HETATM    8  C10 UNL     1      27.102   4.349  48.900  1.00  0.00     0.011 A 
HETATM    9  C11 UNL     1      28.002   5.337  48.560  1.00  0.00     0.037 A 
HETATM   10  C12 UNL     1      27.573   6.633  48.578  1.00  0.00     0.065 A 
HETATM   11  C13 UNL     1      26.257   6.876  48.937  1.00  0.00     0.037 A 
HETATM   12  C14 UNL     1      25.383   5.866  49.272  1.00  0.00     0.011 A 
BRANCH  10  13
HETATM   13  O2  UNL     1      28.458   7.641  48.241  1.00  0.00    -0.361 OA
HETATM   14  H11 UNL     1      28.428   8.069  47.325  1.00  0.00     0.217 HD
ENDBRANCH  10  13
ENDBRANCH   6   7
ENDBRANCH   4   6
BRANCH   4  15
HETATM   15  C15 UNL     1      23.407   3.725  51.590  1.00  0.00     0.143 C 
BRANCH  15  16
HETATM   16  C16 UNL     1      22.174   2.931  51.309  1.00  0.00     0.085 A 
HETATM   17  C17 UNL     1      20.915   3.628  51.570  1.00  0.00    -0.012 A 
HETATM   18  C18 UNL     1      20.143   2.905  52.403  1.00  0.00     0.023 A 
HETATM   19  C19 UNL     1      20.860   1.659  52.750  1.00  0.00     0.063 A 
HETATM   20 CL1  UNL     1      20.284   0.366  53.812  1.00  0.00    -0.082 Cl
HETATM   21  C20 UNL     1      22.040   1.687  52.105  1.00  0.00     0.074 A 
BRANCH  21  22
HETATM   22  O3  UNL     1      22.952   0.637  52.229  1.00  0.00    -0.362 OA
HETATM   23  H19 UNL     1      23.921   0.681  52.013  1.00  0.00     0.217 HD
ENDBRANCH  21  22
ENDBRANCH  15  16
ENDBRANCH   4  15
BRANCH   3  24
HETATM   24  C2  UNL     1      27.574   1.461  52.604  1.00  0.00     0.036 A 
HETATM   25  C3  UNL     1      27.433   0.086  52.695  1.00  0.00     0.029 A 
HETATM   26  C4  UNL     1      28.196  -0.588  53.637  1.00  0.00     0.002 A 
HETATM   27  C5  UNL     1      29.077   0.058  54.474  1.00  0.00     0.000 A 
HETATM   28  C6  UNL     1      29.209   1.444  54.371  1.00  0.00     0.002 A 
HETATM   29  C7  UNL     1      28.450   2.137  53.431  1.00  0.00     0.029 A 
ENDBRANCH   3  24
TORSDOF 7
ENDMDL
MODEL 8
REMARK VINA RESULT:      -7.9      2.027      2.683
REMARK  7 active torsions:
REMARK  status: ('A' for Active; 'I' for Inactive)
REMARK       I    between atoms: C1_2  and  N1_3 
REMARK       I    between atoms: C1_2  and  N2_10 
REMARK    1  A    between atoms: N1_3  and  C2_4 
REMARK    2  A    between atoms: N2_10  and  C8_11 
REMARK    3  A    between atoms: N2_10  and  C15_19 
REMARK    4  A    between atoms: C8_11  and  C9_12 
REMARK    5  A    between atoms: C12_15  and  O2_16 
REMARK    6  A    between atoms: C15_19  and  C16_20 
REMARK    7  A    between atoms: C20_25  and  O3_26 
ROOT
HETATM    1  O1  UNL     1      24.832   3.075  53.323  1.00  0.00    -0.247 OA
HETATM    2  C1  UNL     1      24.257   2.145  52.661  1.00  0.00     0.323 C 
HETATM    3  N1  UNL     1      25.143   1.033  52.583  1.00  0.00    -0.309 N 
HETATM    4  N2  UNL     1      22.944   2.166  52.073  1.00  0.00    -0.329 N 
HETATM    5  H1  UNL     1      24.863   0.168  52.086  1.00  0.00     0.170 HD
ENDROOT
BRANCH   4   6
HETATM    6  C8  UNL     1      22.441   1.041  51.334  1.00  0.00     0.166 C 
BRANCH   6   7
HETATM    7  C9  UNL     1      21.171   0.484  51.880  1.00  0.00    -0.040 A 
HETATM    8  C10 UNL     1      21.264  -0.159  53.124  1.00  0.00     0.011 A 
HETATM    9  C11 UNL     1      20.212  -0.741  53.799  1.00  0.00     0.037 A 
HETATM   10  C12 UNL     1      18.974  -0.697  53.224  1.00  0.00     0.065 A 
HETATM   11  C13 UNL     1      18.850  -0.069  51.996  1.00  0.00     0.037 A 
HETATM   12  C14 UNL     1      19.922   0.503  51.347  1.00  0.00     0.011 A 
BRANCH  10  13
HETATM   13  O2  UNL     1      17.904  -1.275  53.884  1.00  0.00    -0.361 OA
HETATM   14  H11 UNL     1      17.752  -2.274  53.845  1.00  0.00     0.217 HD
ENDBRANCH  10  13
ENDBRANCH   6   7
ENDBRANCH   4   6
BRANCH   4  15
HETATM   15  C15 UNL     1      22.266   3.401  52.318  1.00  0.00     0.143 C 
BRANCH  15  16
HETATM   16  C16 UNL     1      22.375   4.432  51.243  1.00  0.00     0.085 A 
HETATM   17  C17 UNL     1      22.413   3.905  49.880  1.00  0.00    -0.012 A 
HETATM   18  C18 UNL     1      23.498   4.366  49.230  1.00  0.00     0.023 A 
HETATM   19  C19 UNL     1      24.259   5.246  50.144  1.00  0.00     0.063 A 
HETATM   20 CL1  UNL     1      25.763   6.104  49.780  1.00  0.00    -0.082 Cl
HETATM   21  C20 UNL     1      23.593   5.276  51.311  1.00  0.00     0.074 A 
BRANCH  21  22
HETATM   22  O3  UNL     1      24.062   6.032  52.387  1.00  0.00    -0.362 OA
HETATM   23  H19 UNL     1      24.883   6.592  52.389  1.00  0.00     0.217 HD
ENDBRANCH  21  22
ENDBRANCH  15  16
ENDBRANCH   4  15
BRANCH   3  24
HETATM   24  C2  UNL     1      26.431   1.074  53.183  1.00  0.00     0.036 A 
HETATM   25  C3  UNL     1      26.576   0.205  54.252  1.00  0.00     0.029 A 
HETATM   26  C4  UNL     1      27.799   0.171  54.906  1.00  0.00     0.002 A 
HETATM   27  C5  UNL     1      28.860   0.964  54.531  1.00  0.00     0.000 A 
HETATM   28  C6  UNL     1      28.699   1.835  53.452  1.00  0.00     0.002 A 
HETATM   29  C7  UNL     1      27.478   1.882  52.785  1.00  0.00     0.029 A 
ENDBRANCH   3  24
TORSDOF 7
ENDMDL
MODEL 9
REMARK VINA RESULT:      -7.8      3.292      5.822
REMARK  7 active torsions:
REMARK  status: ('A' for Active; 'I' for Inactive)
REMARK       I    between atoms: C1_2  and  N1_3 
REMARK       I    between atoms: C1_2  and  N2_10 
REMARK    1  A    between atoms: N1_3  and  C2_4 
REMARK    2  A    between atoms: N2_10  and  C8_11 
REMARK    3  A    between atoms: N2_10  and  C15_19 
REMARK    4  A    between atoms: C8_11  and  C9_12 
REMARK    5  A    between atoms: C12_15  and  O2_16 
REMARK    6  A    between atoms: C15_19  and  C16_20 
REMARK    7  A    between atoms: C20_25  and  O3_26 
ROOT
HETATM    1  O1  UNL     1      24.691   0.226  53.750  1.00  0.00    -0.247 OA
HETATM    2  C1  UNL     1      24.563   0.872  52.655  1.00  0.00     0.323 C 
HETATM    3  N1  UNL     1      25.855   1.057  52.086  1.00  0.00    -0.309 N 
HETATM    4  N2  UNL     1      23.347   1.354  52.054  1.00  0.00    -0.329 N 
HETATM    5  H1  UNL     1      25.970   1.559  51.187  1.00  0.00     0.170 HD
ENDROOT
BRANCH   4   6
HETATM    6  C8  UNL     1      23.366   2.089  50.820  1.00  0.00     0.166 C 
BRANCH   6   7
HETATM    7  C9  UNL     1      23.042   3.535  50.978  1.00  0.00    -0.040 A 
HETATM    8  C10 UNL     1      21.744   3.920  50.607  1.00  0.00     0.011 A 
HETATM    9  C11 UNL     1      21.246   5.204  50.673  1.00  0.00     0.037 A 
HETATM   10  C12 UNL     1      22.068   6.191  51.133  1.00  0.00     0.065 A 
HETATM   11  C13 UNL     1      23.356   5.842  51.507  1.00  0.00     0.037 A 
HETATM   12  C14 UNL     1      23.824   4.550  51.429  1.00  0.00     0.011 A 
BRANCH  10  13
HETATM   13  O2  UNL     1      21.590   7.487  51.208  1.00  0.00    -0.361 OA
HETATM   14  H11 UNL     1      22.071   8.185  51.760  1.00  0.00     0.217 HD
ENDBRANCH  10  13
ENDBRANCH   6   7
ENDBRANCH   4   6
BRANCH   4  15
HETATM   15  C15 UNL     1      22.195   1.015  52.831  1.00  0.00     0.143 C 
BRANCH  15  16
HETATM   16  C16 UNL     1      21.303  -0.035  52.255  1.00  0.00     0.085 A 
HETATM   17  C17 UNL     1      20.441   0.414  51.162  1.00  0.00    -0.012 A 
HETATM   18  C18 UNL     1      19.154   0.129  51.434  1.00  0.00     0.023 A 
HETATM   19  C19 UNL     1      19.085  -0.541  52.751  1.00  0.00     0.063 A 
HETATM   20 CL1  UNL     1      17.627  -1.121  53.569  1.00  0.00    -0.082 Cl
HETATM   21  C20 UNL     1      20.343  -0.631  53.217  1.00  0.00     0.074 A 
BRANCH  21  22
HETATM   22  O3  UNL     1      20.611  -1.224  54.451  1.00  0.00    -0.362 OA
HETATM   23  H19 UNL     1      21.503  -1.527  54.768  1.00  0.00     0.217 HD
ENDBRANCH  21  22
ENDBRANCH  15  16
ENDBRANCH   4  15
BRANCH   3  24
HETATM   24  C2  UNL     1      27.021   0.558  52.729  1.00  0.00     0.036 A 
HETATM   25  C3  UNL     1      27.222  -0.800  52.545  1.00  0.00     0.029 A 
HETATM   26  C4  UNL     1      28.335  -1.382  53.134  1.00  0.00     0.002 A 
HETATM   27  C5  UNL     1      29.234  -0.661  53.887  1.00  0.00     0.000 A 
HETATM   28  C6  UNL     1      29.019   0.706  54.064  1.00  0.00     0.002 A 
HETATM   29  C7  UNL     1      27.906   1.307  53.480  1.00  0.00     0.029 A 
ENDBRANCH   3  24
TORSDOF 7
ENDMDL
