MODEL 1
REMARK VINA RESULT:      -8.4      0.000      0.000
REMARK  5 active torsions:
REMARK  status: ('A' for Active; 'I' for Inactive)
REMARK    1  A    between atoms: O1_2  and  C2_3 
REMARK    2  A    between atoms: C5_6  and  C6_7 
REMARK    3  A    between atoms: C8_9  and  C9_10 
REMARK    4  A    between atoms: N2_17  and  C15_18 
REMARK    5  A    between atoms: C16_20  and  O2_21 
ROOT
HETATM    1  C6  UNL     1      24.528   2.189  52.672  1.00  0.00     0.151 A 
HETATM    2  C7  UNL     1      24.567   3.016  51.411  1.00  0.00     0.094 A 
HETATM    3  C8  UNL     1      23.395   2.535  50.652  1.00  0.00     0.067 A 
HETATM    4  N1  UNL     1      22.780   1.605  51.303  1.00  0.00    -0.173 NA
HETATM    5  N2  UNL     1      23.397   1.343  52.503  1.00  0.00    -0.236 N 
ENDROOT
BRANCH   1   6
HETATM    6  C5  UNL     1      25.789   1.428  52.854  1.00  0.00    -0.033 A 
HETATM    7  C4  UNL     1      26.046   0.223  52.270  1.00  0.00     0.012 A 
HETATM    8  C3  UNL     1      27.259  -0.404  52.513  1.00  0.00     0.037 A 
HETATM    9  C2  UNL     1      28.249   0.135  53.334  1.00  0.00     0.068 A 
HETATM   10  C19 UNL     1      27.994   1.354  53.927  1.00  0.00     0.037 A 
HETATM   11  C18 UNL     1      26.789   1.959  53.676  1.00  0.00     0.012 A 
BRANCH   9  12
HETATM   12  O1  UNL     1      29.449  -0.525  53.551  1.00  0.00    -0.356 OA
HETATM   13  C1  UNL     1      29.504  -1.939  53.352  1.00  0.00     0.210 C 
ENDBRANCH   9  12
ENDBRANCH   1   6
BRANCH   5  14
HETATM   14  C15 UNL     1      22.798   0.295  53.338  1.00  0.00     0.192 A 
HETATM   15  N3  UNL     1      23.082  -0.399  54.226  1.00  0.00    -0.198 NA
HETATM   16  C16 UNL     1      22.294  -1.291  54.806  1.00  0.00     0.171 A 
HETATM   17  C17 UNL     1      20.903  -1.361  54.205  1.00  0.00     0.111 A 
HETATM   18  S1  UNL     1      21.036  -0.048  52.851  1.00  0.00    -0.058 SA
BRANCH  16  19
HETATM   19  O2  UNL     1      22.898  -1.988  55.853  1.00  0.00    -0.344 OA
HETATM   20  H14 UNL     1      22.697  -1.784  56.825  1.00  0.00     0.219 HD
ENDBRANCH  16  19
ENDBRANCH   5  14
BRANCH   3  21
HETATM   21  C9  UNL     1      22.973   3.035  49.339  1.00  0.00    -0.010 A 
HETATM   22  C10 UNL     1      23.115   4.345  49.002  1.00  0.00     0.013 A 
HETATM   23  C11 UNL     1      22.741   4.889  47.785  1.00  0.00     0.001 A 
HETATM   24  C12 UNL     1      22.185   4.025  46.854  1.00  0.00     0.000 A 
HETATM   25  C13 UNL     1      22.033   2.686  47.184  1.00  0.00     0.001 A 
HETATM   26  C14 UNL     1      22.417   2.193  48.397  1.00  0.00     0.013 A 
ENDBRANCH   3  21
TORSDOF 5
ENDMDL
MODEL 2
REMARK VINA RESULT:      -8.4      2.753      7.122
REMARK  5 active torsions:
REMARK  status: ('A' for Active; 'I' for Inactive)
REMARK    1  A    between atoms: O1_2  and  C2_3 
REMARK    2  A    between atoms: C5_6  and  C6_7 
REMARK    3  A    between atoms: C8_9  and  C9_10 
REMARK    4  A    between atoms: N2_17  and  C15_18 
REMARK    5  A    between atoms: C16_20  and  O2_21 
ROOT
HETATM    1  C6  UNL     1      23.697   1.360  53.246  1.00  0.00     0.151 A 
HETATM    2  C7  UNL     1      24.865   0.736  53.969  1.00  0.00     0.094 A 
HETATM    3  C8  UNL     1      25.872   0.562  52.903  1.00  0.00     0.067 A 
HETATM    4  N1  UNL     1      25.412   0.977  51.770  1.00  0.00    -0.173 NA
HETATM    5  N2  UNL     1      24.129   1.455  51.895  1.00  0.00    -0.236 N 
ENDROOT
BRANCH   1   6
HETATM    6  C5  UNL     1      22.472   0.536  53.397  1.00  0.00    -0.033 A 
HETATM    7  C4  UNL     1      21.211   0.985  53.134  1.00  0.00     0.012 A 
HETATM    8  C3  UNL     1      20.134   0.130  53.315  1.00  0.00     0.037 A 
HETATM    9  C2  UNL     1      20.267  -1.185  53.759  1.00  0.00     0.068 A 
HETATM   10  C19 UNL     1      21.540  -1.644  54.027  1.00  0.00     0.037 A 
HETATM   11  C18 UNL     1      22.593  -0.785  53.843  1.00  0.00     0.012 A 
BRANCH   9  12
HETATM   12  O1  UNL     1      19.165  -2.008  53.927  1.00  0.00    -0.356 OA
HETATM   13  C1  UNL     1      17.909  -1.600  53.381  1.00  0.00     0.210 C 
ENDBRANCH   9  12
ENDBRANCH   1   6
BRANCH   5  14
HETATM   14  C15 UNL     1      23.488   1.951  50.672  1.00  0.00     0.192 A 
HETATM   15  N3  UNL     1      22.614   1.676  49.957  1.00  0.00    -0.198 NA
HETATM   16  C16 UNL     1      22.245   2.346  48.876  1.00  0.00     0.171 A 
HETATM   17  C17 UNL     1      23.086   3.578  48.603  1.00  0.00     0.111 A 
HETATM   18  S1  UNL     1      24.302   3.504  50.050  1.00  0.00    -0.058 SA
BRANCH  16  19
HETATM   19  O2  UNL     1      21.158   1.786  48.204  1.00  0.00    -0.344 OA
HETATM   20  H14 UNL     1      21.182   1.584  47.211  1.00  0.00     0.219 HD
ENDBRANCH  16  19
ENDBRANCH   5  14
BRANCH   3  21
HETATM   21  C9  UNL     1      27.213  -0.003  53.089  1.00  0.00    -0.010 A 
HETATM   22  C10 UNL     1      27.457  -1.326  52.889  1.00  0.00     0.013 A 
HETATM   23  C11 UNL     1      28.694  -1.929  53.045  1.00  0.00     0.001 A 
HETATM   24  C12 UNL     1      29.748  -1.114  53.431  1.00  0.00     0.000 A 
HETATM   25  C13 UNL     1      29.513   0.237  53.638  1.00  0.00     0.001 A 
HETATM   26  C14 UNL     1      28.276   0.790  53.472  1.00  0.00     0.013 A 
ENDBRANCH   3  21
TORSDOF 5
ENDMDL
MODEL 3
REMARK VINA RESULT:      -8.3      3.439      7.359
REMARK  5 active torsions:
REMARK  status: ('A' for Active; 'I' for Inactive)
REMARK    1  A    between atoms: O1_2  and  C2_3 
REMARK    2  A    between atoms: C5_6  and  C6_7 
REMARK    3  A    between atoms: C8_9  and  C9_10 
REMARK    4  A    between atoms: N2_17  and  C15_18 
REMARK    5  A    between atoms: C16_20  and  O2_21 
ROOT
HETATM    1  C6  UNL     1      23.753   1.323  53.373  1.00  0.00     0.151 A 
HETATM    2  C7  UNL     1      24.564   0.095  53.707  1.00  0.00     0.094 A 
HETATM    3  C8  UNL     1      25.859   0.352  53.046  1.00  0.00     0.067 A 
HETATM    4  N1  UNL     1      25.839   1.487  52.429  1.00  0.00    -0.173 NA
HETATM    5  N2  UNL     1      24.623   2.113  52.573  1.00  0.00    -0.236 N 
ENDROOT
BRANCH   1   6
HETATM    6  C5  UNL     1      22.499   0.961  52.667  1.00  0.00    -0.033 A 
HETATM    7  C4  UNL     1      22.356   0.962  51.311  1.00  0.00     0.012 A 
HETATM    8  C3  UNL     1      21.135   0.611  50.756  1.00  0.00     0.037 A 
HETATM    9  C2  UNL     1      20.024   0.250  51.517  1.00  0.00     0.068 A 
HETATM   10  C19 UNL     1      20.162   0.247  52.889  1.00  0.00     0.037 A 
HETATM   11  C18 UNL     1      21.377   0.597  53.421  1.00  0.00     0.012 A 
BRANCH   9  12
HETATM   12  O1  UNL     1      18.819  -0.095  50.923  1.00  0.00    -0.356 OA
HETATM   13  C1  UNL     1      17.684  -0.338  51.756  1.00  0.00     0.210 C 
ENDBRANCH   9  12
ENDBRANCH   1   6
BRANCH   5  14
HETATM   14  C15 UNL     1      24.468   3.412  51.909  1.00  0.00     0.192 A 
HETATM   15  N3  UNL     1      23.846   4.388  52.010  1.00  0.00    -0.198 NA
HETATM   16  C16 UNL     1      23.927   5.453  51.226  1.00  0.00     0.171 A 
HETATM   17  C17 UNL     1      24.946   5.317  50.112  1.00  0.00     0.111 A 
HETATM   18  S1  UNL     1      25.612   3.580  50.451  1.00  0.00    -0.058 SA
BRANCH  16  19
HETATM   19  O2  UNL     1      23.059   6.487  51.580  1.00  0.00    -0.344 OA
HETATM   20  H14 UNL     1      23.036   7.368  51.080  1.00  0.00     0.219 HD
ENDBRANCH  16  19
ENDBRANCH   5  14
BRANCH   3  21
HETATM   21  C9  UNL     1      27.018  -0.546  53.077  1.00  0.00    -0.010 A 
HETATM   22  C10 UNL     1      28.234  -0.117  53.510  1.00  0.00     0.013 A 
HETATM   23  C11 UNL     1      29.371  -0.905  53.567  1.00  0.00     0.001 A 
HETATM   24  C12 UNL     1      29.246  -2.222  53.150  1.00  0.00     0.000 A 
HETATM   25  C13 UNL     1      28.012  -2.673  52.705  1.00  0.00     0.001 A 
HETATM   26  C14 UNL     1      26.916  -1.860  52.667  1.00  0.00     0.013 A 
ENDBRANCH   3  21
TORSDOF 5
ENDMDL
MODEL 4
REMARK VINA RESULT:      -8.1      3.219      5.391
REMARK  5 active torsions:
REMARK  status: ('A' for Active; 'I' for Inactive)
REMARK    1  A    between atoms: O1_2  and  C2_3 
REMARK    2  A    between atoms: C5_6  and  C6_7 
REMARK    3  A    between atoms: C8_9  and  C9_10 
REMARK    4  A    between atoms: N2_17  and  C15_18 
REMARK    5  A    between atoms: C16_20  and  O2_21 
ROOT
HETATM    1  C6  UNL     1      23.201   1.656  51.054  1.00  0.00     0.151 A 
HETATM    2  C7  UNL     1      22.300   0.467  51.278  1.00  0.00     0.094 A 
HETATM    3  C8  UNL     1      21.008   1.081  51.643  1.00  0.00     0.067 A 
HETATM    4  N1  UNL     1      21.103   2.369  51.654  1.00  0.00    -0.173 NA
HETATM    5  N2  UNL     1      22.372   2.780  51.323  1.00  0.00    -0.236 N 
ENDROOT
BRANCH   1   6
HETATM    6  C5  UNL     1      24.391   1.600  51.938  1.00  0.00    -0.033 A 
HETATM    7  C4  UNL     1      24.382   1.089  53.202  1.00  0.00     0.012 A 
HETATM    8  C3  UNL     1      25.555   1.091  53.944  1.00  0.00     0.037 A 
HETATM    9  C2  UNL     1      26.763   1.594  53.464  1.00  0.00     0.068 A 
HETATM   10  C19 UNL     1      26.778   2.111  52.185  1.00  0.00     0.037 A 
HETATM   11  C18 UNL     1      25.610   2.101  51.467  1.00  0.00     0.012 A 
BRANCH   9  12
HETATM   12  O1  UNL     1      27.913   1.577  54.238  1.00  0.00    -0.356 OA
HETATM   13  C1  UNL     1      28.398   0.325  54.727  1.00  0.00     0.210 C 
ENDBRANCH   9  12
ENDBRANCH   1   6
BRANCH   5  14
HETATM   14  C15 UNL     1      22.614   4.228  51.307  1.00  0.00     0.192 A 
HETATM   15  N3  UNL     1      23.428   4.992  51.628  1.00  0.00    -0.198 NA
HETATM   16  C16 UNL     1      23.372   6.306  51.477  1.00  0.00     0.171 A 
HETATM   17  C17 UNL     1      22.096   6.792  50.816  1.00  0.00     0.111 A 
HETATM   18  S1  UNL     1      21.196   5.153  50.537  1.00  0.00    -0.058 SA
BRANCH  16  19
HETATM   19  O2  UNL     1      24.495   6.982  51.954  1.00  0.00    -0.344 OA
HETATM   20  H14 UNL     1      25.367   6.507  52.156  1.00  0.00     0.219 HD
ENDBRANCH  16  19
ENDBRANCH   5  14
BRANCH   3  21
HETATM   21  C9  UNL     1      19.777   0.346  51.953  1.00  0.00    -0.010 A 
HETATM   22  C10 UNL     1      18.692   0.405  51.135  1.00  0.00     0.013 A 
HETATM   23  C11 UNL     1      17.499  -0.260  51.362  1.00  0.00     0.001 A 
HETATM   24  C12 UNL     1      17.420  -1.038  52.506  1.00  0.00     0.000 A 
HETATM   25  C13 UNL     1      18.519  -1.109  53.350  1.00  0.00     0.001 A 
HETATM   26  C14 UNL     1      19.677  -0.436  53.087  1.00  0.00     0.013 A 
ENDBRANCH   3  21
TORSDOF 5
ENDMDL
MODEL 5
REMARK VINA RESULT:      -8.1      2.719      6.433
REMARK  5 active torsions:
REMARK  status: ('A' for Active; 'I' for Inactive)
REMARK    1  A    between atoms: O1_2  and  C2_3 
REMARK    2  A    between atoms: C5_6  and  C6_7 
REMARK    3  A    between atoms: C8_9  and  C9_10 
REMARK    4  A    between atoms: N2_17  and  C15_18 
REMARK    5  A    between atoms: C16_20  and  O2_21 
ROOT
HETATM    1  C6  UNL     1      24.531   1.699  51.107  1.00  0.00     0.151 A 
HETATM    2  C7  UNL     1      26.026   1.519  51.195  1.00  0.00     0.094 A 
HETATM    3  C8  UNL     1      26.194   0.625  52.359  1.00  0.00     0.067 A 
HETATM    4  N1  UNL     1      25.049   0.333  52.878  1.00  0.00    -0.173 NA
HETATM    5  N2  UNL     1      24.020   0.938  52.195  1.00  0.00    -0.236 N 
ENDROOT
BRANCH   1   6
HETATM    6  C5  UNL     1      24.158   3.133  51.187  1.00  0.00    -0.033 A 
HETATM    7  C4  UNL     1      23.846   3.778  52.347  1.00  0.00     0.012 A 
HETATM    8  C3  UNL     1      23.506   5.122  52.306  1.00  0.00     0.037 A 
HETATM    9  C2  UNL     1      23.463   5.865  51.128  1.00  0.00     0.068 A 
HETATM   10  C19 UNL     1      23.778   5.217  49.952  1.00  0.00     0.037 A 
HETATM   11  C18 UNL     1      24.111   3.889  50.011  1.00  0.00     0.012 A 
BRANCH   9  12
HETATM   12  O1  UNL     1      23.118   7.208  51.129  1.00  0.00    -0.356 OA
HETATM   13  C1  UNL     1      23.927   8.129  50.395  1.00  0.00     0.210 C 
ENDBRANCH   9  12
ENDBRANCH   1   6
BRANCH   5  14
HETATM   14  C15 UNL     1      22.662   0.691  52.692  1.00  0.00     0.192 A 
HETATM   15  N3  UNL     1      22.093   0.597  53.701  1.00  0.00    -0.198 NA
HETATM   16  C16 UNL     1      20.798   0.363  53.852  1.00  0.00     0.171 A 
HETATM   17  C17 UNL     1      20.048   0.214  52.542  1.00  0.00     0.111 A 
HETATM   18  S1  UNL     1      21.452   0.458  51.299  1.00  0.00    -0.058 SA
BRANCH  16  19
HETATM   19  O2  UNL     1      20.382   0.300  55.182  1.00  0.00    -0.344 OA
HETATM   20  H14 UNL     1      20.792   0.880  55.904  1.00  0.00     0.219 HD
ENDBRANCH  16  19
ENDBRANCH   5  14
BRANCH   3  21
HETATM   21  C9  UNL     1      27.477   0.128  52.867  1.00  0.00    -0.010 A 
HETATM   22  C10 UNL     1      27.777  -1.198  52.855  1.00  0.00     0.013 A 
HETATM   23  C11 UNL     1      28.964  -1.740  53.317  1.00  0.00     0.001 A 
HETATM   24  C12 UNL     1      29.905  -0.857  53.823  1.00  0.00     0.000 A 
HETATM   25  C13 UNL     1      29.613   0.500  53.842  1.00  0.00     0.001 A 
HETATM   26  C14 UNL     1      28.428   0.990  53.375  1.00  0.00     0.013 A 
ENDBRANCH   3  21
TORSDOF 5
ENDMDL
MODEL 6
REMARK VINA RESULT:      -7.9      4.351      7.332
REMARK  5 active torsions:
REMARK  status: ('A' for Active; 'I' for Inactive)
REMARK    1  A    between atoms: O1_2  and  C2_3 
REMARK    2  A    between atoms: C5_6  and  C6_7 
REMARK    3  A    between atoms: C8_9  and  C9_10 
REMARK    4  A    between atoms: N2_17  and  C15_18 
REMARK    5  A    between atoms: C16_20  and  O2_21 
ROOT
HETATM    1  C6  UNL     1      25.526   3.559  49.467  1.00  0.00     0.151 A 
HETATM    2  C7  UNL     1      26.635   2.661  49.958  1.00  0.00     0.094 A 
HETATM    3  C8  UNL     1      26.261   2.394  51.361  1.00  0.00     0.067 A 
HETATM    4  N1  UNL     1      25.166   3.008  51.666  1.00  0.00    -0.173 NA
HETATM    5  N2  UNL     1      24.678   3.721  50.597  1.00  0.00    -0.236 N 
ENDROOT
BRANCH   1   6
HETATM    6  C5  UNL     1      26.062   4.847  48.964  1.00  0.00    -0.033 A 
HETATM    7  C4  UNL     1      25.290   5.929  48.657  1.00  0.00     0.012 A 
HETATM    8  C3  UNL     1      25.897   7.085  48.188  1.00  0.00     0.037 A 
HETATM    9  C2  UNL     1      27.274   7.208  48.009  1.00  0.00     0.068 A 
HETATM   10  C19 UNL     1      28.059   6.116  48.317  1.00  0.00     0.037 A 
HETATM   11  C18 UNL     1      27.442   4.982  48.779  1.00  0.00     0.012 A 
BRANCH   9  12
HETATM   12  O1  UNL     1      27.842   8.381  47.537  1.00  0.00    -0.356 OA
HETATM   13  C1  UNL     1      28.658   9.155  48.418  1.00  0.00     0.210 C 
ENDBRANCH   9  12
ENDBRANCH   1   6
BRANCH   5  14
HETATM   14  C15 UNL     1      23.437   4.473  50.817  1.00  0.00     0.192 A 
HETATM   15  N3  UNL     1      23.090   5.553  51.069  1.00  0.00    -0.198 NA
HETATM   16  C16 UNL     1      21.838   5.961  51.209  1.00  0.00     0.171 A 
HETATM   17  C17 UNL     1      20.811   4.862  51.010  1.00  0.00     0.111 A 
HETATM   18  S1  UNL     1      21.937   3.388  50.640  1.00  0.00    -0.058 SA
BRANCH  16  19
HETATM   19  O2  UNL     1      21.711   7.317  51.513  1.00  0.00    -0.344 OA
HETATM   20  H14 UNL     1      20.855   7.709  51.886  1.00  0.00     0.219 HD
ENDBRANCH  16  19
ENDBRANCH   5  14
BRANCH   3  21
HETATM   21  C9  UNL     1      27.017   1.551  52.293  1.00  0.00    -0.010 A 
HETATM   22  C10 UNL     1      26.846   0.202  52.325  1.00  0.00     0.013 A 
HETATM   23  C11 UNL     1      27.522  -0.656  53.176  1.00  0.00     0.001 A 
HETATM   24  C12 UNL     1      28.435  -0.087  54.050  1.00  0.00     0.000 A 
HETATM   25  C13 UNL     1      28.620   1.288  54.029  1.00  0.00     0.001 A 
HETATM   26  C14 UNL     1      27.931   2.097  53.172  1.00  0.00     0.013 A 
ENDBRANCH   3  21
TORSDOF 5
ENDMDL
MODEL 7
REMARK VINA RESULT:      -7.8      4.366      8.210
REMARK  5 active torsions:
REMARK  status: ('A' for Active; 'I' for Inactive)
REMARK    1  A    between atoms: O1_2  and  C2_3 
REMARK    2  A    between atoms: C5_6  and  C6_7 
REMARK    3  A    between atoms: C8_9  and  C9_10 
REMARK    4  A    between atoms: N2_17  and  C15_18 
REMARK    5  A    between atoms: C16_20  and  O2_21 
ROOT
HETATM    1  C6  UNL     1      23.264   3.983  50.323  1.00  0.00     0.151 A 
HETATM    2  C7  UNL     1      23.260   2.587  50.896  1.00  0.00     0.094 A 
HETATM    3  C8  UNL     1      24.645   2.413  51.378  1.00  0.00     0.067 A 
HETATM    4  N1  UNL     1      25.348   3.470  51.139  1.00  0.00    -0.173 NA
HETATM    5  N2  UNL     1      24.599   4.437  50.511  1.00  0.00    -0.236 N 
ENDROOT
BRANCH   1   6
HETATM    6  C5  UNL     1      22.857   3.978  48.897  1.00  0.00    -0.033 A 
HETATM    7  C4  UNL     1      22.607   5.104  48.169  1.00  0.00     0.012 A 
HETATM    8  C3  UNL     1      22.226   4.983  46.840  1.00  0.00     0.037 A 
HETATM    9  C2  UNL     1      22.081   3.756  46.194  1.00  0.00     0.068 A 
HETATM   10  C19 UNL     1      22.332   2.614  46.926  1.00  0.00     0.037 A 
HETATM   11  C18 UNL     1      22.707   2.753  48.238  1.00  0.00     0.012 A 
BRANCH   9  12
HETATM   12  O1  UNL     1      21.698   3.678  44.864  1.00  0.00    -0.356 OA
HETATM   13  C1  UNL     1      20.335   3.935  44.523  1.00  0.00     0.210 C 
ENDBRANCH   9  12
ENDBRANCH   1   6
BRANCH   5  14
HETATM   14  C15 UNL     1      25.286   5.689  50.175  1.00  0.00     0.192 A 
HETATM   15  N3  UNL     1      25.275   6.812  50.473  1.00  0.00    -0.198 NA
HETATM   16  C16 UNL     1      26.054   7.762  49.979  1.00  0.00     0.171 A 
HETATM   17  C17 UNL     1      27.029   7.268  48.928  1.00  0.00     0.111 A 
HETATM   18  S1  UNL     1      26.589   5.429  48.873  1.00  0.00    -0.058 SA
BRANCH  16  19
HETATM   19  O2  UNL     1      25.823   9.027  50.521  1.00  0.00    -0.344 OA
HETATM   20  H14 UNL     1      24.936   9.504  50.420  1.00  0.00     0.219 HD
ENDBRANCH  16  19
ENDBRANCH   5  14
BRANCH   3  21
HETATM   21  C9  UNL     1      25.167   1.212  52.039  1.00  0.00    -0.010 A 
HETATM   22  C10 UNL     1      26.430   0.767  51.803  1.00  0.00     0.013 A 
HETATM   23  C11 UNL     1      26.990  -0.356  52.388  1.00  0.00     0.001 A 
HETATM   24  C12 UNL     1      26.196  -1.066  53.276  1.00  0.00     0.000 A 
HETATM   25  C13 UNL     1      24.905  -0.623  53.527  1.00  0.00     0.001 A 
HETATM   26  C14 UNL     1      24.394   0.491  52.927  1.00  0.00     0.013 A 
ENDBRANCH   3  21
TORSDOF 5
ENDMDL
MODEL 8
REMARK VINA RESULT:      -7.6      4.138      8.194
REMARK  5 active torsions:
REMARK  status: ('A' for Active; 'I' for Inactive)
REMARK    1  A    between atoms: O1_2  and  C2_3 
REMARK    2  A    between atoms: C5_6  and  C6_7 
REMARK    3  A    between atoms: C8_9  and  C9_10 
REMARK    4  A    between atoms: N2_17  and  C15_18 
REMARK    5  A    between atoms: C16_20  and  O2_21 
ROOT
HETATM    1  C6  UNL     1      23.533   4.248  50.036  1.00  0.00     0.151 A 
HETATM    2  C7  UNL     1      22.961   3.171  50.924  1.00  0.00     0.094 A 
HETATM    3  C8  UNL     1      24.161   2.485  51.445  1.00  0.00     0.067 A 
HETATM    4  N1  UNL     1      25.235   3.021  50.968  1.00  0.00    -0.173 NA
HETATM    5  N2  UNL     1      24.941   4.064  50.122  1.00  0.00    -0.236 N 
ENDROOT
BRANCH   1   6
HETATM    6  C5  UNL     1      23.024   4.125  48.648  1.00  0.00    -0.033 A 
HETATM    7  C4  UNL     1      22.727   5.187  47.845  1.00  0.00     0.012 A 
HETATM    8  C3  UNL     1      22.251   4.957  46.563  1.00  0.00     0.037 A 
HETATM    9  C2  UNL     1      22.054   3.681  46.037  1.00  0.00     0.068 A 
HETATM   10  C19 UNL     1      22.353   2.603  46.845  1.00  0.00     0.037 A 
HETATM   11  C18 UNL     1      22.822   2.849  48.110  1.00  0.00     0.012 A 
BRANCH   9  12
HETATM   12  O1  UNL     1      21.576   3.493  44.750  1.00  0.00    -0.356 OA
HETATM   13  C1  UNL     1      20.399   4.193  44.342  1.00  0.00     0.210 C 
ENDBRANCH   9  12
ENDBRANCH   1   6
BRANCH   5  14
HETATM   14  C15 UNL     1      26.080   4.753  49.504  1.00  0.00     0.192 A 
HETATM   15  N3  UNL     1      27.117   4.508  49.041  1.00  0.00    -0.198 NA
HETATM   16  C16 UNL     1      27.973   5.381  48.531  1.00  0.00     0.171 A 
HETATM   17  C17 UNL     1      27.490   6.818  48.590  1.00  0.00     0.111 A 
HETATM   18  S1  UNL     1      25.805   6.591  49.418  1.00  0.00    -0.058 SA
BRANCH  16  19
HETATM   19  O2  UNL     1      29.146   4.807  48.041  1.00  0.00    -0.344 OA
HETATM   20  H14 UNL     1      29.187   3.845  47.725  1.00  0.00     0.219 HD
ENDBRANCH  16  19
ENDBRANCH   5  14
BRANCH   3  21
HETATM   21  C9  UNL     1      24.152   1.353  52.377  1.00  0.00    -0.010 A 
HETATM   22  C10 UNL     1      22.988   0.852  52.871  1.00  0.00     0.013 A 
HETATM   23  C11 UNL     1      22.900  -0.212  53.752  1.00  0.00     0.001 A 
HETATM   24  C12 UNL     1      24.091  -0.799  54.151  1.00  0.00     0.000 A 
HETATM   25  C13 UNL     1      25.287  -0.299  53.656  1.00  0.00     0.001 A 
HETATM   26  C14 UNL     1      25.326   0.753  52.787  1.00  0.00     0.013 A 
ENDBRANCH   3  21
TORSDOF 5
ENDMDL
MODEL 9
REMARK VINA RESULT:      -7.5      3.713      7.560
REMARK  5 active torsions:
REMARK  status: ('A' for Active; 'I' for Inactive)
REMARK    1  A    between atoms: O1_2  and  C2_3 
REMARK    2  A    between atoms: C5_6  and  C6_7 
REMARK    3  A    between atoms: C8_9  and  C9_10 
REMARK    4  A    between atoms: N2_17  and  C15_18 
REMARK    5  A    between atoms: C16_20  and  O2_21 
ROOT
HETATM    1  C6  UNL     1      23.742   2.784  52.701  1.00  0.00     0.151 A 
HETATM    2  C7  UNL     1      24.589   1.750  53.402  1.00  0.00     0.094 A 
HETATM    3  C8  UNL     1      25.842   1.749  52.621  1.00  0.00     0.067 A 
HETATM    4  N1  UNL     1      25.771   2.591  51.644  1.00  0.00    -0.173 NA
HETATM    5  N2  UNL     1      24.556   3.235  51.625  1.00  0.00    -0.236 N 
ENDROOT
BRANCH   1   6
HETATM    6  C5  UNL     1      22.457   2.202  52.242  1.00  0.00    -0.033 A 
HETATM    7  C4  UNL     1      21.242   2.797  52.417  1.00  0.00     0.012 A 
HETATM    8  C3  UNL     1      20.101   2.160  51.951  1.00  0.00     0.037 A 
HETATM    9  C2  UNL     1      20.124   0.926  51.303  1.00  0.00     0.068 A 
HETATM   10  C19 UNL     1      21.350   0.321  51.123  1.00  0.00     0.037 A 
HETATM   11  C18 UNL     1      22.467   0.964  51.590  1.00  0.00     0.012 A 
BRANCH   9  12
HETATM   12  O1  UNL     1      18.960   0.323  50.852  1.00  0.00    -0.356 OA
HETATM   13  C1  UNL     1      18.099   1.054  49.977  1.00  0.00     0.210 C 
ENDBRANCH   9  12
ENDBRANCH   1   6
BRANCH   5  14
HETATM   14  C15 UNL     1      24.345   4.215  50.554  1.00  0.00     0.192 A 
HETATM   15  N3  UNL     1      23.478   4.800  50.048  1.00  0.00    -0.198 NA
HETATM   16  C16 UNL     1      23.593   5.667  49.054  1.00  0.00     0.171 A 
HETATM   17  C17 UNL     1      25.019   5.867  48.578  1.00  0.00     0.111 A 
HETATM   18  S1  UNL     1      25.946   4.693  49.736  1.00  0.00    -0.058 SA
BRANCH  16  19
HETATM   19  O2  UNL     1      22.382   6.223  48.641  1.00  0.00    -0.344 OA
HETATM   20  H14 UNL     1      22.141   6.327  47.662  1.00  0.00     0.219 HD
ENDBRANCH  16  19
ENDBRANCH   5  14
BRANCH   3  21
HETATM   21  C9  UNL     1      27.014   0.914  52.902  1.00  0.00    -0.010 A 
HETATM   22  C10 UNL     1      26.970  -0.438  52.758  1.00  0.00     0.013 A 
HETATM   23  C11 UNL     1      28.034  -1.290  53.004  1.00  0.00     0.001 A 
HETATM   24  C12 UNL     1      29.221  -0.710  53.425  1.00  0.00     0.000 A 
HETATM   25  C13 UNL     1      29.280   0.668  53.576  1.00  0.00     0.001 A 
HETATM   26  C14 UNL     1      28.206   1.470  53.321  1.00  0.00     0.013 A 
ENDBRANCH   3  21
TORSDOF 5
ENDMDL
