MODEL 1
REMARK VINA RESULT:      -7.3      0.000      0.000
REMARK  7 active torsions:
REMARK  status: ('A' for Active; 'I' for Inactive)
REMARK    1  A    between atoms: N1_2  and  C3_4 
REMARK    2  A    between atoms: C3_4  and  C4_5 
REMARK    3  A    between atoms: C4_5  and  C5_6 
REMARK    4  A    between atoms: C5_6  and  C6_8 
REMARK    5  A    between atoms: C9_12  and  O3_13 
REMARK    6  A    between atoms: O3_13  and  C10_14 
REMARK    7  A    between atoms: C10_14  and  C11_15 
ROOT
HETATM    1  C6  UNL     1      26.457  -0.167  52.629  1.00  0.00     0.107 A 
HETATM    2  C7  UNL     1      27.695   0.095  53.403  1.00  0.00     0.014 A 
HETATM    3  C8  UNL     1      28.337   1.274  53.298  1.00  0.00     0.142 A 
HETATM    4  O2  UNL     1      27.962   2.348  52.504  1.00  0.00    -0.301 OA
HETATM    5  C9  UNL     1      26.816   2.215  51.734  1.00  0.00     0.182 A 
HETATM    6  C17 UNL     1      26.187   1.057  51.837  1.00  0.00     0.053 A 
ENDROOT
BRANCH   5   7
HETATM    7  O3  UNL     1      26.339   3.208  50.903  1.00  0.00    -0.326 OA
BRANCH   7   8
HETATM    8  C10 UNL     1      26.669   3.184  49.528  1.00  0.00     0.216 C 
BRANCH   8   9
HETATM    9  C11 UNL     1      26.814   4.594  49.071  1.00  0.00    -0.034 A 
HETATM   10  C12 UNL     1      25.861   5.590  49.088  1.00  0.00     0.009 A 
HETATM   11  C13 UNL     1      26.192   6.849  48.617  1.00  0.00     0.001 A 
HETATM   12  C14 UNL     1      27.446   7.148  48.125  1.00  0.00     0.000 A 
HETATM   13  C15 UNL     1      28.424   6.171  48.094  1.00  0.00     0.001 A 
HETATM   14  C16 UNL     1      28.061   4.917  48.575  1.00  0.00     0.009 A 
ENDBRANCH   8   9
ENDBRANCH   7   8
ENDBRANCH   5   7
BRANCH   1  15
HETATM   15  C5  UNL     1      25.298  -0.561  53.455  1.00  0.00     0.140 C 
HETATM   16  O1  UNL     1      25.583  -0.772  54.650  1.00  0.00    -0.297 OA
BRANCH  15  17
HETATM   17  C4  UNL     1      23.842  -0.810  53.384  1.00  0.00     0.098 C 
BRANCH  17  18
HETATM   18  C3  UNL     1      23.121   0.511  53.483  1.00  0.00     0.123 C 
BRANCH  18  19
HETATM   19  N1  UNL     1      21.787   0.377  54.009  1.00  0.00    -0.420 N 
HETATM   20  C1  UNL     1      20.737   0.780  53.137  1.00  0.00     0.142 C 
HETATM   21  C2  UNL     1      21.574  -0.838  54.732  1.00  0.00     0.142 C 
ENDBRANCH  18  19
ENDBRANCH  17  18
ENDBRANCH  15  17
ENDBRANCH   1  15
TORSDOF 7
ENDMDL
MODEL 2
REMARK VINA RESULT:      -7.3      2.362      4.240
REMARK  7 active torsions:
REMARK  status: ('A' for Active; 'I' for Inactive)
REMARK    1  A    between atoms: N1_2  and  C3_4 
REMARK    2  A    between atoms: C3_4  and  C4_5 
REMARK    3  A    between atoms: C4_5  and  C5_6 
REMARK    4  A    between atoms: C5_6  and  C6_8 
REMARK    5  A    between atoms: C9_12  and  O3_13 
REMARK    6  A    between atoms: O3_13  and  C10_14 
REMARK    7  A    between atoms: C10_14  and  C11_15 
ROOT
HETATM    1  C6  UNL     1      24.385   0.463  53.356  1.00  0.00     0.107 A 
HETATM    2  C7  UNL     1      23.058  -0.200  53.331  1.00  0.00     0.014 A 
HETATM    3  C8  UNL     1      22.168   0.074  52.359  1.00  0.00     0.142 A 
HETATM    4  O2  UNL     1      22.346   0.959  51.304  1.00  0.00    -0.301 OA
HETATM    5  C9  UNL     1      23.554   1.637  51.227  1.00  0.00     0.182 A 
HETATM    6  C17 UNL     1      24.426   1.368  52.182  1.00  0.00     0.053 A 
ENDROOT
BRANCH   5   7
HETATM    7  O3  UNL     1      23.854   2.542  50.229  1.00  0.00    -0.326 OA
BRANCH   7   8
HETATM    8  C10 UNL     1      23.995   3.912  50.551  1.00  0.00     0.216 C 
BRANCH   8   9
HETATM    9  C11 UNL     1      25.208   4.421  49.853  1.00  0.00    -0.034 A 
HETATM   10  C12 UNL     1      26.376   3.738  49.583  1.00  0.00     0.009 A 
HETATM   11  C13 UNL     1      27.400   4.389  48.916  1.00  0.00     0.001 A 
HETATM   12  C14 UNL     1      27.297   5.703  48.509  1.00  0.00     0.000 A 
HETATM   13  C15 UNL     1      26.140   6.416  48.764  1.00  0.00     0.001 A 
HETATM   14  C16 UNL     1      25.131   5.733  49.435  1.00  0.00     0.009 A 
ENDBRANCH   8   9
ENDBRANCH   7   8
ENDBRANCH   5   7
BRANCH   1  15
HETATM   15  C5  UNL     1      25.528  -0.471  53.378  1.00  0.00     0.140 C 
HETATM   16  O1  UNL     1      25.579  -1.177  54.404  1.00  0.00    -0.297 OA
BRANCH  15  17
HETATM   17  C4  UNL     1      26.699  -0.903  52.586  1.00  0.00     0.098 C 
BRANCH  17  18
HETATM   18  C3  UNL     1      27.766   0.159  52.682  1.00  0.00     0.123 C 
BRANCH  18  19
HETATM   19  N1  UNL     1      28.863  -0.231  53.528  1.00  0.00    -0.420 N 
HETATM   20  C1  UNL     1      28.789   0.212  54.879  1.00  0.00     0.142 C 
HETATM   21  C2  UNL     1      29.290  -1.581  53.330  1.00  0.00     0.142 C 
ENDBRANCH  18  19
ENDBRANCH  17  18
ENDBRANCH  15  17
ENDBRANCH   1  15
TORSDOF 7
ENDMDL
MODEL 3
REMARK VINA RESULT:      -7.0      2.318      4.036
REMARK  7 active torsions:
REMARK  status: ('A' for Active; 'I' for Inactive)
REMARK    1  A    between atoms: N1_2  and  C3_4 
REMARK    2  A    between atoms: C3_4  and  C4_5 
REMARK    3  A    between atoms: C4_5  and  C5_6 
REMARK    4  A    between atoms: C5_6  and  C6_8 
REMARK    5  A    between atoms: C9_12  and  O3_13 
REMARK    6  A    between atoms: O3_13  and  C10_14 
REMARK    7  A    between atoms: C10_14  and  C11_15 
ROOT
HETATM    1  C6  UNL     1      24.958   1.531  52.571  1.00  0.00     0.107 A 
HETATM    2  C7  UNL     1      23.620   1.093  52.104  1.00  0.00     0.014 A 
HETATM    3  C8  UNL     1      23.057   1.643  51.012  1.00  0.00     0.142 A 
HETATM    4  O2  UNL     1      23.606   2.636  50.213  1.00  0.00    -0.301 OA
HETATM    5  C9  UNL     1      24.859   3.124  50.557  1.00  0.00     0.182 A 
HETATM    6  C17 UNL     1      25.410   2.584  51.629  1.00  0.00     0.053 A 
ENDROOT
BRANCH   5   7
HETATM    7  O3  UNL     1      25.511   4.110  49.845  1.00  0.00    -0.326 OA
BRANCH   7   8
HETATM    8  C10 UNL     1      26.818   3.869  49.361  1.00  0.00     0.216 C 
BRANCH   8   9
HETATM    9  C11 UNL     1      27.301   5.120  48.712  1.00  0.00    -0.034 A 
HETATM   10  C12 UNL     1      28.586   5.423  48.313  1.00  0.00     0.009 A 
HETATM   11  C13 UNL     1      28.836   6.650  47.721  1.00  0.00     0.001 A 
HETATM   12  C14 UNL     1      27.845   7.587  47.515  1.00  0.00     0.000 A 
HETATM   13  C15 UNL     1      26.547   7.314  47.904  1.00  0.00     0.001 A 
HETATM   14  C16 UNL     1      26.327   6.073  48.495  1.00  0.00     0.009 A 
ENDBRANCH   8   9
ENDBRANCH   7   8
ENDBRANCH   5   7
BRANCH   1  15
HETATM   15  C5  UNL     1      25.943   0.439  52.698  1.00  0.00     0.140 C 
HETATM   16  O1  UNL     1      26.616   0.248  51.666  1.00  0.00    -0.297 OA
BRANCH  15  17
HETATM   17  C4  UNL     1      26.456  -0.567  53.652  1.00  0.00     0.098 C 
BRANCH  17  18
HETATM   18  C3  UNL     1      27.182   0.147  54.764  1.00  0.00     0.123 C 
BRANCH  18  19
HETATM   19  N1  UNL     1      28.607   0.188  54.560  1.00  0.00    -0.420 N 
HETATM   20  C1  UNL     1      29.153  -0.888  53.804  1.00  0.00     0.142 C 
HETATM   21  C2  UNL     1      29.107   1.491  54.253  1.00  0.00     0.142 C 
ENDBRANCH  18  19
ENDBRANCH  17  18
ENDBRANCH  15  17
ENDBRANCH   1  15
TORSDOF 7
ENDMDL
MODEL 4
REMARK VINA RESULT:      -7.0      2.111      5.585
REMARK  7 active torsions:
REMARK  status: ('A' for Active; 'I' for Inactive)
REMARK    1  A    between atoms: N1_2  and  C3_4 
REMARK    2  A    between atoms: C3_4  and  C4_5 
REMARK    3  A    between atoms: C4_5  and  C5_6 
REMARK    4  A    between atoms: C5_6  and  C6_8 
REMARK    5  A    between atoms: C9_12  and  O3_13 
REMARK    6  A    between atoms: O3_13  and  C10_14 
REMARK    7  A    between atoms: C10_14  and  C11_15 
ROOT
HETATM    1  C6  UNL     1      24.125   3.145  50.958  1.00  0.00     0.107 A 
HETATM    2  C7  UNL     1      24.567   3.887  49.752  1.00  0.00     0.014 A 
HETATM    3  C8  UNL     1      25.872   3.969  49.433  1.00  0.00     0.142 A 
HETATM    4  O2  UNL     1      26.930   3.411  50.137  1.00  0.00    -0.301 OA
HETATM    5  C9  UNL     1      26.633   2.692  51.287  1.00  0.00     0.182 A 
HETATM    6  C17 UNL     1      25.352   2.612  51.599  1.00  0.00     0.053 A 
ENDROOT
BRANCH   5   7
HETATM    7  O3  UNL     1      27.593   2.089  52.073  1.00  0.00    -0.326 OA
BRANCH   7   8
HETATM    8  C10 UNL     1      27.202   1.418  53.256  1.00  0.00     0.216 C 
BRANCH   8   9
HETATM    9  C11 UNL     1      27.585  -0.015  53.113  1.00  0.00    -0.034 A 
HETATM   10  C12 UNL     1      26.803  -1.058  52.664  1.00  0.00     0.009 A 
HETATM   11  C13 UNL     1      27.346  -2.330  52.601  1.00  0.00     0.001 A 
HETATM   12  C14 UNL     1      28.646  -2.597  52.975  1.00  0.00     0.000 A 
HETATM   13  C15 UNL     1      29.456  -1.574  53.430  1.00  0.00     0.001 A 
HETATM   14  C16 UNL     1      28.883  -0.308  53.481  1.00  0.00     0.009 A 
ENDBRANCH   8   9
ENDBRANCH   7   8
ENDBRANCH   5   7
BRANCH   1  15
HETATM   15  C5  UNL     1      23.135   2.084  50.688  1.00  0.00     0.140 C 
HETATM   16  O1  UNL     1      22.801   2.003  49.489  1.00  0.00    -0.297 OA
BRANCH  15  17
HETATM   17  C4  UNL     1      22.349   1.021  51.351  1.00  0.00     0.098 C 
BRANCH  17  18
HETATM   18  C3  UNL     1      22.041   1.457  52.761  1.00  0.00     0.123 C 
BRANCH  18  19
HETATM   19  N1  UNL     1      20.836   0.858  53.276  1.00  0.00    -0.420 N 
HETATM   20  C1  UNL     1      19.998   0.232  52.310  1.00  0.00     0.142 C 
HETATM   21  C2  UNL     1      21.026   0.147  54.501  1.00  0.00     0.142 C 
ENDBRANCH  18  19
ENDBRANCH  17  18
ENDBRANCH  15  17
ENDBRANCH   1  15
TORSDOF 7
ENDMDL
MODEL 5
REMARK VINA RESULT:      -7.0      3.444      6.360
REMARK  7 active torsions:
REMARK  status: ('A' for Active; 'I' for Inactive)
REMARK    1  A    between atoms: N1_2  and  C3_4 
REMARK    2  A    between atoms: C3_4  and  C4_5 
REMARK    3  A    between atoms: C4_5  and  C5_6 
REMARK    4  A    between atoms: C5_6  and  C6_8 
REMARK    5  A    between atoms: C9_12  and  O3_13 
REMARK    6  A    between atoms: O3_13  and  C10_14 
REMARK    7  A    between atoms: C10_14  and  C11_15 
ROOT
HETATM    1  C6  UNL     1      21.670   0.276  52.636  1.00  0.00     0.107 A 
HETATM    2  C7  UNL     1      20.944  -0.370  53.757  1.00  0.00     0.014 A 
HETATM    3  C8  UNL     1      21.616  -0.988  54.748  1.00  0.00     0.142 A 
HETATM    4  O2  UNL     1      22.993  -1.106  54.861  1.00  0.00    -0.301 OA
HETATM    5  C9  UNL     1      23.775  -0.538  53.865  1.00  0.00     0.182 A 
HETATM    6  C17 UNL     1      23.116   0.067  52.894  1.00  0.00     0.053 A 
ENDROOT
BRANCH   5   7
HETATM    7  O3  UNL     1      25.154  -0.587  53.862  1.00  0.00    -0.326 OA
BRANCH   7   8
HETATM    8  C10 UNL     1      25.870   0.033  52.811  1.00  0.00     0.216 C 
BRANCH   8   9
HETATM    9  C11 UNL     1      27.324  -0.125  53.096  1.00  0.00    -0.034 A 
HETATM   10  C12 UNL     1      28.229   0.858  53.438  1.00  0.00     0.009 A 
HETATM   11  C13 UNL     1      29.549   0.508  53.667  1.00  0.00     0.001 A 
HETATM   12  C14 UNL     1      29.997  -0.792  53.566  1.00  0.00     0.000 A 
HETATM   13  C15 UNL     1      29.115  -1.800  53.225  1.00  0.00     0.001 A 
HETATM   14  C16 UNL     1      27.796  -1.418  53.001  1.00  0.00     0.009 A 
ENDBRANCH   8   9
ENDBRANCH   7   8
ENDBRANCH   5   7
BRANCH   1  15
HETATM   15  C5  UNL     1      21.340   1.701  52.443  1.00  0.00     0.140 C 
HETATM   16  O1  UNL     1      20.283   2.052  53.002  1.00  0.00    -0.297 OA
BRANCH  15  17
HETATM   17  C4  UNL     1      21.830   2.937  51.795  1.00  0.00     0.098 C 
BRANCH  17  18
HETATM   18  C3  UNL     1      21.382   2.938  50.355  1.00  0.00     0.123 C 
BRANCH  18  19
HETATM   19  N1  UNL     1      22.229   2.136  49.510  1.00  0.00    -0.420 N 
HETATM   20  C1  UNL     1      21.565   1.142  48.737  1.00  0.00     0.142 C 
HETATM   21  C2  UNL     1      23.243   2.885  48.836  1.00  0.00     0.142 C 
ENDBRANCH  18  19
ENDBRANCH  17  18
ENDBRANCH  15  17
ENDBRANCH   1  15
TORSDOF 7
ENDMDL
MODEL 6
REMARK VINA RESULT:      -6.9      3.268      7.802
REMARK  7 active torsions:
REMARK  status: ('A' for Active; 'I' for Inactive)
REMARK    1  A    between atoms: N1_2  and  C3_4 
REMARK    2  A    between atoms: C3_4  and  C4_5 
REMARK    3  A    between atoms: C4_5  and  C5_6 
REMARK    4  A    between atoms: C5_6  and  C6_8 
REMARK    5  A    between atoms: C9_12  and  O3_13 
REMARK    6  A    between atoms: O3_13  and  C10_14 
REMARK    7  A    between atoms: C10_14  and  C11_15 
ROOT
HETATM    1  C6  UNL     1      26.094   3.435  49.367  1.00  0.00     0.107 A 
HETATM    2  C7  UNL     1      24.613   3.524  49.375  1.00  0.00     0.014 A 
HETATM    3  C8  UNL     1      23.907   3.169  50.465  1.00  0.00     0.142 A 
HETATM    4  O2  UNL     1      24.424   2.697  51.664  1.00  0.00    -0.301 OA
HETATM    5  C9  UNL     1      25.802   2.572  51.770  1.00  0.00     0.182 A 
HETATM    6  C17 UNL     1      26.493   2.920  50.699  1.00  0.00     0.053 A 
ENDROOT
BRANCH   5   7
HETATM    7  O3  UNL     1      26.437   2.115  52.906  1.00  0.00    -0.326 OA
BRANCH   7   8
HETATM    8  C10 UNL     1      26.211   0.789  53.344  1.00  0.00     0.216 C 
BRANCH   8   9
HETATM    9  C11 UNL     1      27.526   0.090  53.375  1.00  0.00    -0.034 A 
HETATM   10  C12 UNL     1      28.763   0.628  53.665  1.00  0.00     0.009 A 
HETATM   11  C13 UNL     1      29.877  -0.193  53.642  1.00  0.00     0.001 A 
HETATM   12  C14 UNL     1      29.799  -1.536  53.339  1.00  0.00     0.000 A 
HETATM   13  C15 UNL     1      28.575  -2.106  53.043  1.00  0.00     0.001 A 
HETATM   14  C16 UNL     1      27.475  -1.256  53.075  1.00  0.00     0.009 A 
ENDBRANCH   8   9
ENDBRANCH   7   8
ENDBRANCH   5   7
BRANCH   1  15
HETATM   15  C5  UNL     1      26.775   4.701  49.033  1.00  0.00     0.140 C 
HETATM   16  O1  UNL     1      27.996   4.571  48.814  1.00  0.00    -0.297 OA
BRANCH  15  17
HETATM   17  C4  UNL     1      26.530   6.148  48.852  1.00  0.00     0.098 C 
BRANCH  17  18
HETATM   18  C3  UNL     1      27.826   6.811  48.455  1.00  0.00     0.123 C 
BRANCH  18  19
HETATM   19  N1  UNL     1      27.884   8.195  48.850  1.00  0.00    -0.420 N 
HETATM   20  C1  UNL     1      26.975   8.582  49.875  1.00  0.00     0.142 C 
HETATM   21  C2  UNL     1      29.214   8.705  48.962  1.00  0.00     0.142 C 
ENDBRANCH  18  19
ENDBRANCH  17  18
ENDBRANCH  15  17
ENDBRANCH   1  15
TORSDOF 7
ENDMDL
MODEL 7
REMARK VINA RESULT:      -6.8      2.612      6.688
REMARK  7 active torsions:
REMARK  status: ('A' for Active; 'I' for Inactive)
REMARK    1  A    between atoms: N1_2  and  C3_4 
REMARK    2  A    between atoms: C3_4  and  C4_5 
REMARK    3  A    between atoms: C4_5  and  C5_6 
REMARK    4  A    between atoms: C5_6  and  C6_8 
REMARK    5  A    between atoms: C9_12  and  O3_13 
REMARK    6  A    between atoms: O3_13  and  C10_14 
REMARK    7  A    between atoms: C10_14  and  C11_15 
ROOT
HETATM    1  C6  UNL     1      26.325   2.013  51.326  1.00  0.00     0.107 A 
HETATM    2  C7  UNL     1      26.647   3.160  50.441  1.00  0.00     0.014 A 
HETATM    3  C8  UNL     1      25.668   3.917  49.910  1.00  0.00     0.142 A 
HETATM    4  O2  UNL     1      24.304   3.749  50.097  1.00  0.00    -0.301 OA
HETATM    5  C9  UNL     1      23.885   2.704  50.908  1.00  0.00     0.182 A 
HETATM    6  C17 UNL     1      24.846   1.962  51.428  1.00  0.00     0.053 A 
ENDROOT
BRANCH   5   7
HETATM    7  O3  UNL     1      22.558   2.432  51.172  1.00  0.00    -0.326 OA
BRANCH   7   8
HETATM    8  C10 UNL     1      22.072   1.114  51.004  1.00  0.00     0.216 C 
BRANCH   8   9
HETATM    9  C11 UNL     1      21.768   0.567  52.356  1.00  0.00    -0.034 A 
HETATM   10  C12 UNL     1      20.805   0.998  53.245  1.00  0.00     0.009 A 
HETATM   11  C13 UNL     1      20.675   0.353  54.464  1.00  0.00     0.001 A 
HETATM   12  C14 UNL     1      21.476  -0.710  54.826  1.00  0.00     0.000 A 
HETATM   13  C15 UNL     1      22.450  -1.166  53.958  1.00  0.00     0.001 A 
HETATM   14  C16 UNL     1      22.555  -0.498  52.742  1.00  0.00     0.009 A 
ENDBRANCH   8   9
ENDBRANCH   7   8
ENDBRANCH   5   7
BRANCH   1  15
HETATM   15  C5  UNL     1      26.972   2.069  52.651  1.00  0.00     0.140 C 
HETATM   16  O1  UNL     1      26.200   2.399  53.573  1.00  0.00    -0.297 OA
BRANCH  15  17
HETATM   17  C4  UNL     1      28.271   1.866  53.328  1.00  0.00     0.098 C 
BRANCH  17  18
HETATM   18  C3  UNL     1      28.114   0.773  54.356  1.00  0.00     0.123 C 
BRANCH  18  19
HETATM   19  N1  UNL     1      28.582  -0.504  53.883  1.00  0.00    -0.420 N 
HETATM   20  C1  UNL     1      27.690  -1.209  53.027  1.00  0.00     0.142 C 
HETATM   21  C2  UNL     1      29.959  -0.505  53.497  1.00  0.00     0.142 C 
ENDBRANCH  18  19
ENDBRANCH  17  18
ENDBRANCH  15  17
ENDBRANCH   1  15
TORSDOF 7
ENDMDL
MODEL 8
REMARK VINA RESULT:      -6.6      2.197      7.367
REMARK  7 active torsions:
REMARK  status: ('A' for Active; 'I' for Inactive)
REMARK    1  A    between atoms: N1_2  and  C3_4 
REMARK    2  A    between atoms: C3_4  and  C4_5 
REMARK    3  A    between atoms: C4_5  and  C5_6 
REMARK    4  A    between atoms: C5_6  and  C6_8 
REMARK    5  A    between atoms: C9_12  and  O3_13 
REMARK    6  A    between atoms: O3_13  and  C10_14 
REMARK    7  A    between atoms: C10_14  and  C11_15 
ROOT
HETATM    1  C6  UNL     1      25.849   2.035  53.187  1.00  0.00     0.107 A 
HETATM    2  C7  UNL     1      27.027   1.476  53.894  1.00  0.00     0.014 A 
HETATM    3  C8  UNL     1      26.992   0.235  54.417  1.00  0.00     0.142 A 
HETATM    4  O2  UNL     1      25.922  -0.647  54.376  1.00  0.00    -0.301 OA
HETATM    5  C9  UNL     1      24.763  -0.228  53.737  1.00  0.00     0.182 A 
HETATM    6  C17 UNL     1      24.798   0.989  53.225  1.00  0.00     0.053 A 
ENDROOT
BRANCH   5   7
HETATM    7  O3  UNL     1      23.631  -1.009  53.628  1.00  0.00    -0.326 OA
BRANCH   7   8
HETATM    8  C10 UNL     1      22.591  -0.864  54.576  1.00  0.00     0.216 C 
BRANCH   8   9
HETATM    9  C11 UNL     1      21.353  -0.488  53.838  1.00  0.00    -0.034 A 
HETATM   10  C12 UNL     1      21.127   0.650  53.090  1.00  0.00     0.009 A 
HETATM   11  C13 UNL     1      19.899   0.819  52.473  1.00  0.00     0.001 A 
HETATM   12  C14 UNL     1      18.886  -0.111  52.578  1.00  0.00     0.000 A 
HETATM   13  C15 UNL     1      19.080  -1.261  53.320  1.00  0.00     0.001 A 
HETATM   14  C16 UNL     1      20.324  -1.402  53.927  1.00  0.00     0.009 A 
ENDBRANCH   8   9
ENDBRANCH   7   8
ENDBRANCH   5   7
BRANCH   1  15
HETATM   15  C5  UNL     1      26.129   2.491  51.811  1.00  0.00     0.140 C 
HETATM   16  O1  UNL     1      27.343   2.515  51.528  1.00  0.00    -0.297 OA
BRANCH  15  17
HETATM   17  C4  UNL     1      25.464   2.955  50.575  1.00  0.00     0.098 C 
BRANCH  17  18
HETATM   18  C3  UNL     1      26.508   3.532  49.651  1.00  0.00     0.123 C 
BRANCH  18  19
HETATM   19  N1  UNL     1      26.296   4.930  49.380  1.00  0.00    -0.420 N 
HETATM   20  C1  UNL     1      27.282   5.557  48.567  1.00  0.00     0.142 C 
HETATM   21  C2  UNL     1      24.936   5.260  49.088  1.00  0.00     0.142 C 
ENDBRANCH  18  19
ENDBRANCH  17  18
ENDBRANCH  15  17
ENDBRANCH   1  15
TORSDOF 7
ENDMDL
MODEL 9
REMARK VINA RESULT:      -6.6      2.678      6.860
REMARK  7 active torsions:
REMARK  status: ('A' for Active; 'I' for Inactive)
REMARK    1  A    between atoms: N1_2  and  C3_4 
REMARK    2  A    between atoms: C3_4  and  C4_5 
REMARK    3  A    between atoms: C4_5  and  C5_6 
REMARK    4  A    between atoms: C5_6  and  C6_8 
REMARK    5  A    between atoms: C9_12  and  O3_13 
REMARK    6  A    between atoms: O3_13  and  C10_14 
REMARK    7  A    between atoms: C10_14  and  C11_15 
ROOT
HETATM    1  C6  UNL     1      22.581   1.475  50.739  1.00  0.00     0.107 A 
HETATM    2  C7  UNL     1      21.271   1.450  51.435  1.00  0.00     0.014 A 
HETATM    3  C8  UNL     1      21.187   1.103  52.734  1.00  0.00     0.142 A 
HETATM    4  O2  UNL     1      22.242   0.743  53.560  1.00  0.00    -0.301 OA
HETATM    5  C9  UNL     1      23.517   0.731  53.014  1.00  0.00     0.182 A 
HETATM    6  C17 UNL     1      23.598   1.070  51.739  1.00  0.00     0.053 A 
ENDROOT
BRANCH   5   7
HETATM    7  O3  UNL     1      24.647   0.391  53.729  1.00  0.00    -0.326 OA
BRANCH   7   8
HETATM    8  C10 UNL     1      25.900   0.924  53.346  1.00  0.00     0.216 C 
BRANCH   8   9
HETATM    9  C11 UNL     1      26.850  -0.214  53.194  1.00  0.00    -0.034 A 
HETATM   10  C12 UNL     1      26.578  -1.486  52.736  1.00  0.00     0.009 A 
HETATM   11  C13 UNL     1      27.606  -2.411  52.664  1.00  0.00     0.001 A 
HETATM   12  C14 UNL     1      28.899  -2.109  53.037  1.00  0.00     0.000 A 
HETATM   13  C15 UNL     1      29.204  -0.843  53.500  1.00  0.00     0.001 A 
HETATM   14  C16 UNL     1      28.151   0.064  53.560  1.00  0.00     0.009 A 
ENDBRANCH   8   9
ENDBRANCH   7   8
ENDBRANCH   5   7
BRANCH   1  15
HETATM   15  C5  UNL     1      22.907   2.769  50.108  1.00  0.00     0.140 C 
HETATM   16  O1  UNL     1      22.285   3.735  50.594  1.00  0.00    -0.297 OA
BRANCH  15  17
HETATM   17  C4  UNL     1      23.747   3.378  49.055  1.00  0.00     0.098 C 
BRANCH  17  18
HETATM   18  C3  UNL     1      24.760   4.285  49.708  1.00  0.00     0.123 C 
BRANCH  18  19
HETATM   19  N1  UNL     1      26.112   3.822  49.535  1.00  0.00    -0.420 N 
HETATM   20  C1  UNL     1      27.010   4.751  48.936  1.00  0.00     0.142 C 
HETATM   21  C2  UNL     1      26.617   3.089  50.653  1.00  0.00     0.142 C 
ENDBRANCH  18  19
ENDBRANCH  17  18
ENDBRANCH  15  17
ENDBRANCH   1  15
TORSDOF 7
ENDMDL
