MODEL 1
REMARK VINA RESULT:      -7.7      0.000      0.000
REMARK  5 active torsions:
REMARK  status: ('A' for Active; 'I' for Inactive)
REMARK    1  A    between atoms: C2_2  and  O1_3 
REMARK    2  A    between atoms: O1_3  and  C3_4 
REMARK    3  A    between atoms: N3_11  and  C8_12 
REMARK    4  A    between atoms: C9_13  and  C10_14 
REMARK    5  A    between atoms: C16_23  and  O2_24 
ROOT
HETATM    1  C3  UNL     1      26.097  -0.168  53.897  1.00  0.00     0.105 C 
HETATM    2  C4  UNL     1      25.189  -0.900  54.526  1.00  0.00     0.073 C 
HETATM    3  C5  UNL     1      23.807  -0.581  54.114  1.00  0.00     0.088 C 
HETATM    4  N1  UNL     1      22.886  -1.291  54.721  1.00  0.00    -0.240 NA
HETATM    5  C6  UNL     1      21.456  -1.215  54.537  1.00  0.00     0.229 C 
HETATM    6  N2  UNL     1      20.732  -0.241  54.100  1.00  0.00    -0.263 NA
HETATM    7  C7  UNL     1      21.128   1.079  53.658  1.00  0.00     0.280 C 
HETATM    8  N3  UNL     1      22.284   1.089  52.804  1.00  0.00    -0.328 N 
HETATM    9  C14 UNL     1      23.539   0.458  53.100  1.00  0.00     0.079 C 
HETATM   10  C15 UNL     1      24.546   0.875  52.368  1.00  0.00     0.045 C 
HETATM   11  C16 UNL     1      25.757   0.845  52.901  1.00  0.00     0.115 C 
ENDROOT
BRANCH   8  12
HETATM   12  C8  UNL     1      22.275   1.760  51.530  1.00  0.00     0.032 A 
HETATM   13  C9  UNL     1      22.550   3.018  51.207  1.00  0.00     0.070 A 
HETATM   14  C11 UNL     1      22.382   3.154  49.762  1.00  0.00     0.014 A 
HETATM   15  C12 UNL     1      22.012   1.988  49.251  1.00  0.00    -0.020 A 
HETATM   16  C13 UNL     1      21.904   0.965  50.331  1.00  0.00     0.085 A 
BRANCH  13  17
HETATM   17  C10 UNL     1      22.962   4.197  52.000  1.00  0.00     0.419 C 
HETATM   18  F1  UNL     1      21.870   4.978  52.310  1.00  0.00    -0.166 F 
HETATM   19  F2  UNL     1      23.766   4.988  51.185  1.00  0.00    -0.166 F 
HETATM   20  F3  UNL     1      23.724   3.866  53.086  1.00  0.00    -0.166 F 
ENDBRANCH  13  17
ENDBRANCH   8  12
BRANCH  11  21
HETATM   21  O2  UNL     1      26.668   1.801  52.482  1.00  0.00    -0.352 OA
HETATM   22  C17 UNL     1      26.584   2.507  51.282  1.00  0.00     0.210 C 
ENDBRANCH  11  21
BRANCH   1  23
HETATM   23  O1  UNL     1      27.402  -0.406  54.225  1.00  0.00    -0.349 OA
BRANCH  23  24
HETATM   24  C2  UNL     1      28.341  -1.040  53.379  1.00  0.00     0.171 C 
HETATM   25  C1  UNL     1      29.722  -0.511  53.704  1.00  0.00     0.034 C 
ENDBRANCH  23  24
ENDBRANCH   1  23
TORSDOF 5
ENDMDL
MODEL 2
REMARK VINA RESULT:      -7.6      2.738      4.287
REMARK  5 active torsions:
REMARK  status: ('A' for Active; 'I' for Inactive)
REMARK    1  A    between atoms: C2_2  and  O1_3 
REMARK    2  A    between atoms: O1_3  and  C3_4 
REMARK    3  A    between atoms: N3_11  and  C8_12 
REMARK    4  A    between atoms: C9_13  and  C10_14 
REMARK    5  A    between atoms: C16_23  and  O2_24 
ROOT
HETATM    1  C3  UNL     1      26.432   0.372  53.133  1.00  0.00     0.105 C 
HETATM    2  C4  UNL     1      27.119   1.196  52.355  1.00  0.00     0.073 C 
HETATM    3  C5  UNL     1      26.256   2.089  51.556  1.00  0.00     0.088 C 
HETATM    4  N1  UNL     1      26.910   2.916  50.776  1.00  0.00    -0.240 NA
HETATM    5  C6  UNL     1      26.354   3.904  49.881  1.00  0.00     0.229 C 
HETATM    6  N2  UNL     1      25.190   3.952  49.327  1.00  0.00    -0.263 NA
HETATM    7  C7  UNL     1      24.079   3.031  49.432  1.00  0.00     0.280 C 
HETATM    8  N3  UNL     1      23.812   2.581  50.771  1.00  0.00    -0.328 N 
HETATM    9  C14 UNL     1      24.785   2.015  51.663  1.00  0.00     0.079 C 
HETATM   10  C15 UNL     1      24.276   1.363  52.682  1.00  0.00     0.045 C 
HETATM   11  C16 UNL     1      24.972   0.357  53.187  1.00  0.00     0.115 C 
ENDROOT
BRANCH   8  12
HETATM   12  C8  UNL     1      22.497   2.666  51.348  1.00  0.00     0.032 A 
HETATM   13  C9  UNL     1      21.466   1.831  51.293  1.00  0.00     0.070 A 
HETATM   14  C11 UNL     1      20.374   2.418  52.065  1.00  0.00     0.014 A 
HETATM   15  C12 UNL     1      20.765   3.583  52.564  1.00  0.00    -0.020 A 
HETATM   16  C13 UNL     1      22.173   3.868  52.158  1.00  0.00     0.085 A 
BRANCH  13  17
HETATM   17  C10 UNL     1      21.263   0.522  50.635  1.00  0.00     0.419 C 
HETATM   18  F1  UNL     1      21.637   0.581  49.310  1.00  0.00    -0.166 F 
HETATM   19  F2  UNL     1      19.894   0.269  50.624  1.00  0.00    -0.166 F 
HETATM   20  F3  UNL     1      21.839  -0.512  51.321  1.00  0.00    -0.166 F 
ENDBRANCH  13  17
ENDBRANCH   8  12
BRANCH  11  21
HETATM   21  O2  UNL     1      24.268  -0.692  53.757  1.00  0.00    -0.352 OA
HETATM   22  C17 UNL     1      22.955  -0.608  54.220  1.00  0.00     0.210 C 
ENDBRANCH  11  21
BRANCH   1  23
HETATM   23  O1  UNL     1      27.163  -0.486  53.904  1.00  0.00    -0.349 OA
BRANCH  23  24
HETATM   24  C2  UNL     1      28.375  -0.152  54.552  1.00  0.00     0.171 C 
HETATM   25  C1  UNL     1      29.507  -0.900  53.878  1.00  0.00     0.034 C 
ENDBRANCH  23  24
ENDBRANCH   1  23
TORSDOF 5
ENDMDL
MODEL 3
REMARK VINA RESULT:      -7.5      2.079      2.465
REMARK  5 active torsions:
REMARK  status: ('A' for Active; 'I' for Inactive)
REMARK    1  A    between atoms: C2_2  and  O1_3 
REMARK    2  A    between atoms: O1_3  and  C3_4 
REMARK    3  A    between atoms: N3_11  and  C8_12 
REMARK    4  A    between atoms: C9_13  and  C10_14 
REMARK    5  A    between atoms: C16_23  and  O2_24 
ROOT
HETATM    1  C3  UNL     1      26.540  -0.180  53.622  1.00  0.00     0.105 C 
HETATM    2  C4  UNL     1      25.454  -0.767  54.104  1.00  0.00     0.073 C 
HETATM    3  C5  UNL     1      24.204  -0.210  53.549  1.00  0.00     0.088 C 
HETATM    4  N1  UNL     1      23.112  -0.772  54.009  1.00  0.00    -0.240 NA
HETATM    5  C6  UNL     1      21.747  -0.452  53.663  1.00  0.00     0.229 C 
HETATM    6  N2  UNL     1      21.251   0.642  53.191  1.00  0.00    -0.263 NA
HETATM    7  C7  UNL     1      21.909   1.888  52.863  1.00  0.00     0.280 C 
HETATM    8  N3  UNL     1      23.147   1.729  52.151  1.00  0.00    -0.328 N 
HETATM    9  C14 UNL     1      24.237   0.888  52.562  1.00  0.00     0.079 C 
HETATM   10  C15 UNL     1      25.380   1.151  51.974  1.00  0.00     0.045 C 
HETATM   11  C16 UNL     1      26.495   0.903  52.644  1.00  0.00     0.115 C 
ENDROOT
BRANCH   8  12
HETATM   12  C8  UNL     1      23.405   2.427  50.919  1.00  0.00     0.032 A 
HETATM   13  C9  UNL     1      22.877   2.283  49.710  1.00  0.00     0.070 A 
HETATM   14  C11 UNL     1      23.509   3.260  48.827  1.00  0.00     0.014 A 
HETATM   15  C12 UNL     1      24.397   3.964  49.516  1.00  0.00    -0.020 A 
HETATM   16  C13 UNL     1      24.426   3.506  50.935  1.00  0.00     0.085 A 
BRANCH  13  17
HETATM   17  C10 UNL     1      21.845   1.376  49.161  1.00  0.00     0.419 C 
HETATM   18  F1  UNL     1      22.090   1.110  47.831  1.00  0.00    -0.166 F 
HETATM   19  F2  UNL     1      20.633   2.060  49.187  1.00  0.00    -0.166 F 
HETATM   20  F3  UNL     1      21.668   0.253  49.921  1.00  0.00    -0.166 F 
ENDBRANCH  13  17
ENDBRANCH   8  12
BRANCH  11  21
HETATM   21  O2  UNL     1      27.595   1.704  52.381  1.00  0.00    -0.352 OA
HETATM   22  C17 UNL     1      28.284   2.446  53.338  1.00  0.00     0.210 C 
ENDBRANCH  11  21
BRANCH   1  23
HETATM   23  O1  UNL     1      27.738  -0.642  54.089  1.00  0.00    -0.349 OA
BRANCH  23  24
HETATM   24  C2  UNL     1      28.667  -1.386  53.325  1.00  0.00     0.171 C 
HETATM   25  C1  UNL     1      30.046  -0.794  53.526  1.00  0.00     0.034 C 
ENDBRANCH  23  24
ENDBRANCH   1  23
TORSDOF 5
ENDMDL
MODEL 4
REMARK VINA RESULT:      -7.2      2.958      5.760
REMARK  5 active torsions:
REMARK  status: ('A' for Active; 'I' for Inactive)
REMARK    1  A    between atoms: C2_2  and  O1_3 
REMARK    2  A    between atoms: O1_3  and  C3_4 
REMARK    3  A    between atoms: N3_11  and  C8_12 
REMARK    4  A    between atoms: C9_13  and  C10_14 
REMARK    5  A    between atoms: C16_23  and  O2_24 
ROOT
HETATM    1  C3  UNL     1      20.539   0.488  52.671  1.00  0.00     0.105 C 
HETATM    2  C4  UNL     1      20.036   1.652  52.284  1.00  0.00     0.073 C 
HETATM    3  C5  UNL     1      21.069   2.689  52.089  1.00  0.00     0.088 C 
HETATM    4  N1  UNL     1      20.599   3.852  51.707  1.00  0.00    -0.240 NA
HETATM    5  C6  UNL     1      21.350   5.056  51.436  1.00  0.00     0.229 C 
HETATM    6  N2  UNL     1      22.512   5.417  51.865  1.00  0.00    -0.263 NA
HETATM    7  C7  UNL     1      23.424   4.727  52.751  1.00  0.00     0.280 C 
HETATM    8  N3  UNL     1      23.575   3.327  52.464  1.00  0.00    -0.328 N 
HETATM    9  C14 UNL     1      22.496   2.390  52.320  1.00  0.00     0.079 C 
HETATM   10  C15 UNL     1      22.853   1.130  52.408  1.00  0.00     0.045 C 
HETATM   11  C16 UNL     1      21.967   0.264  52.878  1.00  0.00     0.115 C 
ENDROOT
BRANCH   8  12
HETATM   12  C8  UNL     1      24.872   2.727  52.291  1.00  0.00     0.032 A 
HETATM   13  C9  UNL     1      25.685   2.698  51.242  1.00  0.00     0.070 A 
HETATM   14  C11 UNL     1      26.879   1.948  51.623  1.00  0.00     0.014 A 
HETATM   15  C12 UNL     1      26.762   1.544  52.880  1.00  0.00    -0.020 A 
HETATM   16  C13 UNL     1      25.459   2.002  53.447  1.00  0.00     0.085 A 
BRANCH  13  17
HETATM   17  C10 UNL     1      25.586   3.252  49.874  1.00  0.00     0.419 C 
HETATM   18  F1  UNL     1      26.700   2.919  49.134  1.00  0.00    -0.166 F 
HETATM   19  F2  UNL     1      25.612   4.639  49.983  1.00  0.00    -0.166 F 
HETATM   20  F3  UNL     1      24.406   2.937  49.258  1.00  0.00    -0.166 F 
ENDBRANCH  13  17
ENDBRANCH   8  12
BRANCH  11  21
HETATM   21  O2  UNL     1      22.448  -0.839  53.564  1.00  0.00    -0.352 OA
HETATM   22  C17 UNL     1      22.378  -1.007  54.947  1.00  0.00     0.210 C 
ENDBRANCH  11  21
BRANCH   1  23
HETATM   23  O1  UNL     1      19.643  -0.524  52.871  1.00  0.00    -0.349 OA
BRANCH  23  24
HETATM   24  C2  UNL     1      18.306  -0.518  52.411  1.00  0.00     0.171 C 
HETATM   25  C1  UNL     1      17.532  -1.586  53.155  1.00  0.00     0.034 C 
ENDBRANCH  23  24
ENDBRANCH   1  23
TORSDOF 5
ENDMDL
MODEL 5
REMARK VINA RESULT:      -7.1      2.102      3.743
REMARK  5 active torsions:
REMARK  status: ('A' for Active; 'I' for Inactive)
REMARK    1  A    between atoms: C2_2  and  O1_3 
REMARK    2  A    between atoms: O1_3  and  C3_4 
REMARK    3  A    between atoms: N3_11  and  C8_12 
REMARK    4  A    between atoms: C9_13  and  C10_14 
REMARK    5  A    between atoms: C16_23  and  O2_24 
ROOT
HETATM    1  C3  UNL     1      26.541   0.406  53.204  1.00  0.00     0.105 C 
HETATM    2  C4  UNL     1      27.242   1.201  52.409  1.00  0.00     0.073 C 
HETATM    3  C5  UNL     1      26.392   2.052  51.551  1.00  0.00     0.088 C 
HETATM    4  N1  UNL     1      27.060   2.850  50.753  1.00  0.00    -0.240 NA
HETATM    5  C6  UNL     1      26.519   3.794  49.803  1.00  0.00     0.229 C 
HETATM    6  N2  UNL     1      25.369   3.810  49.219  1.00  0.00    -0.263 NA
HETATM    7  C7  UNL     1      24.262   2.885  49.336  1.00  0.00     0.280 C 
HETATM    8  N3  UNL     1      23.966   2.491  50.686  1.00  0.00    -0.328 N 
HETATM    9  C14 UNL     1      24.920   1.971  51.625  1.00  0.00     0.079 C 
HETATM   10  C15 UNL     1      24.390   1.359  52.659  1.00  0.00     0.045 C 
HETATM   11  C16 UNL     1      25.081   0.381  53.223  1.00  0.00     0.115 C 
ENDROOT
BRANCH   8  12
HETATM   12  C8  UNL     1      22.636   2.590  51.227  1.00  0.00     0.032 A 
HETATM   13  C9  UNL     1      22.004   3.605  51.803  1.00  0.00     0.070 A 
HETATM   14  C11 UNL     1      20.663   3.150  52.165  1.00  0.00     0.014 A 
HETATM   15  C12 UNL     1      20.518   1.883  51.802  1.00  0.00    -0.020 A 
HETATM   16  C13 UNL     1      21.769   1.385  51.160  1.00  0.00     0.085 A 
BRANCH  13  17
HETATM   17  C10 UNL     1      22.401   4.997  52.112  1.00  0.00     0.419 C 
HETATM   18  F1  UNL     1      22.706   5.129  53.450  1.00  0.00    -0.166 F 
HETATM   19  F2  UNL     1      21.287   5.804  51.903  1.00  0.00    -0.166 F 
HETATM   20  F3  UNL     1      23.378   5.467  51.279  1.00  0.00    -0.166 F 
ENDBRANCH  13  17
ENDBRANCH   8  12
BRANCH  11  21
HETATM   21  O2  UNL     1      24.370  -0.648  53.820  1.00  0.00    -0.352 OA
HETATM   22  C17 UNL     1      22.981  -0.769  53.799  1.00  0.00     0.210 C 
ENDBRANCH  11  21
BRANCH   1  23
HETATM   23  O1  UNL     1      27.259  -0.413  54.029  1.00  0.00    -0.349 OA
BRANCH  23  24
HETATM   24  C2  UNL     1      28.524  -0.096  54.576  1.00  0.00     0.171 C 
HETATM   25  C1  UNL     1      29.578  -0.925  53.873  1.00  0.00     0.034 C 
ENDBRANCH  23  24
ENDBRANCH   1  23
TORSDOF 5
ENDMDL
MODEL 6
REMARK VINA RESULT:      -6.5      3.468      5.300
REMARK  5 active torsions:
REMARK  status: ('A' for Active; 'I' for Inactive)
REMARK    1  A    between atoms: C2_2  and  O1_3 
REMARK    2  A    between atoms: O1_3  and  C3_4 
REMARK    3  A    between atoms: N3_11  and  C8_12 
REMARK    4  A    between atoms: C9_13  and  C10_14 
REMARK    5  A    between atoms: C16_23  and  O2_24 
ROOT
HETATM    1  C3  UNL     1      26.197   4.699  49.251  1.00  0.00     0.105 C 
HETATM    2  C4  UNL     1      26.770   3.645  49.816  1.00  0.00     0.073 C 
HETATM    3  C5  UNL     1      25.836   2.858  50.647  1.00  0.00     0.088 C 
HETATM    4  N1  UNL     1      26.377   1.809  51.218  1.00  0.00    -0.240 NA
HETATM    5  C6  UNL     1      25.730   0.850  52.083  1.00  0.00     0.229 C 
HETATM    6  N2  UNL     1      24.673   0.978  52.811  1.00  0.00    -0.263 NA
HETATM    7  C7  UNL     1      23.806   2.123  52.986  1.00  0.00     0.280 C 
HETATM    8  N3  UNL     1      23.475   2.802  51.764  1.00  0.00    -0.328 N 
HETATM    9  C14 UNL     1      24.423   3.263  50.789  1.00  0.00     0.079 C 
HETATM   10  C15 UNL     1      23.949   4.145  49.941  1.00  0.00     0.045 C 
HETATM   11  C16 UNL     1      24.788   5.037  49.437  1.00  0.00     0.115 C 
ENDROOT
BRANCH   8  12
HETATM   12  C8  UNL     1      22.110   3.085  51.403  1.00  0.00     0.032 A 
HETATM   13  C9  UNL     1      21.252   2.411  50.647  1.00  0.00     0.070 A 
HETATM   14  C11 UNL     1      19.998   3.160  50.619  1.00  0.00     0.014 A 
HETATM   15  C12 UNL     1      20.126   4.258  51.351  1.00  0.00    -0.020 A 
HETATM   16  C13 UNL     1      21.497   4.329  51.935  1.00  0.00     0.085 A 
BRANCH  13  17
HETATM   17  C10 UNL     1      21.351   1.140  49.896  1.00  0.00     0.419 C 
HETATM   18  F1  UNL     1      21.755   0.117  50.725  1.00  0.00    -0.166 F 
HETATM   19  F2  UNL     1      22.372   1.287  48.961  1.00  0.00    -0.166 F 
HETATM   20  F3  UNL     1      20.218   0.855  49.185  1.00  0.00    -0.166 F 
ENDBRANCH  13  17
ENDBRANCH   8  12
BRANCH  11  21
HETATM   21  O2  UNL     1      24.280   6.282  49.104  1.00  0.00    -0.352 OA
HETATM   22  C17 UNL     1      24.116   7.339  49.999  1.00  0.00     0.210 C 
ENDBRANCH  11  21
BRANCH   1  23
HETATM   23  O1  UNL     1      26.998   5.477  48.465  1.00  0.00    -0.349 OA
BRANCH  23  24
HETATM   24  C2  UNL     1      28.406   5.363  48.388  1.00  0.00     0.171 C 
HETATM   25  C1  UNL     1      28.955   6.590  47.691  1.00  0.00     0.034 C 
ENDBRANCH  23  24
ENDBRANCH   1  23
TORSDOF 5
ENDMDL
MODEL 7
REMARK VINA RESULT:      -6.3      2.572      3.599
REMARK  5 active torsions:
REMARK  status: ('A' for Active; 'I' for Inactive)
REMARK    1  A    between atoms: C2_2  and  O1_3 
REMARK    2  A    between atoms: O1_3  and  C3_4 
REMARK    3  A    between atoms: N3_11  and  C8_12 
REMARK    4  A    between atoms: C9_13  and  C10_14 
REMARK    5  A    between atoms: C16_23  and  O2_24 
ROOT
HETATM    1  C3  UNL     1      25.061   1.200  52.239  1.00  0.00     0.105 C 
HETATM    2  C4  UNL     1      23.939   0.896  52.875  1.00  0.00     0.073 C 
HETATM    3  C5  UNL     1      22.778   1.673  52.398  1.00  0.00     0.088 C 
HETATM    4  N1  UNL     1      21.652   1.392  53.011  1.00  0.00    -0.240 NA
HETATM    5  C6  UNL     1      20.354   1.978  52.773  1.00  0.00     0.229 C 
HETATM    6  N2  UNL     1      20.046   3.120  52.257  1.00  0.00    -0.263 NA
HETATM    7  C7  UNL     1      20.908   4.169  51.757  1.00  0.00     0.280 C 
HETATM    8  N3  UNL     1      21.996   3.699  50.944  1.00  0.00    -0.328 N 
HETATM    9  C14 UNL     1      22.925   2.671  51.320  1.00  0.00     0.079 C 
HETATM   10  C15 UNL     1      24.023   2.639  50.601  1.00  0.00     0.045 C 
HETATM   11  C16 UNL     1      25.132   2.200  51.178  1.00  0.00     0.115 C 
ENDROOT
BRANCH   8  12
HETATM   12  C8  UNL     1      22.251   4.242  49.636  1.00  0.00     0.032 A 
HETATM   13  C9  UNL     1      21.898   3.811  48.431  1.00  0.00     0.070 A 
HETATM   14  C11 UNL     1      22.426   4.754  47.448  1.00  0.00     0.014 A 
HETATM   15  C12 UNL     1      23.079   5.723  48.075  1.00  0.00    -0.020 A 
HETATM   16  C13 UNL     1      23.036   5.500  49.550  1.00  0.00     0.085 A 
BRANCH  13  17
HETATM   17  C10 UNL     1      21.128   2.637  47.964  1.00  0.00     0.419 C 
HETATM   18  F1  UNL     1      21.929   1.516  47.924  1.00  0.00    -0.166 F 
HETATM   19  F2  UNL     1      20.759   2.879  46.644  1.00  0.00    -0.166 F 
HETATM   20  F3  UNL     1      19.966   2.454  48.660  1.00  0.00    -0.166 F 
ENDBRANCH  13  17
ENDBRANCH   8  12
BRANCH  11  21
HETATM   21  O2  UNL     1      26.336   2.725  50.738  1.00  0.00    -0.352 OA
HETATM   22  C17 UNL     1      26.500   3.471  49.572  1.00  0.00     0.210 C 
ENDBRANCH  11  21
BRANCH   1  23
HETATM   23  O1  UNL     1      26.182   0.520  52.626  1.00  0.00    -0.349 OA
BRANCH  23  24
HETATM   24  C2  UNL     1      27.098   0.969  53.605  1.00  0.00     0.171 C 
HETATM   25  C1  UNL     1      26.918   0.136  54.856  1.00  0.00     0.034 C 
ENDBRANCH  23  24
ENDBRANCH   1  23
TORSDOF 5
ENDMDL
MODEL 8
REMARK VINA RESULT:      -6.3      2.651      4.060
REMARK  5 active torsions:
REMARK  status: ('A' for Active; 'I' for Inactive)
REMARK    1  A    between atoms: C2_2  and  O1_3 
REMARK    2  A    between atoms: O1_3  and  C3_4 
REMARK    3  A    between atoms: N3_11  and  C8_12 
REMARK    4  A    between atoms: C9_13  and  C10_14 
REMARK    5  A    between atoms: C16_23  and  O2_24 
ROOT
HETATM    1  C3  UNL     1      22.671   0.003  53.198  1.00  0.00     0.105 C 
HETATM    2  C4  UNL     1      21.362   0.186  53.106  1.00  0.00     0.073 C 
HETATM    3  C5  UNL     1      21.003   1.420  52.378  1.00  0.00     0.088 C 
HETATM    4  N1  UNL     1      19.713   1.627  52.272  1.00  0.00    -0.240 NA
HETATM    5  C6  UNL     1      19.052   2.736  51.623  1.00  0.00     0.229 C 
HETATM    6  N2  UNL     1      19.488   3.924  51.374  1.00  0.00    -0.263 NA
HETATM    7  C7  UNL     1      20.776   4.515  51.667  1.00  0.00     0.280 C 
HETATM    8  N3  UNL     1      21.895   3.662  51.375  1.00  0.00    -0.328 N 
HETATM    9  C14 UNL     1      22.048   2.311  51.836  1.00  0.00     0.079 C 
HETATM   10  C15 UNL     1      23.272   1.841  51.752  1.00  0.00     0.045 C 
HETATM   11  C16 UNL     1      23.649   0.929  52.634  1.00  0.00     0.115 C 
ENDROOT
BRANCH   8  12
HETATM   12  C8  UNL     1      22.995   4.111  50.563  1.00  0.00     0.032 A 
HETATM   13  C9  UNL     1      23.229   3.978  49.263  1.00  0.00     0.070 A 
HETATM   14  C11 UNL     1      24.503   4.630  48.969  1.00  0.00     0.014 A 
HETATM   15  C12 UNL     1      25.005   5.136  50.087  1.00  0.00    -0.020 A 
HETATM   16  C13 UNL     1      24.090   4.858  51.233  1.00  0.00     0.085 A 
BRANCH  13  17
HETATM   17  C10 UNL     1      22.477   3.335  48.163  1.00  0.00     0.419 C 
HETATM   18  F1  UNL     1      23.046   2.125  47.829  1.00  0.00    -0.166 F 
HETATM   19  F2  UNL     1      22.619   4.138  47.035  1.00  0.00    -0.166 F 
HETATM   20  F3  UNL     1      21.135   3.258  48.412  1.00  0.00    -0.166 F 
ENDBRANCH  13  17
ENDBRANCH   8  12
BRANCH  11  21
HETATM   21  O2  UNL     1      24.987   0.895  52.992  1.00  0.00    -0.352 OA
HETATM   22  C17 UNL     1      25.983   0.226  52.281  1.00  0.00     0.210 C 
ENDBRANCH  11  21
BRANCH   1  23
HETATM   23  O1  UNL     1      23.082  -1.121  53.859  1.00  0.00    -0.349 OA
BRANCH  23  24
HETATM   24  C2  UNL     1      23.057  -1.282  55.264  1.00  0.00     0.171 C 
HETATM   25  C1  UNL     1      24.477  -1.223  55.785  1.00  0.00     0.034 C 
ENDBRANCH  23  24
ENDBRANCH   1  23
TORSDOF 5
ENDMDL
MODEL 9
REMARK VINA RESULT:      -6.1      3.404      5.381
REMARK  5 active torsions:
REMARK  status: ('A' for Active; 'I' for Inactive)
REMARK    1  A    between atoms: C2_2  and  O1_3 
REMARK    2  A    between atoms: O1_3  and  C3_4 
REMARK    3  A    between atoms: N3_11  and  C8_12 
REMARK    4  A    between atoms: C9_13  and  C10_14 
REMARK    5  A    between atoms: C16_23  and  O2_24 
ROOT
HETATM    1  C3  UNL     1      25.993   5.230  48.957  1.00  0.00     0.105 C 
HETATM    2  C4  UNL     1      26.781   4.363  49.577  1.00  0.00     0.073 C 
HETATM    3  C5  UNL     1      26.032   3.282  50.248  1.00  0.00     0.088 C 
HETATM    4  N1  UNL     1      26.787   2.409  50.871  1.00  0.00    -0.240 NA
HETATM    5  C6  UNL     1      26.357   1.248  51.614  1.00  0.00     0.229 C 
HETATM    6  N2  UNL     1      25.225   1.006  52.183  1.00  0.00    -0.263 NA
HETATM    7  C7  UNL     1      24.033   1.825  52.254  1.00  0.00     0.280 C 
HETATM    8  N3  UNL     1      23.675   2.449  51.010  1.00  0.00    -0.328 N 
HETATM    9  C14 UNL     1      24.557   3.234  50.193  1.00  0.00     0.079 C 
HETATM   10  C15 UNL     1      23.952   3.985  49.302  1.00  0.00     0.045 C 
HETATM   11  C16 UNL     1      24.536   5.118  48.943  1.00  0.00     0.115 C 
ENDROOT
BRANCH   8  12
HETATM   12  C8  UNL     1      22.350   2.332  50.460  1.00  0.00     0.032 A 
HETATM   13  C9  UNL     1      21.244   3.027  50.698  1.00  0.00     0.070 A 
HETATM   14  C11 UNL     1      20.182   2.479  49.858  1.00  0.00     0.014 A 
HETATM   15  C12 UNL     1      20.666   1.475  49.139  1.00  0.00    -0.020 A 
HETATM   16  C13 UNL     1      22.111   1.272  49.447  1.00  0.00     0.085 A 
BRANCH  13  17
HETATM   17  C10 UNL     1      20.941   4.163  51.596  1.00  0.00     0.419 C 
HETATM   18  F1  UNL     1      19.602   4.179  51.923  1.00  0.00    -0.166 F 
HETATM   19  F2  UNL     1      21.161   5.334  50.876  1.00  0.00    -0.166 F 
HETATM   20  F3  UNL     1      21.770   4.218  52.682  1.00  0.00    -0.166 F 
ENDBRANCH  13  17
ENDBRANCH   8  12
BRANCH  11  21
HETATM   21  O2  UNL     1      23.720   6.171  48.565  1.00  0.00    -0.352 OA
HETATM   22  C17 UNL     1      23.376   7.244  49.385  1.00  0.00     0.210 C 
ENDBRANCH  11  21
BRANCH   1  23
HETATM   23  O1  UNL     1      26.614   6.261  48.311  1.00  0.00    -0.349 OA
BRANCH  23  24
HETATM   24  C2  UNL     1      27.145   7.406  48.948  1.00  0.00     0.171 C 
HETATM   25  C1  UNL     1      28.493   7.721  48.335  1.00  0.00     0.034 C 
ENDBRANCH  23  24
ENDBRANCH   1  23
TORSDOF 5
ENDMDL
