MODEL 1
REMARK VINA RESULT:      -9.1      0.000      0.000
REMARK  2 active torsions:
REMARK  status: ('A' for Active; 'I' for Inactive)
REMARK    1  A    between atoms: C3_4  and  C4_5 
REMARK    2  A    between atoms: C9_12  and  N4_13 
ROOT
HETATM    1  C4  UNL     1      24.995   3.374  50.265  1.00  0.00    -0.022 A 
HETATM    2  C5  UNL     1      23.619   3.306  50.021  1.00  0.00     0.014 A 
HETATM    3  C6  UNL     1      22.816   2.385  50.650  1.00  0.00     0.033 A 
HETATM    4  C7  UNL     1      23.333   1.475  51.562  1.00  0.00     0.072 A 
HETATM    5  N2  UNL     1      22.626   0.556  52.215  1.00  0.00    -0.241 NA
HETATM    6  C8  UNL     1      23.229  -0.275  53.083  1.00  0.00     0.236 A 
HETATM    7  N3  UNL     1      24.572  -0.191  53.305  1.00  0.00    -0.223 NA
HETATM    8  C9  UNL     1      25.336   0.737  52.654  1.00  0.00     0.143 A 
HETATM    9  C15 UNL     1      24.690   1.576  51.771  1.00  0.00     0.040 A 
HETATM   10  C16 UNL     1      25.515   2.473  51.170  1.00  0.00     0.030 A 
ENDROOT
BRANCH   8  11
HETATM   11  N4  UNL     1      26.699   0.629  53.018  1.00  0.00    -0.336 N 
HETATM   12  C10 UNL     1      27.100  -0.754  52.901  1.00  0.00     0.120 A 
HETATM   13  C11 UNL     1      28.303  -1.238  53.172  1.00  0.00     0.087 A 
HETATM   14 CL1  UNL     1      28.821  -2.927  53.039  1.00  0.00    -0.080 Cl
HETATM   15  C12 UNL     1      29.362  -0.319  53.632  1.00  0.00     0.137 A 
HETATM   16  F1  UNL     1      30.617  -0.688  53.937  1.00  0.00    -0.205 F 
HETATM   17  C13 UNL     1      28.994   0.934  53.730  1.00  0.00     0.037 A 
HETATM   18  C14 UNL     1      27.685   1.574  53.453  1.00  0.00     0.160 A 
ENDBRANCH   8  11
BRANCH   1  19
HETATM   19  C3  UNL     1      25.734   4.397  49.532  1.00  0.00     0.010 A 
HETATM   20  C2  UNL     1      27.083   4.290  49.251  1.00  0.00     0.125 A 
HETATM   21  N1  UNL     1      27.474   5.380  48.570  1.00  0.00    -0.285 N 
HETATM   22  C1  UNL     1      28.813   5.652  48.088  1.00  0.00     0.179 C 
HETATM   23  N5  UNL     1      26.426   6.180  48.405  1.00  0.00    -0.185 NA
HETATM   24  C17 UNL     1      25.338   5.615  48.980  1.00  0.00     0.152 A 
ENDBRANCH   1  19
TORSDOF 2
ENDMDL
MODEL 2
REMARK VINA RESULT:      -8.9      3.645      6.425
REMARK  2 active torsions:
REMARK  status: ('A' for Active; 'I' for Inactive)
REMARK    1  A    between atoms: C3_4  and  C4_5 
REMARK    2  A    between atoms: C9_12  and  N4_13 
ROOT
HETATM    1  C4  UNL     1      25.039   0.381  53.043  1.00  0.00    -0.022 A 
HETATM    2  C5  UNL     1      23.969  -0.444  53.402  1.00  0.00     0.014 A 
HETATM    3  C6  UNL     1      22.708  -0.261  52.888  1.00  0.00     0.033 A 
HETATM    4  C7  UNL     1      22.435   0.756  51.983  1.00  0.00     0.072 A 
HETATM    5  N2  UNL     1      21.247   0.999  51.436  1.00  0.00    -0.241 NA
HETATM    6  C8  UNL     1      21.093   2.011  50.564  1.00  0.00     0.236 A 
HETATM    7  N3  UNL     1      22.151   2.803  50.229  1.00  0.00    -0.223 NA
HETATM    8  C9  UNL     1      23.389   2.589  50.769  1.00  0.00     0.143 A 
HETATM    9  C15 UNL     1      23.516   1.545  51.658  1.00  0.00     0.040 A 
HETATM   10  C16 UNL     1      24.775   1.394  52.145  1.00  0.00     0.030 A 
ENDROOT
BRANCH   8  11
HETATM   11  N4  UNL     1      24.327   3.541  50.300  1.00  0.00    -0.336 N 
HETATM   12  C10 UNL     1      23.912   4.853  50.740  1.00  0.00     0.120 A 
HETATM   13  C11 UNL     1      24.538   5.991  50.480  1.00  0.00     0.087 A 
HETATM   14 CL1  UNL     1      24.053   7.612  51.006  1.00  0.00    -0.080 Cl
HETATM   15  C12 UNL     1      25.775   5.966  49.676  1.00  0.00     0.137 A 
HETATM   16  F1  UNL     1      26.497   7.049  49.346  1.00  0.00    -0.205 F 
HETATM   17  C13 UNL     1      26.148   4.773  49.284  1.00  0.00     0.037 A 
HETATM   18  C14 UNL     1      25.525   3.447  49.521  1.00  0.00     0.160 A 
ENDBRANCH   8  11
BRANCH   1  19
HETATM   19  C3  UNL     1      26.327   0.080  53.662  1.00  0.00     0.010 A 
HETATM   20  C2  UNL     1      27.402  -0.415  52.950  1.00  0.00     0.125 A 
HETATM   21  N1  UNL     1      28.438  -0.589  53.789  1.00  0.00    -0.285 N 
HETATM   22  C1  UNL     1      29.750  -1.091  53.435  1.00  0.00     0.179 C 
HETATM   23  N5  UNL     1      28.063  -0.223  55.010  1.00  0.00    -0.185 NA
HETATM   24  C17 UNL     1      26.776   0.194  54.977  1.00  0.00     0.152 A 
ENDBRANCH   1  19
TORSDOF 2
ENDMDL
MODEL 3
REMARK VINA RESULT:      -8.7      4.051      6.819
REMARK  2 active torsions:
REMARK  status: ('A' for Active; 'I' for Inactive)
REMARK    1  A    between atoms: C3_4  and  C4_5 
REMARK    2  A    between atoms: C9_12  and  N4_13 
ROOT
HETATM    1  C4  UNL     1      25.927   0.858  52.141  1.00  0.00    -0.022 A 
HETATM    2  C5  UNL     1      26.543   1.929  51.487  1.00  0.00     0.014 A 
HETATM    3  C6  UNL     1      25.828   3.014  51.040  1.00  0.00     0.033 A 
HETATM    4  C7  UNL     1      24.454   3.100  51.219  1.00  0.00     0.072 A 
HETATM    5  N2  UNL     1      23.689   4.115  50.823  1.00  0.00    -0.241 NA
HETATM    6  C8  UNL     1      22.365   4.098  51.052  1.00  0.00     0.236 A 
HETATM    7  N3  UNL     1      21.785   3.043  51.692  1.00  0.00    -0.223 NA
HETATM    8  C9  UNL     1      22.533   1.979  52.115  1.00  0.00     0.143 A 
HETATM    9  C15 UNL     1      23.888   2.025  51.867  1.00  0.00     0.040 A 
HETATM   10  C16 UNL     1      24.562   0.936  52.322  1.00  0.00     0.030 A 
ENDROOT
BRANCH   8  11
HETATM   11  N4  UNL     1      21.725   0.993  52.730  1.00  0.00    -0.336 N 
HETATM   12  C10 UNL     1      20.521   0.830  51.949  1.00  0.00     0.120 A 
HETATM   13  C11 UNL     1      19.524   0.003  52.225  1.00  0.00     0.087 A 
HETATM   14 CL1  UNL     1      18.038  -0.218  51.286  1.00  0.00    -0.080 Cl
HETATM   15  C12 UNL     1      19.609  -0.852  53.425  1.00  0.00     0.137 A 
HETATM   16  F1  UNL     1      18.666  -1.727  53.811  1.00  0.00    -0.205 F 
HETATM   17  C13 UNL     1      20.705  -0.703  54.127  1.00  0.00     0.037 A 
HETATM   18  C14 UNL     1      21.871   0.187  53.905  1.00  0.00     0.160 A 
ENDBRANCH   8  11
BRANCH   1  19
HETATM   19  C3  UNL     1      26.799  -0.233  52.564  1.00  0.00     0.010 A 
HETATM   20  C2  UNL     1      28.085  -0.028  53.025  1.00  0.00     0.125 A 
HETATM   21  N1  UNL     1      28.632  -1.217  53.335  1.00  0.00    -0.285 N 
HETATM   22  C1  UNL     1      29.967  -1.434  53.853  1.00  0.00     0.179 C 
HETATM   23  N5  UNL     1      27.742  -2.173  53.090  1.00  0.00    -0.185 NA
HETATM   24  C17 UNL     1      26.604  -1.613  52.616  1.00  0.00     0.152 A 
ENDBRANCH   1  19
TORSDOF 2
ENDMDL
MODEL 4
REMARK VINA RESULT:      -8.5      4.189      6.701
REMARK  2 active torsions:
REMARK  status: ('A' for Active; 'I' for Inactive)
REMARK    1  A    between atoms: C3_4  and  C4_5 
REMARK    2  A    between atoms: C9_12  and  N4_13 
ROOT
HETATM    1  C4  UNL     1      24.184  -0.320  53.979  1.00  0.00    -0.022 A 
HETATM    2  C5  UNL     1      23.443  -1.265  54.696  1.00  0.00     0.014 A 
HETATM    3  C6  UNL     1      22.078  -1.364  54.569  1.00  0.00     0.033 A 
HETATM    4  C7  UNL     1      21.367  -0.529  53.718  1.00  0.00     0.072 A 
HETATM    5  N2  UNL     1      20.049  -0.561  53.534  1.00  0.00    -0.241 NA
HETATM    6  C8  UNL     1      19.461   0.294  52.680  1.00  0.00     0.236 A 
HETATM    7  N3  UNL     1      20.203   1.207  51.992  1.00  0.00    -0.223 NA
HETATM    8  C9  UNL     1      21.559   1.276  52.152  1.00  0.00     0.143 A 
HETATM    9  C15 UNL     1      22.134   0.386  53.033  1.00  0.00     0.040 A 
HETATM   10  C16 UNL     1      23.484   0.513  53.133  1.00  0.00     0.030 A 
ENDROOT
BRANCH   8  11
HETATM   11  N4  UNL     1      22.120   2.308  51.362  1.00  0.00    -0.336 N 
HETATM   12  C10 UNL     1      22.146   1.872  49.984  1.00  0.00     0.120 A 
HETATM   13  C11 UNL     1      22.613   2.569  48.960  1.00  0.00     0.087 A 
HETATM   14 CL1  UNL     1      22.658   2.060  47.263  1.00  0.00    -0.080 Cl
HETATM   15  C12 UNL     1      23.163   3.918  49.197  1.00  0.00     0.137 A 
HETATM   16  F1  UNL     1      23.666   4.720  48.244  1.00  0.00    -0.205 F 
HETATM   17  C13 UNL     1      23.133   4.309  50.447  1.00  0.00     0.037 A 
HETATM   18  C14 UNL     1      22.634   3.612  51.658  1.00  0.00     0.160 A 
ENDBRANCH   8  11
BRANCH   1  19
HETATM   19  C3  UNL     1      25.626  -0.319  54.205  1.00  0.00     0.010 A 
HETATM   20  C2  UNL     1      26.524  -0.880  53.318  1.00  0.00     0.125 A 
HETATM   21  N1  UNL     1      27.769  -0.722  53.800  1.00  0.00    -0.285 N 
HETATM   22  C1  UNL     1      28.993  -1.171  53.168  1.00  0.00     0.179 C 
HETATM   23  N5  UNL     1      27.699  -0.081  54.961  1.00  0.00    -0.185 NA
HETATM   24  C17 UNL     1      26.403   0.185  55.248  1.00  0.00     0.152 A 
ENDBRANCH   1  19
TORSDOF 2
ENDMDL
MODEL 5
REMARK VINA RESULT:      -8.4      3.471      6.892
REMARK  2 active torsions:
REMARK  status: ('A' for Active; 'I' for Inactive)
REMARK    1  A    between atoms: C3_4  and  C4_5 
REMARK    2  A    between atoms: C9_12  and  N4_13 
ROOT
HETATM    1  C4  UNL     1      22.812   0.127  53.115  1.00  0.00    -0.022 A 
HETATM    2  C5  UNL     1      23.412  -0.771  54.003  1.00  0.00     0.014 A 
HETATM    3  C6  UNL     1      24.758  -0.730  54.278  1.00  0.00     0.033 A 
HETATM    4  C7  UNL     1      25.589   0.210  53.685  1.00  0.00     0.072 A 
HETATM    5  N2  UNL     1      26.898   0.322  53.899  1.00  0.00    -0.241 NA
HETATM    6  C8  UNL     1      27.611   1.275  53.273  1.00  0.00     0.236 A 
HETATM    7  N3  UNL     1      27.004   2.140  52.411  1.00  0.00    -0.223 NA
HETATM    8  C9  UNL     1      25.662   2.060  52.162  1.00  0.00     0.143 A 
HETATM    9  C15 UNL     1      24.958   1.074  52.818  1.00  0.00     0.040 A 
HETATM   10  C16 UNL     1      23.632   1.063  52.522  1.00  0.00     0.030 A 
ENDROOT
BRANCH   8  11
HETATM   11  N4  UNL     1      25.254   3.036  51.222  1.00  0.00    -0.336 N 
HETATM   12  C10 UNL     1      26.405   3.441  50.447  1.00  0.00     0.120 A 
HETATM   13  C11 UNL     1      26.409   4.347  49.481  1.00  0.00     0.087 A 
HETATM   14 CL1  UNL     1      27.803   4.862  48.516  1.00  0.00    -0.080 Cl
HETATM   15  C12 UNL     1      25.148   5.028  49.127  1.00  0.00     0.137 A 
HETATM   16  F1  UNL     1      25.024   5.963  48.170  1.00  0.00    -0.205 F 
HETATM   17  C13 UNL     1      24.108   4.654  49.829  1.00  0.00     0.037 A 
HETATM   18  C14 UNL     1      23.998   3.656  50.921  1.00  0.00     0.160 A 
ENDBRANCH   8  11
BRANCH   1  19
HETATM   19  C3  UNL     1      21.374  -0.025  52.910  1.00  0.00     0.010 A 
HETATM   20  C2  UNL     1      20.738   0.362  51.747  1.00  0.00     0.125 A 
HETATM   21  N1  UNL     1      19.425   0.097  51.859  1.00  0.00    -0.285 N 
HETATM   22  C1  UNL     1      18.413   0.354  50.854  1.00  0.00     0.179 C 
HETATM   23  N5  UNL     1      19.200  -0.445  53.050  1.00  0.00    -0.185 NA
HETATM   24  C17 UNL     1      20.368  -0.538  53.728  1.00  0.00     0.152 A 
ENDBRANCH   1  19
TORSDOF 2
ENDMDL
MODEL 6
REMARK VINA RESULT:      -8.4      1.509      2.180
REMARK  2 active torsions:
REMARK  status: ('A' for Active; 'I' for Inactive)
REMARK    1  A    between atoms: C3_4  and  C4_5 
REMARK    2  A    between atoms: C9_12  and  N4_13 
ROOT
HETATM    1  C4  UNL     1      23.439   2.480  50.980  1.00  0.00    -0.022 A 
HETATM    2  C5  UNL     1      22.093   2.103  51.044  1.00  0.00     0.014 A 
HETATM    3  C6  UNL     1      21.656   1.117  51.896  1.00  0.00     0.033 A 
HETATM    4  C7  UNL     1      22.532   0.446  52.739  1.00  0.00     0.072 A 
HETATM    5  N2  UNL     1      22.191  -0.514  53.594  1.00  0.00    -0.241 NA
HETATM    6  C8  UNL     1      23.123  -1.096  54.369  1.00  0.00     0.236 A 
HETATM    7  N3  UNL     1      24.429  -0.712  54.291  1.00  0.00    -0.223 NA
HETATM    8  C9  UNL     1      24.822   0.269  53.424  1.00  0.00     0.143 A 
HETATM    9  C15 UNL     1      23.846   0.848  52.643  1.00  0.00     0.040 A 
HETATM   10  C16 UNL     1      24.314   1.817  51.814  1.00  0.00     0.030 A 
ENDROOT
BRANCH   8  11
HETATM   11  N4  UNL     1      26.219   0.487  53.493  1.00  0.00    -0.336 N 
HETATM   12  C10 UNL     1      26.894  -0.775  53.292  1.00  0.00     0.120 A 
HETATM   13  C11 UNL     1      28.205  -0.963  53.302  1.00  0.00     0.087 A 
HETATM   14 CL1  UNL     1      29.058  -2.497  53.060  1.00  0.00    -0.080 Cl
HETATM   15  C12 UNL     1      29.097   0.190  53.531  1.00  0.00     0.137 A 
HETATM   16  F1  UNL     1      30.438   0.128  53.565  1.00  0.00    -0.205 F 
HETATM   17  C13 UNL     1      28.480   1.332  53.707  1.00  0.00     0.037 A 
HETATM   18  C14 UNL     1      27.030   1.648  53.713  1.00  0.00     0.160 A 
ENDBRANCH   8  11
BRANCH   1  19
HETATM   19  C3  UNL     1      23.772   3.539  50.033  1.00  0.00     0.010 A 
HETATM   20  C2  UNL     1      22.842   4.100  49.179  1.00  0.00     0.125 A 
HETATM   21  N1  UNL     1      23.447   5.042  48.435  1.00  0.00    -0.285 N 
HETATM   22  C1  UNL     1      22.818   5.862  47.420  1.00  0.00     0.179 C 
HETATM   23  N5  UNL     1      24.728   5.104  48.783  1.00  0.00    -0.185 NA
HETATM   24  C17 UNL     1      24.970   4.199  49.760  1.00  0.00     0.152 A 
ENDBRANCH   1  19
TORSDOF 2
ENDMDL
MODEL 7
REMARK VINA RESULT:      -8.4      4.826      7.099
REMARK  2 active torsions:
REMARK  status: ('A' for Active; 'I' for Inactive)
REMARK    1  A    between atoms: C3_4  and  C4_5 
REMARK    2  A    between atoms: C9_12  and  N4_13 
ROOT
HETATM    1  C4  UNL     1      23.823  -0.185  53.242  1.00  0.00    -0.022 A 
HETATM    2  C5  UNL     1      23.266  -0.859  54.334  1.00  0.00     0.014 A 
HETATM    3  C6  UNL     1      21.911  -1.049  54.454  1.00  0.00     0.033 A 
HETATM    4  C7  UNL     1      21.025  -0.581  53.494  1.00  0.00     0.072 A 
HETATM    5  N2  UNL     1      19.703  -0.727  53.532  1.00  0.00    -0.241 NA
HETATM    6  C8  UNL     1      18.936  -0.236  52.543  1.00  0.00     0.236 A 
HETATM    7  N3  UNL     1      19.500   0.418  51.487  1.00  0.00    -0.223 NA
HETATM    8  C9  UNL     1      20.854   0.591  51.409  1.00  0.00     0.143 A 
HETATM    9  C15 UNL     1      21.614   0.077  52.437  1.00  0.00     0.040 A 
HETATM   10  C16 UNL     1      22.948   0.284  52.284  1.00  0.00     0.030 A 
ENDROOT
BRANCH   8  11
HETATM   11  N4  UNL     1      21.215   1.314  50.247  1.00  0.00    -0.336 N 
HETATM   12  C10 UNL     1      21.177   2.726  50.552  1.00  0.00     0.120 A 
HETATM   13  C11 UNL     1      21.443   3.709  49.706  1.00  0.00     0.087 A 
HETATM   14 CL1  UNL     1      21.404   5.447  50.052  1.00  0.00    -0.080 Cl
HETATM   15  C12 UNL     1      21.820   3.382  48.317  1.00  0.00     0.137 A 
HETATM   16  F1  UNL     1      22.112   4.286  47.367  1.00  0.00    -0.205 F 
HETATM   17  C13 UNL     1      21.858   2.100  48.048  1.00  0.00     0.037 A 
HETATM   18  C14 UNL     1      21.581   0.930  48.917  1.00  0.00     0.160 A 
ENDBRANCH   8  11
BRANCH   1  19
HETATM   19  C3  UNL     1      25.276  -0.049  53.235  1.00  0.00     0.010 A 
HETATM   20  C2  UNL     1      26.033  -0.037  54.390  1.00  0.00     0.125 A 
HETATM   21  N1  UNL     1      27.329   0.100  54.061  1.00  0.00    -0.285 N 
HETATM   22  C1  UNL     1      28.444   0.157  54.984  1.00  0.00     0.179 C 
HETATM   23  N5  UNL     1      27.427   0.176  52.738  1.00  0.00    -0.185 NA
HETATM   24  C17 UNL     1      26.192   0.088  52.192  1.00  0.00     0.152 A 
ENDBRANCH   1  19
TORSDOF 2
ENDMDL
MODEL 8
REMARK VINA RESULT:      -8.1      4.559      6.673
REMARK  2 active torsions:
REMARK  status: ('A' for Active; 'I' for Inactive)
REMARK    1  A    between atoms: C3_4  and  C4_5 
REMARK    2  A    between atoms: C9_12  and  N4_13 
ROOT
HETATM    1  C4  UNL     1      24.544   1.331  52.229  1.00  0.00    -0.022 A 
HETATM    2  C5  UNL     1      25.270   0.408  52.989  1.00  0.00     0.014 A 
HETATM    3  C6  UNL     1      24.649  -0.513  53.798  1.00  0.00     0.033 A 
HETATM    4  C7  UNL     1      23.266  -0.572  53.900  1.00  0.00     0.072 A 
HETATM    5  N2  UNL     1      22.587  -1.433  54.655  1.00  0.00    -0.241 NA
HETATM    6  C8  UNL     1      21.243  -1.406  54.676  1.00  0.00     0.236 A 
HETATM    7  N3  UNL     1      20.556  -0.497  53.927  1.00  0.00    -0.223 NA
HETATM    8  C9  UNL     1      21.214   0.406  53.139  1.00  0.00     0.143 A 
HETATM    9  C15 UNL     1      22.591   0.354  53.137  1.00  0.00     0.040 A 
HETATM   10  C16 UNL     1      23.170   1.278  52.326  1.00  0.00     0.030 A 
ENDROOT
BRANCH   8  11
HETATM   11  N4  UNL     1      20.307   1.264  52.472  1.00  0.00    -0.336 N 
HETATM   12  C10 UNL     1      19.404   0.459  51.682  1.00  0.00     0.120 A 
HETATM   13  C11 UNL     1      18.428   0.917  50.913  1.00  0.00     0.087 A 
HETATM   14 CL1  UNL     1      17.308  -0.047  49.935  1.00  0.00    -0.080 Cl
HETATM   15  C12 UNL     1      18.202   2.373  50.826  1.00  0.00     0.137 A 
HETATM   16  F1  UNL     1      17.248   2.957  50.083  1.00  0.00    -0.205 F 
HETATM   17  C13 UNL     1      19.020   3.097  51.548  1.00  0.00     0.037 A 
HETATM   18  C14 UNL     1      20.135   2.686  52.436  1.00  0.00     0.160 A 
ENDBRANCH   8  11
BRANCH   1  19
HETATM   19  C3  UNL     1      25.324   2.255  51.411  1.00  0.00     0.010 A 
HETATM   20  C2  UNL     1      24.756   3.311  50.726  1.00  0.00     0.125 A 
HETATM   21  N1  UNL     1      25.723   3.975  50.069  1.00  0.00    -0.285 N 
HETATM   22  C1  UNL     1      25.541   5.145  49.235  1.00  0.00     0.179 C 
HETATM   23  N5  UNL     1      26.887   3.382  50.310  1.00  0.00    -0.185 NA
HETATM   24  C17 UNL     1      26.688   2.322  51.129  1.00  0.00     0.152 A 
ENDBRANCH   1  19
TORSDOF 2
ENDMDL
MODEL 9
REMARK VINA RESULT:      -8.0      4.441      8.152
REMARK  2 active torsions:
REMARK  status: ('A' for Active; 'I' for Inactive)
REMARK    1  A    between atoms: C3_4  and  C4_5 
REMARK    2  A    between atoms: C9_12  and  N4_13 
ROOT
HETATM    1  C4  UNL     1      23.645   0.373  52.888  1.00  0.00    -0.022 A 
HETATM    2  C5  UNL     1      24.960   0.012  53.200  1.00  0.00     0.014 A 
HETATM    3  C6  UNL     1      26.039   0.643  52.629  1.00  0.00     0.033 A 
HETATM    4  C7  UNL     1      25.875   1.674  51.713  1.00  0.00     0.072 A 
HETATM    5  N2  UNL     1      26.864   2.338  51.119  1.00  0.00    -0.241 NA
HETATM    6  C8  UNL     1      26.592   3.326  50.248  1.00  0.00     0.236 A 
HETATM    7  N3  UNL     1      25.302   3.661  49.960  1.00  0.00    -0.223 NA
HETATM    8  C9  UNL     1      24.257   3.003  50.547  1.00  0.00     0.143 A 
HETATM    9  C15 UNL     1      24.566   1.996  51.435  1.00  0.00     0.040 A 
HETATM   10  C16 UNL     1      23.475   1.396  51.979  1.00  0.00     0.030 A 
ENDROOT
BRANCH   8  11
HETATM   11  N4  UNL     1      23.013   3.497  50.085  1.00  0.00    -0.336 N 
HETATM   12  C10 UNL     1      22.841   4.846  50.574  1.00  0.00     0.120 A 
HETATM   13  C11 UNL     1      21.791   5.622  50.354  1.00  0.00     0.087 A 
HETATM   14 CL1  UNL     1      21.554   7.277  50.941  1.00  0.00    -0.080 Cl
HETATM   15  C12 UNL     1      20.673   5.108  49.539  1.00  0.00     0.137 A 
HETATM   16  F1  UNL     1      19.558   5.796  49.247  1.00  0.00    -0.205 F 
HETATM   17  C13 UNL     1      20.837   3.887  49.094  1.00  0.00     0.037 A 
HETATM   18  C14 UNL     1      21.966   2.942  49.280  1.00  0.00     0.160 A 
ENDBRANCH   8  11
BRANCH   1  19
HETATM   19  C3  UNL     1      22.589  -0.376  53.563  1.00  0.00     0.010 A 
HETATM   20  C2  UNL     1      21.296  -0.446  53.082  1.00  0.00     0.125 A 
HETATM   21  N1  UNL     1      20.562  -1.203  53.916  1.00  0.00    -0.285 N 
HETATM   22  C1  UNL     1      19.156  -1.522  53.766  1.00  0.00     0.179 C 
HETATM   23  N5  UNL     1      21.338  -1.619  54.910  1.00  0.00    -0.185 NA
HETATM   24  C17 UNL     1      22.590  -1.134  54.733  1.00  0.00     0.152 A 
ENDBRANCH   1  19
TORSDOF 2
ENDMDL
