MODEL 1
REMARK VINA RESULT:      -8.5      0.000      0.000
REMARK  4 active torsions:
REMARK  status: ('A' for Active; 'I' for Inactive)
REMARK    1  A    between atoms: N1_2  and  C3_4 
REMARK    2  A    between atoms: C3_4  and  C4_5 
REMARK    3  A    between atoms: C5_6  and  C6_7 
REMARK       I    between atoms: C6_7  and  N2_9 
REMARK    4  A    between atoms: N2_9  and  C8_11 
ROOT
HETATM    1  C8  UNL     1      25.910   5.598  49.220  1.00  0.00     0.075 A 
HETATM    2  C9  UNL     1      26.398   4.405  49.347  1.00  0.00     0.138 A 
HETATM    3  F1  UNL     1      27.413   3.943  48.596  1.00  0.00    -0.207 F 
HETATM    4  C10 UNL     1      26.069   3.270  50.206  1.00  0.00     0.198 A 
HETATM    5  N3  UNL     1      25.058   3.566  51.175  1.00  0.00    -0.331 N 
HETATM    6  C11 UNL     1      24.473   4.868  51.080  1.00  0.00     0.077 A 
HETATM    7  C12 UNL     1      24.837   5.797  50.214  1.00  0.00     0.062 A 
HETATM    8  C13 UNL     1      23.570   4.468  52.193  1.00  0.00     0.335 A 
HETATM    9  N4  UNL     1      22.160   4.612  52.053  1.00  0.00    -0.356 N 
HETATM   10  C14 UNL     1      21.143   3.662  51.752  1.00  0.00     0.086 C 
HETATM   11  C15 UNL     1      21.235   2.354  51.910  1.00  0.00     0.029 C 
HETATM   12  C16 UNL     1      22.337   1.556  52.406  1.00  0.00    -0.024 A 
HETATM   13  C17 UNL     1      21.928   0.264  52.721  1.00  0.00     0.012 A 
HETATM   14  C18 UNL     1      22.883  -0.610  53.208  1.00  0.00     0.001 A 
HETATM   15  C19 UNL     1      24.172  -0.203  53.368  1.00  0.00     0.001 A 
HETATM   16  C20 UNL     1      24.590   1.074  53.059  1.00  0.00     0.012 A 
HETATM   17  C21 UNL     1      23.646   1.979  52.565  1.00  0.00     0.016 A 
HETATM   18  C22 UNL     1      24.234   3.279  52.287  1.00  0.00     0.325 A 
HETATM   19  N5  UNL     1      24.209   4.178  53.430  1.00  0.00     0.163 N 
HETATM   20  H17 UNL     1      21.840   5.596  52.199  1.00  0.00     0.162 HD
HETATM   21  H24 UNL     1      25.150   4.586  53.633  1.00  0.00     0.324 HD
ENDROOT
BRANCH   1  22
HETATM   22  N2  UNL     1      26.220   6.666  48.384  1.00  0.00    -0.316 N 
HETATM   23  C6  UNL     1      27.444   7.290  48.028  1.00  0.00     0.247 C 
HETATM   24  O1  UNL     1      28.403   6.728  48.599  1.00  0.00    -0.268 OA
HETATM   25  C7  UNL     1      25.223   7.369  47.658  1.00  0.00     0.159 C 
BRANCH  23  26
HETATM   26  C5  UNL     1      27.769   8.410  47.163  1.00  0.00     0.072 C 
HETATM   27  C4  UNL     1      28.553   9.495  46.983  1.00  0.00     0.008 C 
BRANCH  27  28
HETATM   28  C3  UNL     1      29.610  10.429  47.364  1.00  0.00     0.299 C 
BRANCH  28  29
HETATM   29  N1  UNL     1      29.842  10.533  48.798  1.00  0.00     0.083 N 
HETATM   30  C1  UNL     1      30.596  11.756  48.983  1.00  0.00     0.309 C 
HETATM   31  C2  UNL     1      30.610   9.447  49.331  1.00  0.00     0.309 C 
ENDBRANCH  28  29
ENDBRANCH  27  28
ENDBRANCH  23  26
ENDBRANCH   1  22
TORSDOF 4
ENDMDL
MODEL 2
REMARK VINA RESULT:      -8.5      4.288      6.513
REMARK  4 active torsions:
REMARK  status: ('A' for Active; 'I' for Inactive)
REMARK    1  A    between atoms: N1_2  and  C3_4 
REMARK    2  A    between atoms: C3_4  and  C4_5 
REMARK    3  A    between atoms: C5_6  and  C6_7 
REMARK       I    between atoms: C6_7  and  N2_9 
REMARK    4  A    between atoms: N2_9  and  C8_11 
ROOT
HETATM    1  C8  UNL     1      24.435   3.857  49.763  1.00  0.00     0.075 A 
HETATM    2  C9  UNL     1      25.724   3.834  49.641  1.00  0.00     0.138 A 
HETATM    3  F1  UNL     1      26.377   4.421  48.623  1.00  0.00    -0.207 F 
HETATM    4  C10 UNL     1      26.798   3.233  50.429  1.00  0.00     0.198 A 
HETATM    5  N3  UNL     1      26.339   2.622  51.639  1.00  0.00    -0.331 N 
HETATM    6  C11 UNL     1      24.921   2.608  51.826  1.00  0.00     0.077 A 
HETATM    7  C12 UNL     1      24.046   3.155  51.001  1.00  0.00     0.062 A 
HETATM    8  C13 UNL     1      25.163   1.836  53.076  1.00  0.00     0.335 A 
HETATM    9  N4  UNL     1      24.481   0.606  53.296  1.00  0.00    -0.356 N 
HETATM   10  C14 UNL     1      24.908  -0.745  53.151  1.00  0.00     0.086 C 
HETATM   11  C15 UNL     1      26.161  -1.164  53.143  1.00  0.00     0.029 C 
HETATM   12  C16 UNL     1      27.390  -0.411  53.271  1.00  0.00    -0.024 A 
HETATM   13  C17 UNL     1      28.472  -1.244  53.537  1.00  0.00     0.012 A 
HETATM   14  C18 UNL     1      29.714  -0.655  53.685  1.00  0.00     0.001 A 
HETATM   15  C19 UNL     1      29.855   0.694  53.571  1.00  0.00     0.001 A 
HETATM   16  C20 UNL     1      28.791   1.531  53.306  1.00  0.00     0.012 A 
HETATM   17  C21 UNL     1      27.524   0.963  53.153  1.00  0.00     0.016 A 
HETATM   18  C22 UNL     1      26.508   1.966  52.881  1.00  0.00     0.325 A 
HETATM   19  N5  UNL     1      25.902   2.514  54.084  1.00  0.00     0.163 N 
HETATM   20  H17 UNL     1      23.497   0.743  53.619  1.00  0.00     0.162 HD
HETATM   21  H24 UNL     1      25.920   3.559  54.096  1.00  0.00     0.324 HD
ENDROOT
BRANCH   1  22
HETATM   22  N2  UNL     1      23.419   4.417  48.994  1.00  0.00    -0.316 N 
HETATM   23  C6  UNL     1      22.531   3.878  48.027  1.00  0.00     0.247 C 
HETATM   24  O1  UNL     1      22.738   2.655  47.878  1.00  0.00    -0.268 OA
HETATM   25  C7  UNL     1      23.069   5.789  49.093  1.00  0.00     0.159 C 
BRANCH  23  26
HETATM   26  C5  UNL     1      21.477   4.462  47.217  1.00  0.00     0.072 C 
HETATM   27  C4  UNL     1      21.080   4.804  45.973  1.00  0.00     0.008 C 
BRANCH  27  28
HETATM   28  C3  UNL     1      21.248   4.916  44.525  1.00  0.00     0.299 C 
BRANCH  28  29
HETATM   29  N1  UNL     1      20.573   3.882  43.753  1.00  0.00     0.083 N 
HETATM   30  C1  UNL     1      20.495   4.395  42.401  1.00  0.00     0.309 C 
HETATM   31  C2  UNL     1      19.241   3.610  44.208  1.00  0.00     0.309 C 
ENDBRANCH  28  29
ENDBRANCH  27  28
ENDBRANCH  23  26
ENDBRANCH   1  22
TORSDOF 4
ENDMDL
MODEL 3
REMARK VINA RESULT:      -8.3      2.732      3.519
REMARK  4 active torsions:
REMARK  status: ('A' for Active; 'I' for Inactive)
REMARK    1  A    between atoms: N1_2  and  C3_4 
REMARK    2  A    between atoms: C3_4  and  C4_5 
REMARK    3  A    between atoms: C5_6  and  C6_7 
REMARK       I    between atoms: C6_7  and  N2_9 
REMARK    4  A    between atoms: N2_9  and  C8_11 
ROOT
HETATM    1  C8  UNL     1      27.087   6.096  48.777  1.00  0.00     0.075 A 
HETATM    2  C9  UNL     1      26.804   4.851  48.999  1.00  0.00     0.138 A 
HETATM    3  F1  UNL     1      27.500   3.833  48.464  1.00  0.00    -0.207 F 
HETATM    4  C10 UNL     1      25.768   4.179  49.779  1.00  0.00     0.198 A 
HETATM    5  N3  UNL     1      24.948   5.081  50.529  1.00  0.00    -0.331 N 
HETATM    6  C11 UNL     1      25.206   6.472  50.318  1.00  0.00     0.077 A 
HETATM    7  C12 UNL     1      26.159   6.953  49.539  1.00  0.00     0.062 A 
HETATM    8  C13 UNL     1      24.065   6.752  51.232  1.00  0.00     0.335 A 
HETATM    9  N4  UNL     1      23.017   7.620  50.817  1.00  0.00    -0.356 N 
HETATM   10  C14 UNL     1      21.709   7.347  50.324  1.00  0.00     0.086 C 
HETATM   11  C15 UNL     1      21.034   6.225  50.500  1.00  0.00     0.029 C 
HETATM   12  C16 UNL     1      21.412   5.018  51.204  1.00  0.00    -0.024 A 
HETATM   13  C17 UNL     1      20.311   4.198  51.435  1.00  0.00     0.012 A 
HETATM   14  C18 UNL     1      20.529   3.007  52.102  1.00  0.00     0.001 A 
HETATM   15  C19 UNL     1      21.780   2.664  52.512  1.00  0.00     0.001 A 
HETATM   16  C20 UNL     1      22.879   3.467  52.288  1.00  0.00     0.012 A 
HETATM   17  C21 UNL     1      22.690   4.678  51.617  1.00  0.00     0.016 A 
HETATM   18  C22 UNL     1      23.934   5.411  51.458  1.00  0.00     0.325 A 
HETATM   19  N5  UNL     1      24.226   6.300  52.572  1.00  0.00     0.163 N 
HETATM   20  H17 UNL     1      23.275   8.630  50.896  1.00  0.00     0.162 HD
HETATM   21  H24 UNL     1      25.186   6.152  52.955  1.00  0.00     0.324 HD
ENDROOT
BRANCH   1  22
HETATM   22  N2  UNL     1      28.067   6.725  48.016  1.00  0.00    -0.316 N 
HETATM   23  C6  UNL     1      29.471   6.543  47.909  1.00  0.00     0.247 C 
HETATM   24  O1  UNL     1      29.851   5.619  48.660  1.00  0.00    -0.268 OA
HETATM   25  C7  UNL     1      27.760   7.769  47.105  1.00  0.00     0.159 C 
BRANCH  23  26
HETATM   26  C5  UNL     1      30.497   7.204  47.123  1.00  0.00     0.072 C 
HETATM   27  C4  UNL     1      31.799   7.215  46.764  1.00  0.00     0.008 C 
BRANCH  27  28
HETATM   28  C3  UNL     1      33.171   6.711  46.784  1.00  0.00     0.299 C 
BRANCH  28  29
HETATM   29  N1  UNL     1      33.353   5.470  47.523  1.00  0.00     0.083 N 
HETATM   30  C1  UNL     1      33.811   5.866  48.839  1.00  0.00     0.309 C 
HETATM   31  C2  UNL     1      34.337   4.602  46.947  1.00  0.00     0.309 C 
ENDBRANCH  28  29
ENDBRANCH  27  28
ENDBRANCH  23  26
ENDBRANCH   1  22
TORSDOF 4
ENDMDL
MODEL 4
REMARK VINA RESULT:      -8.3      4.097      5.559
REMARK  4 active torsions:
REMARK  status: ('A' for Active; 'I' for Inactive)
REMARK    1  A    between atoms: N1_2  and  C3_4 
REMARK    2  A    between atoms: C3_4  and  C4_5 
REMARK    3  A    between atoms: C5_6  and  C6_7 
REMARK       I    between atoms: C6_7  and  N2_9 
REMARK    4  A    between atoms: N2_9  and  C8_11 
ROOT
HETATM    1  C8  UNL     1      24.523   4.114  49.950  1.00  0.00     0.075 A 
HETATM    2  C9  UNL     1      25.800   3.992  49.771  1.00  0.00     0.138 A 
HETATM    3  F1  UNL     1      26.456   4.563  48.745  1.00  0.00    -0.207 F 
HETATM    4  C10 UNL     1      26.853   3.280  50.490  1.00  0.00     0.198 A 
HETATM    5  N3  UNL     1      26.397   2.662  51.697  1.00  0.00    -0.331 N 
HETATM    6  C11 UNL     1      24.992   2.754  51.946  1.00  0.00     0.077 A 
HETATM    7  C12 UNL     1      24.130   3.399  51.179  1.00  0.00     0.062 A 
HETATM    8  C13 UNL     1      25.221   1.919  53.157  1.00  0.00     0.335 A 
HETATM    9  N4  UNL     1      24.451   0.740  53.365  1.00  0.00    -0.356 N 
HETATM   10  C14 UNL     1      24.761  -0.634  53.157  1.00  0.00     0.086 C 
HETATM   11  C15 UNL     1      25.974  -1.151  53.079  1.00  0.00     0.029 C 
HETATM   12  C16 UNL     1      27.265  -0.503  53.178  1.00  0.00    -0.024 A 
HETATM   13  C17 UNL     1      28.286  -1.430  53.368  1.00  0.00     0.012 A 
HETATM   14  C18 UNL     1      29.577  -0.947  53.480  1.00  0.00     0.001 A 
HETATM   15  C19 UNL     1      29.822   0.390  53.405  1.00  0.00     0.001 A 
HETATM   16  C20 UNL     1      28.819   1.318  53.217  1.00  0.00     0.012 A 
HETATM   17  C21 UNL     1      27.504   0.859  53.101  1.00  0.00     0.016 A 
HETATM   18  C22 UNL     1      26.563   1.949  52.907  1.00  0.00     0.325 A 
HETATM   19  N5  UNL     1      26.054   2.499  54.154  1.00  0.00     0.163 N 
HETATM   20  H17 UNL     1      23.496   0.943  53.736  1.00  0.00     0.162 HD
HETATM   21  H24 UNL     1      26.157   3.537  54.200  1.00  0.00     0.324 HD
ENDROOT
BRANCH   1  22
HETATM   22  N2  UNL     1      23.525   4.781  49.246  1.00  0.00    -0.316 N 
HETATM   23  C6  UNL     1      23.062   6.122  49.267  1.00  0.00     0.247 C 
HETATM   24  O1  UNL     1      23.716   6.798  50.090  1.00  0.00    -0.268 OA
HETATM   25  C7  UNL     1      22.733   4.132  48.264  1.00  0.00     0.159 C 
BRANCH  23  26
HETATM   26  C5  UNL     1      22.015   6.819  48.540  1.00  0.00     0.072 C 
HETATM   27  C4  UNL     1      21.462   8.016  48.247  1.00  0.00     0.008 C 
BRANCH  27  28
HETATM   28  C3  UNL     1      21.361   9.472  48.330  1.00  0.00     0.299 C 
BRANCH  28  29
HETATM   29  N1  UNL     1      20.466   9.960  49.369  1.00  0.00     0.083 N 
HETATM   30  C1  UNL     1      19.215   9.258  49.167  1.00  0.00     0.309 C 
HETATM   31  C2  UNL     1      20.209  11.368  49.285  1.00  0.00     0.309 C 
ENDBRANCH  28  29
ENDBRANCH  27  28
ENDBRANCH  23  26
ENDBRANCH   1  22
TORSDOF 4
ENDMDL
MODEL 5
REMARK VINA RESULT:      -8.1      1.166      1.364
REMARK  4 active torsions:
REMARK  status: ('A' for Active; 'I' for Inactive)
REMARK    1  A    between atoms: N1_2  and  C3_4 
REMARK    2  A    between atoms: C3_4  and  C4_5 
REMARK    3  A    between atoms: C5_6  and  C6_7 
REMARK       I    between atoms: C6_7  and  N2_9 
REMARK    4  A    between atoms: N2_9  and  C8_11 
ROOT
HETATM    1  C8  UNL     1      25.581   5.823  49.189  1.00  0.00     0.075 A 
HETATM    2  C9  UNL     1      26.169   4.675  49.307  1.00  0.00     0.138 A 
HETATM    3  F1  UNL     1      27.188   4.287  48.521  1.00  0.00    -0.207 F 
HETATM    4  C10 UNL     1      25.967   3.529  50.190  1.00  0.00     0.198 A 
HETATM    5  N3  UNL     1      24.974   3.755  51.195  1.00  0.00    -0.331 N 
HETATM    6  C11 UNL     1      24.282   5.004  51.111  1.00  0.00     0.077 A 
HETATM    7  C12 UNL     1      24.535   5.948  50.222  1.00  0.00     0.062 A 
HETATM    8  C13 UNL     1      23.458   4.547  52.263  1.00  0.00     0.335 A 
HETATM    9  N4  UNL     1      22.037   4.574  52.178  1.00  0.00    -0.356 N 
HETATM   10  C14 UNL     1      21.090   3.541  51.928  1.00  0.00     0.086 C 
HETATM   11  C15 UNL     1      21.294   2.246  52.095  1.00  0.00     0.029 C 
HETATM   12  C16 UNL     1      22.475   1.547  52.553  1.00  0.00    -0.024 A 
HETATM   13  C17 UNL     1      22.186   0.230  52.898  1.00  0.00     0.012 A 
HETATM   14  C18 UNL     1      23.227  -0.557  53.355  1.00  0.00     0.001 A 
HETATM   15  C19 UNL     1      24.484  -0.045  53.459  1.00  0.00     0.001 A 
HETATM   16  C20 UNL     1      24.784   1.258  53.121  1.00  0.00     0.012 A 
HETATM   17  C21 UNL     1      23.751   2.077  52.656  1.00  0.00     0.016 A 
HETATM   18  C22 UNL     1      24.220   3.416  52.342  1.00  0.00     0.325 A 
HETATM   19  N5  UNL     1      24.167   4.326  53.476  1.00  0.00     0.163 N 
HETATM   20  H17 UNL     1      21.643   5.530  52.327  1.00  0.00     0.162 HD
HETATM   21  H24 UNL     1      25.078   4.811  53.637  1.00  0.00     0.324 HD
ENDROOT
BRANCH   1  22
HETATM   22  N2  UNL     1      25.770   6.902  48.330  1.00  0.00    -0.316 N 
HETATM   23  C6  UNL     1      26.872   7.763  48.089  1.00  0.00     0.247 C 
HETATM   24  O1  UNL     1      27.842   7.442  48.810  1.00  0.00    -0.268 OA
HETATM   25  C7  UNL     1      24.755   7.346  47.442  1.00  0.00     0.159 C 
BRANCH  23  26
HETATM   26  C5  UNL     1      27.070   8.894  47.201  1.00  0.00     0.072 C 
HETATM   27  C4  UNL     1      27.619  10.119  47.053  1.00  0.00     0.008 C 
BRANCH  27  28
HETATM   28  C3  UNL     1      28.384  11.279  47.507  1.00  0.00     0.299 C 
BRANCH  28  29
HETATM   29  N1  UNL     1      27.596  12.488  47.702  1.00  0.00     0.083 N 
HETATM   30  C1  UNL     1      28.227  13.190  48.800  1.00  0.00     0.309 C 
HETATM   31  C2  UNL     1      26.233  12.228  48.059  1.00  0.00     0.309 C 
ENDBRANCH  28  29
ENDBRANCH  27  28
ENDBRANCH  23  26
ENDBRANCH   1  22
TORSDOF 4
ENDMDL
MODEL 6
REMARK VINA RESULT:      -8.0      2.219      9.050
REMARK  4 active torsions:
REMARK  status: ('A' for Active; 'I' for Inactive)
REMARK    1  A    between atoms: N1_2  and  C3_4 
REMARK    2  A    between atoms: C3_4  and  C4_5 
REMARK    3  A    between atoms: C5_6  and  C6_7 
REMARK       I    between atoms: C6_7  and  N2_9 
REMARK    4  A    between atoms: N2_9  and  C8_11 
ROOT
HETATM    1  C8  UNL     1      24.995   4.065  49.845  1.00  0.00     0.075 A 
HETATM    2  C9  UNL     1      26.188   3.711  49.485  1.00  0.00     0.138 A 
HETATM    3  F1  UNL     1      26.650   2.454  49.610  1.00  0.00    -0.207 F 
HETATM    4  C10 UNL     1      27.322   4.433  48.914  1.00  0.00     0.198 A 
HETATM    5  N3  UNL     1      27.025   5.797  48.600  1.00  0.00    -0.331 N 
HETATM    6  C11 UNL     1      25.724   6.251  48.982  1.00  0.00     0.077 A 
HETATM    7  C12 UNL     1      24.795   5.495  49.541  1.00  0.00     0.062 A 
HETATM    8  C13 UNL     1      26.124   7.597  48.488  1.00  0.00     0.335 A 
HETATM    9  N4  UNL     1      25.981   8.736  49.330  1.00  0.00    -0.356 N 
HETATM   10  C14 UNL     1      26.932   9.456  50.107  1.00  0.00     0.086 C 
HETATM   11  C15 UNL     1      28.240   9.458  49.923  1.00  0.00     0.029 C 
HETATM   12  C16 UNL     1      29.036   8.765  48.932  1.00  0.00    -0.024 A 
HETATM   13  C17 UNL     1      30.329   9.278  48.869  1.00  0.00     0.012 A 
HETATM   14  C18 UNL     1      31.201   8.707  47.961  1.00  0.00     0.001 A 
HETATM   15  C19 UNL     1      30.794   7.681  47.164  1.00  0.00     0.001 A 
HETATM   16  C20 UNL     1      29.516   7.164  47.218  1.00  0.00     0.012 A 
HETATM   17  C21 UNL     1      28.613   7.722  48.126  1.00  0.00     0.016 A 
HETATM   18  C22 UNL     1      27.313   7.075  48.065  1.00  0.00     0.325 A 
HETATM   19  N5  UNL     1      26.412   7.681  47.097  1.00  0.00     0.163 N 
HETATM   20  H17 UNL     1      24.997   9.087  49.369  1.00  0.00     0.162 HD
HETATM   21  H24 UNL     1      26.003   6.977  46.442  1.00  0.00     0.324 HD
ENDROOT
BRANCH   1  22
HETATM   22  N2  UNL     1      23.927   3.371  50.406  1.00  0.00    -0.316 N 
HETATM   23  C6  UNL     1      23.602   3.016  51.741  1.00  0.00     0.247 C 
HETATM   24  O1  UNL     1      24.473   3.438  52.531  1.00  0.00    -0.268 OA
HETATM   25  C7  UNL     1      22.860   2.865  49.618  1.00  0.00     0.159 C 
BRANCH  23  26
HETATM   26  C5  UNL     1      22.493   2.284  52.328  1.00  0.00     0.072 C 
HETATM   27  C4  UNL     1      21.963   1.068  52.580  1.00  0.00     0.008 C 
BRANCH  27  28
HETATM   28  C3  UNL     1      21.949  -0.393  52.540  1.00  0.00     0.299 C 
BRANCH  28  29
HETATM   29  N1  UNL     1      22.628  -1.038  53.655  1.00  0.00     0.083 N 
HETATM   30  C1  UNL     1      21.815  -0.757  54.820  1.00  0.00     0.309 C 
HETATM   31  C2  UNL     1      23.946  -0.527  53.892  1.00  0.00     0.309 C 
ENDBRANCH  28  29
ENDBRANCH  27  28
ENDBRANCH  23  26
ENDBRANCH   1  22
TORSDOF 4
ENDMDL
MODEL 7
REMARK VINA RESULT:      -8.0      4.129      6.351
REMARK  4 active torsions:
REMARK  status: ('A' for Active; 'I' for Inactive)
REMARK    1  A    between atoms: N1_2  and  C3_4 
REMARK    2  A    between atoms: C3_4  and  C4_5 
REMARK    3  A    between atoms: C5_6  and  C6_7 
REMARK       I    between atoms: C6_7  and  N2_9 
REMARK    4  A    between atoms: N2_9  and  C8_11 
ROOT
HETATM    1  C8  UNL     1      24.468   4.012  49.856  1.00  0.00     0.075 A 
HETATM    2  C9  UNL     1      25.752   3.935  49.706  1.00  0.00     0.138 A 
HETATM    3  F1  UNL     1      26.408   4.514  48.684  1.00  0.00    -0.207 F 
HETATM    4  C10 UNL     1      26.814   3.274  50.459  1.00  0.00     0.198 A 
HETATM    5  N3  UNL     1      26.355   2.659  51.667  1.00  0.00    -0.331 N 
HETATM    6  C11 UNL     1      24.942   2.703  51.884  1.00  0.00     0.077 A 
HETATM    7  C12 UNL     1      24.075   3.304  51.089  1.00  0.00     0.062 A 
HETATM    8  C13 UNL     1      25.176   1.898  53.114  1.00  0.00     0.335 A 
HETATM    9  N4  UNL     1      24.446   0.694  53.326  1.00  0.00    -0.356 N 
HETATM   10  C14 UNL     1      24.810  -0.671  53.147  1.00  0.00     0.086 C 
HETATM   11  C15 UNL     1      26.043  -1.143  53.104  1.00  0.00     0.029 C 
HETATM   12  C16 UNL     1      27.306  -0.446  53.219  1.00  0.00    -0.024 A 
HETATM   13  C17 UNL     1      28.356  -1.331  53.447  1.00  0.00     0.012 A 
HETATM   14  C18 UNL     1      29.626  -0.799  53.578  1.00  0.00     0.001 A 
HETATM   15  C19 UNL     1      29.823   0.545  53.486  1.00  0.00     0.001 A 
HETATM   16  C20 UNL     1      28.791   1.431  53.260  1.00  0.00     0.012 A 
HETATM   17  C21 UNL     1      27.497   0.922  53.124  1.00  0.00     0.016 A 
HETATM   18  C22 UNL     1      26.521   1.974  52.892  1.00  0.00     0.325 A 
HETATM   19  N5  UNL     1      25.965   2.524  54.118  1.00  0.00     0.163 N 
HETATM   20  H17 UNL     1      23.475   0.867  53.672  1.00  0.00     0.162 HD
HETATM   21  H24 UNL     1      26.029   3.566  54.149  1.00  0.00     0.324 HD
ENDROOT
BRANCH   1  22
HETATM   22  N2  UNL     1      23.461   4.631  49.120  1.00  0.00    -0.316 N 
HETATM   23  C6  UNL     1      23.005   5.972  49.046  1.00  0.00     0.247 C 
HETATM   24  O1  UNL     1      23.675   6.704  49.805  1.00  0.00    -0.268 OA
HETATM   25  C7  UNL     1      22.649   3.914  48.202  1.00  0.00     0.159 C 
BRANCH  23  26
HETATM   26  C5  UNL     1      21.950   6.619  48.286  1.00  0.00     0.072 C 
HETATM   27  C4  UNL     1      20.618   6.790  48.141  1.00  0.00     0.008 C 
BRANCH  27  28
HETATM   28  C3  UNL     1      19.218   6.567  48.499  1.00  0.00     0.299 C 
BRANCH  28  29
HETATM   29  N1  UNL     1      18.628   5.368  47.922  1.00  0.00     0.083 N 
HETATM   30  C1  UNL     1      19.061   5.347  46.540  1.00  0.00     0.309 C 
HETATM   31  C2  UNL     1      17.195   5.371  47.944  1.00  0.00     0.309 C 
ENDBRANCH  28  29
ENDBRANCH  27  28
ENDBRANCH  23  26
ENDBRANCH   1  22
TORSDOF 4
ENDMDL
MODEL 8
REMARK VINA RESULT:      -7.9      1.650      2.411
REMARK  4 active torsions:
REMARK  status: ('A' for Active; 'I' for Inactive)
REMARK    1  A    between atoms: N1_2  and  C3_4 
REMARK    2  A    between atoms: C3_4  and  C4_5 
REMARK    3  A    between atoms: C5_6  and  C6_7 
REMARK       I    between atoms: C6_7  and  N2_9 
REMARK    4  A    between atoms: N2_9  and  C8_11 
ROOT
HETATM    1  C8  UNL     1      26.890   6.482  48.681  1.00  0.00     0.075 A 
HETATM    2  C9  UNL     1      26.792   5.209  48.900  1.00  0.00     0.138 A 
HETATM    3  F1  UNL     1      27.595   4.300  48.319  1.00  0.00    -0.207 F 
HETATM    4  C10 UNL     1      25.895   4.396  49.717  1.00  0.00     0.198 A 
HETATM    5  N3  UNL     1      24.996   5.171  50.516  1.00  0.00    -0.331 N 
HETATM    6  C11 UNL     1      25.051   6.585  50.312  1.00  0.00     0.077 A 
HETATM    7  C12 UNL     1      25.891   7.198  49.496  1.00  0.00     0.062 A 
HETATM    8  C13 UNL     1      23.927   6.699  51.281  1.00  0.00     0.335 A 
HETATM    9  N4  UNL     1      22.751   7.418  50.926  1.00  0.00    -0.356 N 
HETATM   10  C14 UNL     1      21.471   6.971  50.490  1.00  0.00     0.086 C 
HETATM   11  C15 UNL     1      20.966   5.765  50.681  1.00  0.00     0.029 C 
HETATM   12  C16 UNL     1      21.539   4.617  51.351  1.00  0.00    -0.024 A 
HETATM   13  C17 UNL     1      20.573   3.652  51.622  1.00  0.00     0.012 A 
HETATM   14  C18 UNL     1      20.983   2.497  52.263  1.00  0.00     0.001 A 
HETATM   15  C19 UNL     1      22.288   2.327  52.610  1.00  0.00     0.001 A 
HETATM   16  C20 UNL     1      23.254   3.275  52.347  1.00  0.00     0.012 A 
HETATM   17  C21 UNL     1      22.868   4.453  51.701  1.00  0.00     0.016 A 
HETATM   18  C22 UNL     1      23.992   5.352  51.495  1.00  0.00     0.325 A 
HETATM   19  N5  UNL     1      24.211   6.265  52.605  1.00  0.00     0.163 N 
HETATM   20  H17 UNL     1      22.872   8.453  51.006  1.00  0.00     0.162 HD
HETATM   21  H24 UNL     1      25.200   6.248  52.942  1.00  0.00     0.324 HD
ENDROOT
BRANCH   1  22
HETATM   22  N2  UNL     1      27.738   7.245  47.884  1.00  0.00    -0.316 N 
HETATM   23  C6  UNL     1      29.151   7.321  47.775  1.00  0.00     0.247 C 
HETATM   24  O1  UNL     1      29.695   6.520  48.565  1.00  0.00    -0.268 OA
HETATM   25  C7  UNL     1      27.244   8.170  46.928  1.00  0.00     0.159 C 
BRANCH  23  26
HETATM   26  C5  UNL     1      30.039   8.123  46.951  1.00  0.00     0.072 C 
HETATM   27  C4  UNL     1      30.561   9.349  46.734  1.00  0.00     0.008 C 
BRANCH  27  28
HETATM   28  C3  UNL     1      30.737  10.772  47.020  1.00  0.00     0.299 C 
BRANCH  28  29
HETATM   29  N1  UNL     1      30.010  11.251  48.186  1.00  0.00     0.083 N 
HETATM   30  C1  UNL     1      28.857  11.955  47.663  1.00  0.00     0.309 C 
HETATM   31  C2  UNL     1      30.765  12.164  48.993  1.00  0.00     0.309 C 
ENDBRANCH  28  29
ENDBRANCH  27  28
ENDBRANCH  23  26
ENDBRANCH   1  22
TORSDOF 4
ENDMDL
MODEL 9
REMARK VINA RESULT:      -7.8      6.191      8.535
REMARK  4 active torsions:
REMARK  status: ('A' for Active; 'I' for Inactive)
REMARK    1  A    between atoms: N1_2  and  C3_4 
REMARK    2  A    between atoms: C3_4  and  C4_5 
REMARK    3  A    between atoms: C5_6  and  C6_7 
REMARK       I    between atoms: C6_7  and  N2_9 
REMARK    4  A    between atoms: N2_9  and  C8_11 
ROOT
HETATM    1  C8  UNL     1      22.027   1.546  51.973  1.00  0.00     0.075 A 
HETATM    2  C9  UNL     1      21.479   2.702  52.172  1.00  0.00     0.138 A 
HETATM    3  F1  UNL     1      22.149   3.756  52.670  1.00  0.00    -0.207 F 
HETATM    4  C10 UNL     1      20.127   3.220  51.983  1.00  0.00     0.198 A 
HETATM    5  N3  UNL     1      19.243   2.283  51.361  1.00  0.00    -0.331 N 
HETATM    6  C11 UNL     1      19.788   0.982  51.123  1.00  0.00     0.077 A 
HETATM    7  C12 UNL     1      21.033   0.626  51.388  1.00  0.00     0.062 A 
HETATM    8  C13 UNL     1      18.446   0.587  50.614  1.00  0.00     0.335 A 
HETATM    9  N4  UNL     1      17.798  -0.568  51.136  1.00  0.00    -0.356 N 
HETATM   10  C14 UNL     1      16.756  -0.708  52.096  1.00  0.00     0.086 C 
HETATM   11  C15 UNL     1      15.890   0.229  52.441  1.00  0.00     0.029 C 
HETATM   12  C16 UNL     1      15.762   1.590  51.969  1.00  0.00    -0.024 A 
HETATM   13  C17 UNL     1      14.539   2.143  52.335  1.00  0.00     0.012 A 
HETATM   14  C18 UNL     1      14.281   3.445  51.947  1.00  0.00     0.001 A 
HETATM   15  C19 UNL     1      15.203   4.147  51.232  1.00  0.00     0.001 A 
HETATM   16  C20 UNL     1      16.419   3.611  50.864  1.00  0.00     0.012 A 
HETATM   17  C21 UNL     1      16.706   2.296  51.242  1.00  0.00     0.016 A 
HETATM   18  C22 UNL     1      18.019   1.873  50.782  1.00  0.00     0.325 A 
HETATM   19  N5  UNL     1      18.001   1.280  49.454  1.00  0.00     0.163 N 
HETATM   20  H17 UNL     1      18.169  -1.456  50.730  1.00  0.00     0.162 HD
HETATM   21  H24 UNL     1      18.701   1.719  48.815  1.00  0.00     0.324 HD
ENDROOT
BRANCH   1  22
HETATM   22  N2  UNL     1      23.315   1.058  52.176  1.00  0.00    -0.316 N 
HETATM   23  C6  UNL     1      23.839   0.029  53.001  1.00  0.00     0.247 C 
HETATM   24  O1  UNL     1      22.922  -0.522  53.648  1.00  0.00    -0.268 OA
HETATM   25  C7  UNL     1      24.436   1.580  51.480  1.00  0.00     0.159 C 
BRANCH  23  26
HETATM   26  C5  UNL     1      25.182  -0.476  53.220  1.00  0.00     0.072 C 
HETATM   27  C4  UNL     1      26.332  -0.334  53.914  1.00  0.00     0.008 C 
BRANCH  27  28
HETATM   28  C3  UNL     1      27.200   0.303  54.903  1.00  0.00     0.299 C 
BRANCH  28  29
HETATM   29  N1  UNL     1      28.625   0.132  54.661  1.00  0.00     0.083 N 
HETATM   30  C1  UNL     1      29.091   1.410  54.163  1.00  0.00     0.309 C 
HETATM   31  C2  UNL     1      28.920  -0.867  53.677  1.00  0.00     0.309 C 
ENDBRANCH  28  29
ENDBRANCH  27  28
ENDBRANCH  23  26
ENDBRANCH   1  22
TORSDOF 4
ENDMDL
