MODEL 1
REMARK VINA RESULT:      -7.3      0.000      0.000
REMARK  7 active torsions:
REMARK  status: ('A' for Active; 'I' for Inactive)
REMARK    1  A    between atoms: O1_2  and  C2_3 
REMARK    2  A    between atoms: C2_3  and  C3_4 
REMARK    3  A    between atoms: C3_4  and  O2_5 
REMARK    4  A    between atoms: O2_5  and  C4_6 
REMARK    5  A    between atoms: C15_20  and  C16_21 
REMARK    6  A    between atoms: C16_21  and  C17_22 
REMARK    7  A    between atoms: C17_22  and  O3_23 
ROOT
HETATM    1  C4  UNL     1      25.146   1.396  51.573  1.00  0.00     0.060 C 
HETATM    2  C5  UNL     1      23.800   1.619  51.451  1.00  0.00     0.127 C 
HETATM    3  C6  UNL     1      23.153   2.504  50.417  1.00  0.00     0.001 C 
HETATM    4  C7  UNL     1      21.813   2.466  50.609  1.00  0.00     0.114 C 
HETATM    5  N1  UNL     1      20.678   1.990  51.324  1.00  0.00    -0.254 NA
HETATM    6  C8  UNL     1      20.124   0.840  50.991  1.00  0.00     0.233 C 
HETATM    7  N2  UNL     1      18.994   0.513  51.813  1.00  0.00    -0.237 NA
HETATM    8  C9  UNL     1      19.287  -0.331  52.777  1.00  0.00     0.204 C 
HETATM    9  N3  UNL     1      19.711  -1.243  53.780  1.00  0.00    -0.381 N 
HETATM   10  C10 UNL     1      20.633  -0.589  54.704  1.00  0.00     0.148 C 
HETATM   11  C11 UNL     1      21.922  -0.257  54.103  1.00  0.00    -0.005 C 
HETATM   12  C12 UNL     1      23.215  -0.435  54.155  1.00  0.00    -0.080 C 
HETATM   13  C13 UNL     1      23.112  -1.340  55.331  1.00  0.00     0.043 C 
HETATM   14  C14 UNL     1      23.996   0.294  53.126  1.00  0.00     0.035 C 
HETATM   15  C15 UNL     1      25.271   0.462  52.744  1.00  0.00     0.008 C 
HETATM   16  H13 UNL     1      19.271  -2.180  53.640  1.00  0.00     0.160 HD
ENDROOT
BRANCH   1  17
HETATM   17  O2  UNL     1      26.473   1.673  51.067  1.00  0.00    -0.382 OA
BRANCH  17  18
HETATM   18  C3  UNL     1      26.736   3.054  50.901  1.00  0.00     0.194 C 
BRANCH  18  19
HETATM   19  C2  UNL     1      26.537   3.470  49.460  1.00  0.00     0.193 C 
BRANCH  19  20
HETATM   20  O1  UNL     1      27.617   4.226  49.000  1.00  0.00    -0.394 OA
HETATM   21  C1  UNL     1      27.220   5.518  48.639  1.00  0.00     0.201 C 
ENDBRANCH  19  20
ENDBRANCH  18  19
ENDBRANCH  17  18
ENDBRANCH   1  17
BRANCH  15  22
HETATM   22  C16 UNL     1      26.691   0.051  53.076  1.00  0.00     0.040 C 
BRANCH  22  23
HETATM   23  C17 UNL     1      26.856   0.175  54.569  1.00  0.00     0.168 C 
BRANCH  23  24
HETATM   24  O3  UNL     1      28.087  -0.234  55.037  1.00  0.00    -0.396 OA
HETATM   25  C18 UNL     1      29.040  -0.445  54.066  1.00  0.00     0.201 C 
ENDBRANCH  23  24
ENDBRANCH  22  23
ENDBRANCH  15  22
TORSDOF 7
ENDMDL
MODEL 2
REMARK VINA RESULT:      -7.3      2.805      5.960
REMARK  7 active torsions:
REMARK  status: ('A' for Active; 'I' for Inactive)
REMARK    1  A    between atoms: O1_2  and  C2_3 
REMARK    2  A    between atoms: C2_3  and  C3_4 
REMARK    3  A    between atoms: C3_4  and  O2_5 
REMARK    4  A    between atoms: O2_5  and  C4_6 
REMARK    5  A    between atoms: C15_20  and  C16_21 
REMARK    6  A    between atoms: C16_21  and  C17_22 
REMARK    7  A    between atoms: C17_22  and  O3_23 
ROOT
HETATM    1  C4  UNL     1      23.147  -0.167  53.061  1.00  0.00     0.060 C 
HETATM    2  C5  UNL     1      22.902   0.628  51.972  1.00  0.00     0.127 C 
HETATM    3  C6  UNL     1      21.597   0.700  51.221  1.00  0.00     0.001 C 
HETATM    4  C7  UNL     1      21.738   1.597  50.217  1.00  0.00     0.114 C 
HETATM    5  N1  UNL     1      22.530   2.536  49.498  1.00  0.00    -0.254 NA
HETATM    6  C8  UNL     1      22.606   3.787  49.908  1.00  0.00     0.233 C 
HETATM    7  N2  UNL     1      23.446   4.594  49.070  1.00  0.00    -0.237 NA
HETATM    8  C9  UNL     1      24.656   4.751  49.555  1.00  0.00     0.204 C 
HETATM    9  N3  UNL     1      25.933   4.858  50.169  1.00  0.00    -0.381 N 
HETATM   10  C10 UNL     1      26.601   3.560  50.180  1.00  0.00     0.148 C 
HETATM   11  C11 UNL     1      25.971   2.590  51.073  1.00  0.00    -0.005 C 
HETATM   12  C12 UNL     1      26.133   1.816  52.113  1.00  0.00    -0.080 C 
HETATM   13  C13 UNL     1      27.548   2.237  52.292  1.00  0.00     0.043 C 
HETATM   14  C14 UNL     1      24.943   1.018  52.500  1.00  0.00     0.035 C 
HETATM   15  C15 UNL     1      24.577   0.120  53.425  1.00  0.00     0.008 C 
HETATM   16  H13 UNL     1      26.117   5.839  50.476  1.00  0.00     0.160 HD
ENDROOT
BRANCH   1  17
HETATM   17  O2  UNL     1      22.627  -1.147  53.990  1.00  0.00    -0.382 OA
BRANCH  17  18
HETATM   18  C3  UNL     1      21.420  -0.747  54.612  1.00  0.00     0.194 C 
BRANCH  18  19
HETATM   19  C2  UNL     1      20.242  -1.502  54.036  1.00  0.00     0.193 C 
BRANCH  19  20
HETATM   20  O1  UNL     1      19.303  -0.628  53.483  1.00  0.00    -0.394 OA
HETATM   21  C1  UNL     1      18.089  -1.275  53.230  1.00  0.00     0.201 C 
ENDBRANCH  19  20
ENDBRANCH  18  19
ENDBRANCH  17  18
ENDBRANCH   1  17
BRANCH  15  22
HETATM   22  C16 UNL     1      25.087  -0.645  54.630  1.00  0.00     0.040 C 
BRANCH  22  23
HETATM   23  C17 UNL     1      26.368   0.016  55.070  1.00  0.00     0.168 C 
BRANCH  23  24
HETATM   24  O3  UNL     1      27.506  -0.535  54.519  1.00  0.00    -0.396 OA
HETATM   25  C18 UNL     1      28.684   0.085  54.870  1.00  0.00     0.201 C 
ENDBRANCH  23  24
ENDBRANCH  22  23
ENDBRANCH  15  22
TORSDOF 7
ENDMDL
MODEL 3
REMARK VINA RESULT:      -7.2      2.774      5.382
REMARK  7 active torsions:
REMARK  status: ('A' for Active; 'I' for Inactive)
REMARK    1  A    between atoms: O1_2  and  C2_3 
REMARK    2  A    between atoms: C2_3  and  C3_4 
REMARK    3  A    between atoms: C3_4  and  O2_5 
REMARK    4  A    between atoms: O2_5  and  C4_6 
REMARK    5  A    between atoms: C15_20  and  C16_21 
REMARK    6  A    between atoms: C16_21  and  C17_22 
REMARK    7  A    between atoms: C17_22  and  O3_23 
ROOT
HETATM    1  C4  UNL     1      25.237   0.176  52.944  1.00  0.00     0.060 C 
HETATM    2  C5  UNL     1      25.372   1.314  52.194  1.00  0.00     0.127 C 
HETATM    3  C6  UNL     1      26.665   1.829  51.615  1.00  0.00     0.001 C 
HETATM    4  C7  UNL     1      26.397   2.968  50.933  1.00  0.00     0.114 C 
HETATM    5  N1  UNL     1      25.473   3.949  50.476  1.00  0.00    -0.254 NA
HETATM    6  C8  UNL     1      24.804   3.754  49.357  1.00  0.00     0.233 C 
HETATM    7  N2  UNL     1      23.918   4.840  49.047  1.00  0.00    -0.237 NA
HETATM    8  C9  UNL     1      22.674   4.602  49.396  1.00  0.00     0.204 C 
HETATM    9  N3  UNL     1      21.363   4.243  49.811  1.00  0.00    -0.381 N 
HETATM   10  C10 UNL     1      21.299   4.149  51.266  1.00  0.00     0.148 C 
HETATM   11  C11 UNL     1      22.054   3.024  51.810  1.00  0.00    -0.005 C 
HETATM   12  C12 UNL     1      21.995   1.921  52.509  1.00  0.00    -0.080 C 
HETATM   13  C13 UNL     1      20.531   2.058  52.729  1.00  0.00     0.043 C 
HETATM   14  C14 UNL     1      23.288   1.216  52.689  1.00  0.00     0.035 C 
HETATM   15  C15 UNL     1      23.773   0.114  53.279  1.00  0.00     0.008 C 
HETATM   16  H13 UNL     1      20.731   4.127  48.987  1.00  0.00     0.160 HD
ENDROOT
BRANCH   1  17
HETATM   17  O2  UNL     1      25.891  -0.969  53.542  1.00  0.00    -0.382 OA
BRANCH  17  18
HETATM   18  C3  UNL     1      26.904  -1.527  52.726  1.00  0.00     0.194 C 
BRANCH  18  19
HETATM   19  C2  UNL     1      28.274  -1.085  53.192  1.00  0.00     0.193 C 
BRANCH  19  20
HETATM   20  O1  UNL     1      28.241  -0.650  54.518  1.00  0.00    -0.394 OA
HETATM   21  C1  UNL     1      28.843   0.605  54.660  1.00  0.00     0.201 C 
ENDBRANCH  19  20
ENDBRANCH  18  19
ENDBRANCH  17  18
ENDBRANCH   1  17
BRANCH  15  22
HETATM   22  C16 UNL     1      23.366  -1.086  54.109  1.00  0.00     0.040 C 
BRANCH  22  23
HETATM   23  C17 UNL     1      22.203  -0.662  54.970  1.00  0.00     0.168 C 
BRANCH  23  24
HETATM   24  O3  UNL     1      21.151  -1.554  54.978  1.00  0.00    -0.396 OA
HETATM   25  C18 UNL     1      20.299  -1.460  53.901  1.00  0.00     0.201 C 
ENDBRANCH  23  24
ENDBRANCH  22  23
ENDBRANCH  15  22
TORSDOF 7
ENDMDL
MODEL 4
REMARK VINA RESULT:      -7.2      3.666      5.826
REMARK  7 active torsions:
REMARK  status: ('A' for Active; 'I' for Inactive)
REMARK    1  A    between atoms: O1_2  and  C2_3 
REMARK    2  A    between atoms: C2_3  and  C3_4 
REMARK    3  A    between atoms: C3_4  and  O2_5 
REMARK    4  A    between atoms: O2_5  and  C4_6 
REMARK    5  A    between atoms: C15_20  and  C16_21 
REMARK    6  A    between atoms: C16_21  and  C17_22 
REMARK    7  A    between atoms: C17_22  and  O3_23 
ROOT
HETATM    1  C4  UNL     1      23.212   2.719  50.623  1.00  0.00     0.060 C 
HETATM    2  C5  UNL     1      24.498   2.490  51.031  1.00  0.00     0.127 C 
HETATM    3  C6  UNL     1      25.719   3.208  50.514  1.00  0.00     0.001 C 
HETATM    4  C7  UNL     1      26.802   2.715  51.158  1.00  0.00     0.114 C 
HETATM    5  N1  UNL     1      27.379   1.828  52.112  1.00  0.00    -0.254 NA
HETATM    6  C8  UNL     1      27.450   2.180  53.380  1.00  0.00     0.233 C 
HETATM    7  N2  UNL     1      28.057   1.170  54.200  1.00  0.00    -0.237 NA
HETATM    8  C9  UNL     1      27.179   0.431  54.838  1.00  0.00     0.204 C 
HETATM    9  N3  UNL     1      26.148  -0.307  55.480  1.00  0.00    -0.381 N 
HETATM   10  C10 UNL     1      25.385  -1.071  54.498  1.00  0.00     0.148 C 
HETATM   11  C11 UNL     1      24.583  -0.237  53.607  1.00  0.00    -0.005 C 
HETATM   12  C12 UNL     1      23.379   0.040  53.181  1.00  0.00    -0.080 C 
HETATM   13  C13 UNL     1      22.757  -0.987  54.057  1.00  0.00     0.043 C 
HETATM   14  C14 UNL     1      23.302   1.111  52.156  1.00  0.00     0.035 C 
HETATM   15  C15 UNL     1      22.382   1.754  51.422  1.00  0.00     0.008 C 
HETATM   16  H13 UNL     1      26.161  -0.144  56.512  1.00  0.00     0.160 HD
ENDROOT
BRANCH   1  17
HETATM   17  O2  UNL     1      22.327   3.479  49.765  1.00  0.00    -0.382 OA
BRANCH  17  18
HETATM   18  C3  UNL     1      22.608   4.866  49.755  1.00  0.00     0.194 C 
BRANCH  18  19
HETATM   19  C2  UNL     1      22.373   5.474  51.120  1.00  0.00     0.193 C 
BRANCH  19  20
HETATM   20  O1  UNL     1      23.545   6.030  51.634  1.00  0.00    -0.394 OA
HETATM   21  C1  UNL     1      24.295   6.657  50.634  1.00  0.00     0.201 C 
ENDBRANCH  19  20
ENDBRANCH  18  19
ENDBRANCH  17  18
ENDBRANCH   1  17
BRANCH  15  22
HETATM   22  C16 UNL     1      20.893   1.825  51.152  1.00  0.00     0.040 C 
BRANCH  22  23
HETATM   23  C17 UNL     1      20.222   2.221  52.442  1.00  0.00     0.168 C 
BRANCH  23  24
HETATM   24  O3  UNL     1      19.647   3.474  52.420  1.00  0.00    -0.396 OA
HETATM   25  C18 UNL     1      19.022   3.808  51.239  1.00  0.00     0.201 C 
ENDBRANCH  23  24
ENDBRANCH  22  23
ENDBRANCH  15  22
TORSDOF 7
ENDMDL
MODEL 5
REMARK VINA RESULT:      -7.0      1.355      4.955
REMARK  7 active torsions:
REMARK  status: ('A' for Active; 'I' for Inactive)
REMARK    1  A    between atoms: O1_2  and  C2_3 
REMARK    2  A    between atoms: C2_3  and  C3_4 
REMARK    3  A    between atoms: C3_4  and  O2_5 
REMARK    4  A    between atoms: O2_5  and  C4_6 
REMARK    5  A    between atoms: C15_20  and  C16_21 
REMARK    6  A    between atoms: C16_21  and  C17_22 
REMARK    7  A    between atoms: C17_22  and  O3_23 
ROOT
HETATM    1  C4  UNL     1      26.236   1.603  52.172  1.00  0.00     0.060 C 
HETATM    2  C5  UNL     1      25.212   0.844  52.672  1.00  0.00     0.127 C 
HETATM    3  C6  UNL     1      25.319  -0.105  53.838  1.00  0.00     0.001 C 
HETATM    4  C7  UNL     1      24.103  -0.664  54.040  1.00  0.00     0.114 C 
HETATM    5  N1  UNL     1      22.730  -0.802  53.688  1.00  0.00    -0.254 NA
HETATM    6  C8  UNL     1      21.836   0.033  54.179  1.00  0.00     0.233 C 
HETATM    7  N2  UNL     1      20.505  -0.250  53.721  1.00  0.00    -0.237 NA
HETATM    8  C9  UNL     1      20.132   0.519  52.724  1.00  0.00     0.204 C 
HETATM    9  N3  UNL     1      19.829   1.402  51.652  1.00  0.00    -0.381 N 
HETATM   10  C10 UNL     1      20.664   1.100  50.494  1.00  0.00     0.148 C 
HETATM   11  C11 UNL     1      22.075   1.421  50.696  1.00  0.00    -0.005 C 
HETATM   12  C12 UNL     1      23.093   2.125  50.276  1.00  0.00    -0.080 C 
HETATM   13  C13 UNL     1      22.296   2.756  49.191  1.00  0.00     0.043 C 
HETATM   14  C14 UNL     1      24.356   1.922  51.029  1.00  0.00     0.035 C 
HETATM   15  C15 UNL     1      25.624   2.359  51.025  1.00  0.00     0.008 C 
HETATM   16  H13 UNL     1      19.074   2.071  51.924  1.00  0.00     0.160 HD
ENDROOT
BRANCH   1  17
HETATM   17  O2  UNL     1      27.631   1.979  52.272  1.00  0.00    -0.382 OA
BRANCH  17  18
HETATM   18  C3  UNL     1      28.042   2.265  53.596  1.00  0.00     0.194 C 
BRANCH  18  19
HETATM   19  C2  UNL     1      29.192   1.372  54.007  1.00  0.00     0.193 C 
BRANCH  19  20
HETATM   20  O1  UNL     1      28.778   0.046  54.140  1.00  0.00    -0.394 OA
HETATM   21  C1  UNL     1      29.769  -0.845  53.715  1.00  0.00     0.201 C 
ENDBRANCH  19  20
ENDBRANCH  18  19
ENDBRANCH  17  18
ENDBRANCH   1  17
BRANCH  15  22
HETATM   22  C16 UNL     1      26.574   3.293  50.305  1.00  0.00     0.040 C 
BRANCH  22  23
HETATM   23  C17 UNL     1      25.734   4.291  49.549  1.00  0.00     0.168 C 
BRANCH  23  24
HETATM   24  O3  UNL     1      26.430   5.397  49.108  1.00  0.00    -0.396 OA
HETATM   25  C18 UNL     1      27.667   5.130  48.565  1.00  0.00     0.201 C 
ENDBRANCH  23  24
ENDBRANCH  22  23
ENDBRANCH  15  22
TORSDOF 7
ENDMDL
MODEL 6
REMARK VINA RESULT:      -7.0      2.556      4.996
REMARK  7 active torsions:
REMARK  status: ('A' for Active; 'I' for Inactive)
REMARK    1  A    between atoms: O1_2  and  C2_3 
REMARK    2  A    between atoms: C2_3  and  C3_4 
REMARK    3  A    between atoms: C3_4  and  O2_5 
REMARK    4  A    between atoms: O2_5  and  C4_6 
REMARK    5  A    between atoms: C15_20  and  C16_21 
REMARK    6  A    between atoms: C16_21  and  C17_22 
REMARK    7  A    between atoms: C17_22  and  O3_23 
ROOT
HETATM    1  C4  UNL     1      25.178   2.795  50.844  1.00  0.00     0.060 C 
HETATM    2  C5  UNL     1      25.613   1.850  51.734  1.00  0.00     0.127 C 
HETATM    3  C6  UNL     1      27.040   1.663  52.180  1.00  0.00     0.001 C 
HETATM    4  C7  UNL     1      27.075   0.640  53.066  1.00  0.00     0.114 C 
HETATM    5  N1  UNL     1      26.411  -0.376  53.810  1.00  0.00    -0.254 NA
HETATM    6  C8  UNL     1      25.864  -0.090  54.975  1.00  0.00     0.233 C 
HETATM    7  N2  UNL     1      25.238  -1.228  55.586  1.00  0.00    -0.237 NA
HETATM    8  C9  UNL     1      23.938  -1.260  55.401  1.00  0.00     0.204 C 
HETATM    9  N3  UNL     1      22.542  -1.197  55.143  1.00  0.00    -0.381 N 
HETATM   10  C10 UNL     1      22.280  -1.382  53.719  1.00  0.00     0.148 C 
HETATM   11  C11 UNL     1      22.741  -0.268  52.894  1.00  0.00    -0.005 C 
HETATM   12  C12 UNL     1      22.393   0.664  52.047  1.00  0.00    -0.080 C 
HETATM   13  C13 UNL     1      20.963   0.258  52.082  1.00  0.00     0.043 C 
HETATM   14  C14 UNL     1      23.501   1.522  51.560  1.00  0.00     0.035 C 
HETATM   15  C15 UNL     1      23.697   2.561  50.734  1.00  0.00     0.008 C 
HETATM   16  H13 UNL     1      22.008  -1.035  56.026  1.00  0.00     0.160 HD
ENDROOT
BRANCH   1  17
HETATM   17  O2  UNL     1      25.530   3.901  49.978  1.00  0.00    -0.382 OA
BRANCH  17  18
HETATM   18  C3  UNL     1      26.758   3.716  49.300  1.00  0.00     0.194 C 
BRANCH  18  19
HETATM   19  C2  UNL     1      27.339   5.045  48.868  1.00  0.00     0.193 C 
BRANCH  19  20
HETATM   20  O1  UNL     1      28.682   4.915  48.507  1.00  0.00    -0.394 OA
HETATM   21  C1  UNL     1      29.169   6.087  47.919  1.00  0.00     0.201 C 
ENDBRANCH  19  20
ENDBRANCH  18  19
ENDBRANCH  17  18
ENDBRANCH   1  17
BRANCH  15  22
HETATM   22  C16 UNL     1      22.975   3.509  49.798  1.00  0.00     0.040 C 
BRANCH  22  23
HETATM   23  C17 UNL     1      22.773   2.782  48.493  1.00  0.00     0.168 C 
BRANCH  23  24
HETATM   24  O3  UNL     1      22.077   1.597  48.608  1.00  0.00    -0.396 OA
HETATM   25  C18 UNL     1      20.706   1.722  48.602  1.00  0.00     0.201 C 
ENDBRANCH  23  24
ENDBRANCH  22  23
ENDBRANCH  15  22
TORSDOF 7
ENDMDL
MODEL 7
REMARK VINA RESULT:      -7.0      2.804      6.070
REMARK  7 active torsions:
REMARK  status: ('A' for Active; 'I' for Inactive)
REMARK    1  A    between atoms: O1_2  and  C2_3 
REMARK    2  A    between atoms: C2_3  and  C3_4 
REMARK    3  A    between atoms: C3_4  and  O2_5 
REMARK    4  A    between atoms: O2_5  and  C4_6 
REMARK    5  A    between atoms: C15_20  and  C16_21 
REMARK    6  A    between atoms: C16_21  and  C17_22 
REMARK    7  A    between atoms: C17_22  and  O3_23 
ROOT
HETATM    1  C4  UNL     1      24.117   1.270  52.620  1.00  0.00     0.060 C 
HETATM    2  C5  UNL     1      23.225   2.203  52.163  1.00  0.00     0.127 C 
HETATM    3  C6  UNL     1      21.780   2.305  52.580  1.00  0.00     0.001 C 
HETATM    4  C7  UNL     1      21.226   3.352  51.925  1.00  0.00     0.114 C 
HETATM    5  N1  UNL     1      21.334   4.438  51.010  1.00  0.00    -0.254 NA
HETATM    6  C8  UNL     1      21.757   5.614  51.430  1.00  0.00     0.233 C 
HETATM    7  N2  UNL     1      21.805   6.591  50.380  1.00  0.00    -0.237 NA
HETATM    8  C9  UNL     1      23.010   6.749  49.881  1.00  0.00     0.204 C 
HETATM    9  N3  UNL     1      24.350   6.843  49.417  1.00  0.00    -0.381 N 
HETATM   10  C10 UNL     1      24.745   5.603  48.754  1.00  0.00     0.148 C 
HETATM   11  C11 UNL     1      24.871   4.471  49.668  1.00  0.00    -0.005 C 
HETATM   12  C12 UNL     1      25.673   3.560  50.153  1.00  0.00    -0.080 C 
HETATM   13  C13 UNL     1      26.821   4.038  49.339  1.00  0.00     0.043 C 
HETATM   14  C14 UNL     1      25.059   2.638  51.141  1.00  0.00     0.035 C 
HETATM   15  C15 UNL     1      25.399   1.588  51.902  1.00  0.00     0.008 C 
HETATM   16  H13 UNL     1      24.759   7.776  49.647  1.00  0.00     0.160 HD
ENDROOT
BRANCH   1  17
HETATM   17  O2  UNL     1      24.348   0.128  53.480  1.00  0.00    -0.382 OA
BRANCH  17  18
HETATM   18  C3  UNL     1      23.241  -0.750  53.556  1.00  0.00     0.194 C 
BRANCH  18  19
HETATM   19  C2  UNL     1      22.962  -1.141  54.991  1.00  0.00     0.193 C 
BRANCH  19  20
HETATM   20  O1  UNL     1      21.606  -1.412  55.186  1.00  0.00    -0.394 OA
HETATM   21  C1  UNL     1      20.867  -1.188  54.020  1.00  0.00     0.201 C 
ENDBRANCH  19  20
ENDBRANCH  18  19
ENDBRANCH  17  18
ENDBRANCH   1  17
BRANCH  15  22
HETATM   22  C16 UNL     1      26.562   0.683  52.255  1.00  0.00     0.040 C 
BRANCH  22  23
HETATM   23  C17 UNL     1      27.607   1.538  52.928  1.00  0.00     0.168 C 
BRANCH  23  24
HETATM   24  O3  UNL     1      27.624   1.431  54.303  1.00  0.00    -0.396 OA
HETATM   25  C18 UNL     1      27.944   0.183  54.788  1.00  0.00     0.201 C 
ENDBRANCH  23  24
ENDBRANCH  22  23
ENDBRANCH  15  22
TORSDOF 7
ENDMDL
MODEL 8
REMARK VINA RESULT:      -6.9      1.189      4.796
REMARK  7 active torsions:
REMARK  status: ('A' for Active; 'I' for Inactive)
REMARK    1  A    between atoms: O1_2  and  C2_3 
REMARK    2  A    between atoms: C2_3  and  C3_4 
REMARK    3  A    between atoms: C3_4  and  O2_5 
REMARK    4  A    between atoms: O2_5  and  C4_6 
REMARK    5  A    between atoms: C15_20  and  C16_21 
REMARK    6  A    between atoms: C16_21  and  C17_22 
REMARK    7  A    between atoms: C17_22  and  O3_23 
ROOT
HETATM    1  C4  UNL     1      24.836   1.001  53.304  1.00  0.00     0.060 C 
HETATM    2  C5  UNL     1      23.613   0.386  53.267  1.00  0.00     0.127 C 
HETATM    3  C6  UNL     1      23.079  -0.559  54.312  1.00  0.00     0.001 C 
HETATM    4  C7  UNL     1      21.841  -0.952  53.932  1.00  0.00     0.114 C 
HETATM    5  N1  UNL     1      20.759  -0.914  53.008  1.00  0.00    -0.254 NA
HETATM    6  C8  UNL     1      19.847   0.035  53.099  1.00  0.00     0.233 C 
HETATM    7  N2  UNL     1      18.832  -0.076  52.091  1.00  0.00    -0.237 NA
HETATM    8  C9  UNL     1      19.032   0.727  51.070  1.00  0.00     0.204 C 
HETATM    9  N3  UNL     1      19.342   1.632  50.020  1.00  0.00    -0.381 N 
HETATM   10  C10 UNL     1      20.559   1.214  49.332  1.00  0.00     0.148 C 
HETATM   11  C11 UNL     1      21.764   1.350  50.147  1.00  0.00    -0.005 C 
HETATM   12  C12 UNL     1      22.939   1.912  50.251  1.00  0.00    -0.080 C 
HETATM   13  C13 UNL     1      22.785   2.632  48.960  1.00  0.00     0.043 C 
HETATM   14  C14 UNL     1      23.706   1.553  51.470  1.00  0.00     0.035 C 
HETATM   15  C15 UNL     1      24.888   1.820  52.044  1.00  0.00     0.008 C 
HETATM   16  H13 UNL     1      18.632   2.397  49.967  1.00  0.00     0.160 HD
ENDROOT
BRANCH   1  17
HETATM   17  O2  UNL     1      26.077   1.193  54.024  1.00  0.00    -0.382 OA
BRANCH  17  18
HETATM   18  C3  UNL     1      26.675  -0.019  54.447  1.00  0.00     0.194 C 
BRANCH  18  19
HETATM   19  C2  UNL     1      27.503  -0.628  53.337  1.00  0.00     0.193 C 
BRANCH  19  20
HETATM   20  O1  UNL     1      28.603  -1.319  53.849  1.00  0.00    -0.394 OA
HETATM   21  C1  UNL     1      29.798  -0.639  53.593  1.00  0.00     0.201 C 
ENDBRANCH  19  20
ENDBRANCH  18  19
ENDBRANCH  17  18
ENDBRANCH   1  17
BRANCH  15  22
HETATM   22  C16 UNL     1      26.163   2.616  51.861  1.00  0.00     0.040 C 
BRANCH  22  23
HETATM   23  C17 UNL     1      26.540   2.529  50.404  1.00  0.00     0.168 C 
BRANCH  23  24
HETATM   24  O3  UNL     1      26.995   3.715  49.865  1.00  0.00    -0.396 OA
HETATM   25  C18 UNL     1      26.009   4.604  49.498  1.00  0.00     0.201 C 
ENDBRANCH  23  24
ENDBRANCH  22  23
ENDBRANCH  15  22
TORSDOF 7
ENDMDL
MODEL 9
REMARK VINA RESULT:      -6.7      1.613      1.694
REMARK  7 active torsions:
REMARK  status: ('A' for Active; 'I' for Inactive)
REMARK    1  A    between atoms: O1_2  and  C2_3 
REMARK    2  A    between atoms: C2_3  and  C3_4 
REMARK    3  A    between atoms: C3_4  and  O2_5 
REMARK    4  A    between atoms: O2_5  and  C4_6 
REMARK    5  A    between atoms: C15_20  and  C16_21 
REMARK    6  A    between atoms: C16_21  and  C17_22 
REMARK    7  A    between atoms: C17_22  and  O3_23 
ROOT
HETATM    1  C4  UNL     1      24.559   2.280  51.001  1.00  0.00     0.060 C 
HETATM    2  C5  UNL     1      23.210   2.195  51.223  1.00  0.00     0.127 C 
HETATM    3  C6  UNL     1      22.151   2.951  50.462  1.00  0.00     0.001 C 
HETATM    4  C7  UNL     1      20.943   2.601  50.962  1.00  0.00     0.114 C 
HETATM    5  N1  UNL     1      20.151   1.848  51.875  1.00  0.00    -0.254 NA
HETATM    6  C8  UNL     1      19.787   0.617  51.573  1.00  0.00     0.233 C 
HETATM    7  N2  UNL     1      18.996   0.007  52.603  1.00  0.00    -0.237 NA
HETATM    8  C9  UNL     1      19.694  -0.786  53.384  1.00  0.00     0.204 C 
HETATM    9  N3  UNL     1      20.539  -1.619  54.165  1.00  0.00    -0.381 N 
HETATM   10  C10 UNL     1      21.505  -0.812  54.904  1.00  0.00     0.148 C 
HETATM   11  C11 UNL     1      22.501  -0.170  54.049  1.00  0.00    -0.005 C 
HETATM   12  C12 UNL     1      23.773  -0.050  53.776  1.00  0.00    -0.080 C 
HETATM   13  C13 UNL     1      24.163  -1.002  54.849  1.00  0.00     0.043 C 
HETATM   14  C14 UNL     1      24.097   0.881  52.667  1.00  0.00     0.035 C 
HETATM   15  C15 UNL     1      25.170   1.351  52.013  1.00  0.00     0.008 C 
HETATM   16  H13 UNL     1      20.286  -2.625  54.044  1.00  0.00     0.160 HD
ENDROOT
BRANCH   1  17
HETATM   17  O2  UNL     1      25.626   2.872  50.223  1.00  0.00    -0.382 OA
BRANCH  17  18
HETATM   18  C3  UNL     1      25.691   4.282  50.340  1.00  0.00     0.194 C 
BRANCH  18  19
HETATM   19  C2  UNL     1      25.059   4.951  49.139  1.00  0.00     0.193 C 
BRANCH  19  20
HETATM   20  O1  UNL     1      24.118   5.904  49.529  1.00  0.00    -0.394 OA
HETATM   21  C1  UNL     1      24.185   6.156  50.904  1.00  0.00     0.201 C 
ENDBRANCH  19  20
ENDBRANCH  18  19
ENDBRANCH  17  18
ENDBRANCH   1  17
BRANCH  15  22
HETATM   22  C16 UNL     1      26.681   1.261  51.957  1.00  0.00     0.040 C 
BRANCH  22  23
HETATM   23  C17 UNL     1      27.220   2.053  53.121  1.00  0.00     0.168 C 
BRANCH  23  24
HETATM   24  O3  UNL     1      27.028   1.455  54.349  1.00  0.00    -0.396 OA
HETATM   25  C18 UNL     1      27.753   0.303  54.556  1.00  0.00     0.201 C 
ENDBRANCH  23  24
ENDBRANCH  22  23
ENDBRANCH  15  22
TORSDOF 7
ENDMDL
