MODEL 1
REMARK VINA RESULT:      -7.8      0.000      0.000
REMARK  3 active torsions:
REMARK  status: ('A' for Active; 'I' for Inactive)
REMARK    1  A    between atoms: N1_7  and  C7_8 
REMARK    2  A    between atoms: C12_14  and  O1_15 
REMARK    3  A    between atoms: C14_17  and  O2_18 
ROOT
HETATM    1  C1  UNL     1      29.805  -2.037  53.480  1.00  0.00     0.017 C 
HETATM    2  C2  UNL     1      29.044  -1.106  53.370  1.00  0.00    -0.080 C 
HETATM    3  C3  UNL     1      28.138  -0.020  53.221  1.00  0.00     0.013 C 
HETATM    4  C4  UNL     1      28.521   1.175  53.696  1.00  0.00    -0.007 C 
HETATM    5  C5  UNL     1      27.492   2.256  53.489  1.00  0.00     0.048 C 
HETATM    6  C6  UNL     1      26.145   1.751  53.866  1.00  0.00     0.127 C 
HETATM    7  N1  UNL     1      25.874   0.351  53.478  1.00  0.00    -0.374 N 
HETATM    8  C17 UNL     1      26.779  -0.151  52.557  1.00  0.00     0.121 C 
HETATM    9  C18 UNL     1      26.790  -1.435  51.899  1.00  0.00     0.038 C 
ENDROOT
BRANCH   7  10
HETATM   10  C7  UNL     1      24.774  -0.213  54.100  1.00  0.00     0.025 C 
HETATM   11  C8  UNL     1      24.568  -0.969  55.212  1.00  0.00     0.045 C 
HETATM   12  C9  UNL     1      23.346  -1.537  55.775  1.00  0.00     0.119 C 
HETATM   13  N2  UNL     1      22.239  -1.315  55.093  1.00  0.00    -0.264 NA
HETATM   14  C10 UNL     1      22.440  -0.559  53.877  1.00  0.00     0.053 A 
HETATM   15  C11 UNL     1      21.580  -0.546  52.841  1.00  0.00     0.067 A 
HETATM   16  C16 UNL     1      23.574   0.315  53.518  1.00  0.00     0.147 A 
HETATM   17  C12 UNL     1      22.134   0.325  51.787  1.00  0.00     0.100 A 
HETATM   18  C14 UNL     1      23.311   0.798  52.240  1.00  0.00     0.095 A 
BRANCH  17  19
HETATM   19  O1  UNL     1      21.449   0.534  50.575  1.00  0.00    -0.353 OA
HETATM   20  C13 UNL     1      20.248   1.280  50.640  1.00  0.00     0.210 C 
ENDBRANCH  17  19
BRANCH  18  21
HETATM   21  O2  UNL     1      23.987   1.647  51.360  1.00  0.00    -0.356 OA
HETATM   22  C15 UNL     1      23.688   3.028  51.449  1.00  0.00     0.209 C 
ENDBRANCH  18  21
ENDBRANCH   7  10
TORSDOF 3
ENDMDL
MODEL 2
REMARK VINA RESULT:      -6.8      2.523      4.632
REMARK  3 active torsions:
REMARK  status: ('A' for Active; 'I' for Inactive)
REMARK    1  A    between atoms: N1_7  and  C7_8 
REMARK    2  A    between atoms: C12_14  and  O1_15 
REMARK    3  A    between atoms: C14_17  and  O2_18 
ROOT
HETATM    1  C1  UNL     1      27.267   5.110  48.583  1.00  0.00     0.017 C 
HETATM    2  C2  UNL     1      26.279   5.158  49.276  1.00  0.00    -0.080 C 
HETATM    3  C3  UNL     1      25.106   5.199  50.079  1.00  0.00     0.013 C 
HETATM    4  C4  UNL     1      24.871   6.324  50.772  1.00  0.00    -0.007 C 
HETATM    5  C5  UNL     1      23.606   6.265  51.589  1.00  0.00     0.048 C 
HETATM    6  C6  UNL     1      23.529   4.968  52.312  1.00  0.00     0.127 C 
HETATM    7  N1  UNL     1      23.997   3.798  51.540  1.00  0.00    -0.374 N 
HETATM    8  C17 UNL     1      24.124   4.047  50.183  1.00  0.00     0.121 C 
HETATM    9  C18 UNL     1      24.478   3.137  49.120  1.00  0.00     0.038 C 
ENDROOT
BRANCH   7  10
HETATM   10  C7  UNL     1      24.230   2.665  52.301  1.00  0.00     0.025 C 
HETATM   11  C8  UNL     1      25.290   2.154  52.983  1.00  0.00     0.045 C 
HETATM   12  C9  UNL     1      25.435   0.919  53.750  1.00  0.00     0.119 C 
HETATM   13  N2  UNL     1      24.376   0.132  53.780  1.00  0.00    -0.264 NA
HETATM   14  C10 UNL     1      23.253   0.628  53.017  1.00  0.00     0.053 A 
HETATM   15  C11 UNL     1      22.240  -0.140  52.572  1.00  0.00     0.067 A 
HETATM   16  C16 UNL     1      22.983   2.011  52.576  1.00  0.00     0.147 A 
HETATM   17  C12 UNL     1      21.299   0.718  51.828  1.00  0.00     0.100 A 
HETATM   18  C14 UNL     1      21.792   1.971  51.859  1.00  0.00     0.095 A 
BRANCH  17  19
HETATM   19  O1  UNL     1      20.133   0.189  51.241  1.00  0.00    -0.353 OA
HETATM   20  C13 UNL     1      19.071  -0.141  52.116  1.00  0.00     0.210 C 
ENDBRANCH  17  19
BRANCH  18  21
HETATM   21  O2  UNL     1      21.022   2.928  51.192  1.00  0.00    -0.356 OA
HETATM   22  C15 UNL     1      20.044   3.607  51.957  1.00  0.00     0.209 C 
ENDBRANCH  18  21
ENDBRANCH   7  10
TORSDOF 3
ENDMDL
MODEL 3
REMARK VINA RESULT:      -6.6      3.011      5.917
REMARK  3 active torsions:
REMARK  status: ('A' for Active; 'I' for Inactive)
REMARK    1  A    between atoms: N1_7  and  C7_8 
REMARK    2  A    between atoms: C12_14  and  O1_15 
REMARK    3  A    between atoms: C14_17  and  O2_18 
ROOT
HETATM    1  C1  UNL     1      23.556   8.093  50.444  1.00  0.00     0.017 C 
HETATM    2  C2  UNL     1      24.093   7.012  50.401  1.00  0.00    -0.080 C 
HETATM    3  C3  UNL     1      24.717   5.735  50.371  1.00  0.00     0.013 C 
HETATM    4  C4  UNL     1      25.806   5.597  49.599  1.00  0.00    -0.007 C 
HETATM    5  C5  UNL     1      26.390   4.209  49.637  1.00  0.00     0.048 C 
HETATM    6  C6  UNL     1      25.306   3.198  49.505  1.00  0.00     0.127 C 
HETATM    7  N1  UNL     1      24.061   3.526  50.231  1.00  0.00    -0.374 N 
HETATM    8  C17 UNL     1      24.215   4.541  51.161  1.00  0.00     0.121 C 
HETATM    9  C18 UNL     1      23.252   5.072  52.097  1.00  0.00     0.038 C 
ENDROOT
BRANCH   7  10
HETATM   10  C7  UNL     1      22.963   2.771  49.855  1.00  0.00     0.025 C 
HETATM   11  C8  UNL     1      22.061   2.807  48.837  1.00  0.00     0.045 C 
HETATM   12  C9  UNL     1      20.910   1.957  48.542  1.00  0.00     0.119 C 
HETATM   13  N2  UNL     1      20.666   0.996  49.412  1.00  0.00    -0.264 NA
HETATM   14  C10 UNL     1      21.578   0.971  50.532  1.00  0.00     0.053 A 
HETATM   15  C11 UNL     1      21.317   0.375  51.711  1.00  0.00     0.067 A 
HETATM   16  C16 UNL     1      22.927   1.564  50.630  1.00  0.00     0.147 A 
HETATM   17  C12 UNL     1      22.477   0.572  52.601  1.00  0.00     0.100 A 
HETATM   18  C14 UNL     1      23.390   1.284  51.911  1.00  0.00     0.095 A 
BRANCH  17  19
HETATM   19  O1  UNL     1      22.492   0.055  53.910  1.00  0.00    -0.353 OA
HETATM   20  C13 UNL     1      21.241  -0.093  54.554  1.00  0.00     0.210 C 
ENDBRANCH  17  19
BRANCH  18  21
HETATM   21  O2  UNL     1      24.566   1.573  52.609  1.00  0.00    -0.356 OA
HETATM   22  C15 UNL     1      25.690   0.759  52.328  1.00  0.00     0.209 C 
ENDBRANCH  18  21
ENDBRANCH   7  10
TORSDOF 3
ENDMDL
MODEL 4
REMARK VINA RESULT:      -6.2      2.860      6.339
REMARK  3 active torsions:
REMARK  status: ('A' for Active; 'I' for Inactive)
REMARK    1  A    between atoms: N1_7  and  C7_8 
REMARK    2  A    between atoms: C12_14  and  O1_15 
REMARK    3  A    between atoms: C14_17  and  O2_18 
ROOT
HETATM    1  C1  UNL     1      21.907   3.676  45.933  1.00  0.00     0.017 C 
HETATM    2  C2  UNL     1      21.737   3.737  47.127  1.00  0.00    -0.080 C 
HETATM    3  C3  UNL     1      21.533   3.784  48.534  1.00  0.00     0.013 C 
HETATM    4  C4  UNL     1      21.102   4.943  49.057  1.00  0.00    -0.007 C 
HETATM    5  C5  UNL     1      20.917   4.888  50.551  1.00  0.00     0.048 C 
HETATM    6  C6  UNL     1      22.091   4.229  51.183  1.00  0.00     0.127 C 
HETATM    7  N1  UNL     1      22.632   3.074  50.436  1.00  0.00    -0.374 N 
HETATM    8  C17 UNL     1      21.775   2.603  49.454  1.00  0.00     0.121 C 
HETATM    9  C18 UNL     1      21.928   1.459  48.586  1.00  0.00     0.038 C 
ENDROOT
BRANCH   7  10
HETATM   10  C7  UNL     1      23.892   2.670  50.839  1.00  0.00     0.025 C 
HETATM   11  C8  UNL     1      25.170   2.959  50.472  1.00  0.00     0.045 C 
HETATM   12  C9  UNL     1      26.449   2.451  50.960  1.00  0.00     0.119 C 
HETATM   13  N2  UNL     1      26.382   1.531  51.904  1.00  0.00    -0.264 NA
HETATM   14  C10 UNL     1      25.033   1.167  52.273  1.00  0.00     0.053 A 
HETATM   15  C11 UNL     1      24.700   0.017  52.891  1.00  0.00     0.067 A 
HETATM   16  C16 UNL     1      23.786   1.930  52.063  1.00  0.00     0.147 A 
HETATM   17  C12 UNL     1      23.238   0.002  53.088  1.00  0.00     0.100 A 
HETATM   18  C14 UNL     1      22.755   1.150  52.576  1.00  0.00     0.095 A 
BRANCH  17  19
HETATM   19  O1  UNL     1      22.596  -1.083  53.715  1.00  0.00    -0.353 OA
HETATM   20  C13 UNL     1      22.758  -1.201  55.115  1.00  0.00     0.210 C 
ENDBRANCH  17  19
BRANCH  18  21
HETATM   21  O2  UNL     1      21.370   1.305  52.672  1.00  0.00    -0.356 OA
HETATM   22  C15 UNL     1      20.574   0.417  51.907  1.00  0.00     0.209 C 
ENDBRANCH  18  21
ENDBRANCH   7  10
TORSDOF 3
ENDMDL
MODEL 5
REMARK VINA RESULT:      -6.2      2.582      6.811
REMARK  3 active torsions:
REMARK  status: ('A' for Active; 'I' for Inactive)
REMARK    1  A    between atoms: N1_7  and  C7_8 
REMARK    2  A    between atoms: C12_14  and  O1_15 
REMARK    3  A    between atoms: C14_17  and  O2_18 
ROOT
HETATM    1  C1  UNL     1      19.799   3.622  47.469  1.00  0.00     0.017 C 
HETATM    2  C2  UNL     1      20.190   3.483  48.603  1.00  0.00    -0.080 C 
HETATM    3  C3  UNL     1      20.656   3.296  49.933  1.00  0.00     0.013 C 
HETATM    4  C4  UNL     1      20.133   4.082  50.887  1.00  0.00    -0.007 C 
HETATM    5  C5  UNL     1      20.691   3.806  52.259  1.00  0.00     0.048 C 
HETATM    6  C6  UNL     1      22.172   3.682  52.187  1.00  0.00     0.127 C 
HETATM    7  N1  UNL     1      22.680   2.971  50.996  1.00  0.00    -0.374 N 
HETATM    8  C17 UNL     1      21.700   2.264  50.316  1.00  0.00     0.121 C 
HETATM    9  C18 UNL     1      21.832   1.400  49.167  1.00  0.00     0.038 C 
ENDROOT
BRANCH   7  10
HETATM   10  C7  UNL     1      24.034   3.136  50.763  1.00  0.00     0.025 C 
HETATM   11  C8  UNL     1      24.793   3.934  49.965  1.00  0.00     0.045 C 
HETATM   12  C9  UNL     1      26.240   4.012  49.782  1.00  0.00     0.119 C 
HETATM   13  N2  UNL     1      26.957   3.153  50.480  1.00  0.00    -0.264 NA
HETATM   14  C10 UNL     1      26.170   2.256  51.295  1.00  0.00     0.053 A 
HETATM   15  C11 UNL     1      26.612   1.076  51.768  1.00  0.00     0.067 A 
HETATM   16  C16 UNL     1      24.779   2.424  51.761  1.00  0.00     0.147 A 
HETATM   17  C12 UNL     1      25.524   0.447  52.541  1.00  0.00     0.100 A 
HETATM   18  C14 UNL     1      24.469   1.284  52.497  1.00  0.00     0.095 A 
BRANCH  17  19
HETATM   19  O1  UNL     1      25.695  -0.805  53.162  1.00  0.00    -0.353 OA
HETATM   20  C13 UNL     1      26.816  -1.569  52.761  1.00  0.00     0.210 C 
ENDBRANCH  17  19
BRANCH  18  21
HETATM   21  O2  UNL     1      23.333   0.843  53.180  1.00  0.00    -0.356 OA
HETATM   22  C15 UNL     1      22.632  -0.250  52.612  1.00  0.00     0.209 C 
ENDBRANCH  18  21
ENDBRANCH   7  10
TORSDOF 3
ENDMDL
MODEL 6
REMARK VINA RESULT:      -6.0      3.965      6.013
REMARK  3 active torsions:
REMARK  status: ('A' for Active; 'I' for Inactive)
REMARK    1  A    between atoms: N1_7  and  C7_8 
REMARK    2  A    between atoms: C12_14  and  O1_15 
REMARK    3  A    between atoms: C14_17  and  O2_18 
ROOT
HETATM    1  C1  UNL     1      26.793  -0.096  51.948  1.00  0.00     0.017 C 
HETATM    2  C2  UNL     1      26.154   0.924  52.051  1.00  0.00    -0.080 C 
HETATM    3  C3  UNL     1      25.415   2.134  52.155  1.00  0.00     0.013 C 
HETATM    4  C4  UNL     1      24.828   2.400  53.332  1.00  0.00    -0.007 C 
HETATM    5  C5  UNL     1      24.071   3.703  53.338  1.00  0.00     0.048 C 
HETATM    6  C6  UNL     1      23.249   3.817  52.103  1.00  0.00     0.127 C 
HETATM    7  N1  UNL     1      23.899   3.314  50.875  1.00  0.00    -0.374 N 
HETATM    8  C17 UNL     1      25.264   3.121  51.013  1.00  0.00     0.121 C 
HETATM    9  C18 UNL     1      26.231   2.718  50.020  1.00  0.00     0.038 C 
ENDROOT
BRANCH   7  10
HETATM   10  C7  UNL     1      23.037   3.120  49.810  1.00  0.00     0.025 C 
HETATM   11  C8  UNL     1      22.293   2.084  49.338  1.00  0.00     0.045 C 
HETATM   12  C9  UNL     1      21.419   1.981  48.172  1.00  0.00     0.119 C 
HETATM   13  N2  UNL     1      21.340   3.057  47.413  1.00  0.00    -0.264 NA
HETATM   14  C10 UNL     1      22.166   4.155  47.863  1.00  0.00     0.053 A 
HETATM   15  C11 UNL     1      22.563   5.176  47.080  1.00  0.00     0.067 A 
HETATM   16  C16 UNL     1      22.731   4.386  49.208  1.00  0.00     0.147 A 
HETATM   17  C12 UNL     1      23.397   6.085  47.889  1.00  0.00     0.100 A 
HETATM   18  C14 UNL     1      23.465   5.565  49.130  1.00  0.00     0.095 A 
BRANCH  17  19
HETATM   19  O1  UNL     1      23.958   7.252  47.335  1.00  0.00    -0.353 OA
HETATM   20  C13 UNL     1      23.122   8.390  47.262  1.00  0.00     0.210 C 
ENDBRANCH  17  19
BRANCH  18  21
HETATM   21  O2  UNL     1      24.229   6.301  50.040  1.00  0.00    -0.356 OA
HETATM   22  C15 UNL     1      23.542   7.268  50.814  1.00  0.00     0.209 C 
ENDBRANCH  18  21
ENDBRANCH   7  10
TORSDOF 3
ENDMDL
MODEL 7
REMARK VINA RESULT:      -6.0      9.302     11.557
REMARK  3 active torsions:
REMARK  status: ('A' for Active; 'I' for Inactive)
REMARK    1  A    between atoms: N1_7  and  C7_8 
REMARK    2  A    between atoms: C12_14  and  O1_15 
REMARK    3  A    between atoms: C14_17  and  O2_18 
ROOT
HETATM    1  C1  UNL     1      32.604  11.750  44.613  1.00  0.00     0.017 C 
HETATM    2  C2  UNL     1      32.002  11.513  45.632  1.00  0.00    -0.080 C 
HETATM    3  C3  UNL     1      31.275  11.225  46.820  1.00  0.00     0.013 C 
HETATM    4  C4  UNL     1      31.573  11.941  47.916  1.00  0.00    -0.007 C 
HETATM    5  C5  UNL     1      30.748  11.560  49.118  1.00  0.00     0.048 C 
HETATM    6  C6  UNL     1      30.690  10.079  49.243  1.00  0.00     0.127 C 
HETATM    7  N1  UNL     1      30.560   9.351  47.963  1.00  0.00    -0.374 N 
HETATM    8  C17 UNL     1      30.194  10.164  46.902  1.00  0.00     0.121 C 
HETATM    9  C18 UNL     1      29.902   9.800  45.536  1.00  0.00     0.038 C 
ENDROOT
BRANCH   7  10
HETATM   10  C7  UNL     1      30.828   7.996  48.045  1.00  0.00     0.025 C 
HETATM   11  C8  UNL     1      31.928   7.212  47.884  1.00  0.00     0.045 C 
HETATM   12  C9  UNL     1      32.099   5.764  47.976  1.00  0.00     0.119 C 
HETATM   13  N2  UNL     1      31.006   5.071  48.233  1.00  0.00    -0.264 NA
HETATM   14  C10 UNL     1      29.813   5.877  48.354  1.00  0.00     0.053 A 
HETATM   15  C11 UNL     1      28.560   5.403  48.217  1.00  0.00     0.067 A 
HETATM   16  C16 UNL     1      29.708   7.323  48.635  1.00  0.00     0.147 A 
HETATM   17  C12 UNL     1      27.617   6.524  48.396  1.00  0.00     0.100 A 
HETATM   18  C14 UNL     1      28.351   7.628  48.633  1.00  0.00     0.095 A 
BRANCH  17  19
HETATM   19  O1  UNL     1      26.225   6.330  48.308  1.00  0.00    -0.353 OA
HETATM   20  C13 UNL     1      25.650   5.402  49.207  1.00  0.00     0.210 C 
ENDBRANCH  17  19
BRANCH  18  21
HETATM   21  O2  UNL     1      27.614   8.800  48.824  1.00  0.00    -0.356 OA
HETATM   22  C15 UNL     1      27.260   9.121  50.158  1.00  0.00     0.209 C 
ENDBRANCH  18  21
ENDBRANCH   7  10
TORSDOF 3
ENDMDL
MODEL 8
REMARK VINA RESULT:      -5.9      2.117      6.500
REMARK  3 active torsions:
REMARK  status: ('A' for Active; 'I' for Inactive)
REMARK    1  A    between atoms: N1_7  and  C7_8 
REMARK    2  A    between atoms: C12_14  and  O1_15 
REMARK    3  A    between atoms: C14_17  and  O2_18 
ROOT
HETATM    1  C1  UNL     1      17.456   3.824  51.490  1.00  0.00     0.017 C 
HETATM    2  C2  UNL     1      18.445   3.367  50.969  1.00  0.00    -0.080 C 
HETATM    3  C3  UNL     1      19.623   2.843  50.370  1.00  0.00     0.013 C 
HETATM    4  C4  UNL     1      19.503   2.287  49.154  1.00  0.00    -0.007 C 
HETATM    5  C5  UNL     1      20.806   1.764  48.608  1.00  0.00     0.048 C 
HETATM    6  C6  UNL     1      21.525   0.997  49.660  1.00  0.00     0.127 C 
HETATM    7  N1  UNL     1      21.441   1.575  51.018  1.00  0.00    -0.374 N 
HETATM    8  C17 UNL     1      20.988   2.885  51.032  1.00  0.00     0.121 C 
HETATM    9  C18 UNL     1      20.850   3.788  52.150  1.00  0.00     0.038 C 
ENDROOT
BRANCH   7  10
HETATM   10  C7  UNL     1      21.821   0.714  52.032  1.00  0.00     0.025 C 
HETATM   11  C8  UNL     1      21.185  -0.170  52.847  1.00  0.00     0.045 C 
HETATM   12  C9  UNL     1      21.689  -1.028  53.915  1.00  0.00     0.119 C 
HETATM   13  N2  UNL     1      22.980  -0.929  54.174  1.00  0.00    -0.264 NA
HETATM   14  C10 UNL     1      23.668   0.045  53.358  1.00  0.00     0.053 A 
HETATM   15  C11 UNL     1      24.849   0.606  53.681  1.00  0.00     0.067 A 
HETATM   16  C16 UNL     1      23.252   0.614  52.060  1.00  0.00     0.147 A 
HETATM   17  C12 UNL     1      25.222   1.553  52.614  1.00  0.00     0.100 A 
HETATM   18  C14 UNL     1      24.241   1.519  51.691  1.00  0.00     0.095 A 
BRANCH  17  19
HETATM   19  O1  UNL     1      26.418   2.294  52.677  1.00  0.00    -0.353 OA
HETATM   20  C13 UNL     1      27.431   1.802  53.532  1.00  0.00     0.210 C 
ENDBRANCH  17  19
BRANCH  18  21
HETATM   21  O2  UNL     1      24.427   2.369  50.597  1.00  0.00    -0.356 OA
HETATM   22  C15 UNL     1      24.335   3.760  50.846  1.00  0.00     0.209 C 
ENDBRANCH  18  21
ENDBRANCH   7  10
TORSDOF 3
ENDMDL
MODEL 9
REMARK VINA RESULT:      -5.8      9.818     11.692
REMARK  3 active torsions:
REMARK  status: ('A' for Active; 'I' for Inactive)
REMARK    1  A    between atoms: N1_7  and  C7_8 
REMARK    2  A    between atoms: C12_14  and  O1_15 
REMARK    3  A    between atoms: C14_17  and  O2_18 
ROOT
HETATM    1  C1  UNL     1      34.892   3.221  46.184  1.00  0.00     0.017 C 
HETATM    2  C2  UNL     1      34.606   4.318  46.598  1.00  0.00    -0.080 C 
HETATM    3  C3  UNL     1      34.260   5.616  47.065  1.00  0.00     0.013 C 
HETATM    4  C4  UNL     1      34.928   6.088  48.129  1.00  0.00    -0.007 C 
HETATM    5  C5  UNL     1      34.488   7.469  48.542  1.00  0.00     0.048 C 
HETATM    6  C6  UNL     1      33.002   7.543  48.559  1.00  0.00     0.127 C 
HETATM    7  N1  UNL     1      32.331   6.824  47.456  1.00  0.00    -0.374 N 
HETATM    8  C17 UNL     1      33.188   6.476  46.423  1.00  0.00     0.121 C 
HETATM    9  C18 UNL     1      32.883   5.842  45.162  1.00  0.00     0.038 C 
ENDROOT
BRANCH   7  10
HETATM   10  C7  UNL     1      30.976   6.619  47.645  1.00  0.00     0.025 C 
HETATM   11  C8  UNL     1      30.210   5.651  48.218  1.00  0.00     0.045 C 
HETATM   12  C9  UNL     1      28.761   5.524  48.347  1.00  0.00     0.119 C 
HETATM   13  N2  UNL     1      28.046   6.489  47.800  1.00  0.00    -0.264 NA
HETATM   14  C10 UNL     1      28.836   7.501  47.137  1.00  0.00     0.053 A 
HETATM   15  C11 UNL     1      28.360   8.338  46.196  1.00  0.00     0.067 A 
HETATM   16  C16 UNL     1      30.264   7.824  47.332  1.00  0.00     0.147 A 
HETATM   17  C12 UNL     1      29.462   9.213  45.752  1.00  0.00     0.100 A 
HETATM   18  C14 UNL     1      30.558   8.859  46.451  1.00  0.00     0.095 A 
BRANCH  17  19
HETATM   19  O1  UNL     1      29.263  10.199  44.766  1.00  0.00    -0.353 OA
HETATM   20  C13 UNL     1      28.722  11.433  45.196  1.00  0.00     0.210 C 
ENDBRANCH  17  19
BRANCH  18  21
HETATM   21  O2  UNL     1      31.712   9.589  46.153  1.00  0.00    -0.356 OA
HETATM   22  C15 UNL     1      31.980  10.718  46.965  1.00  0.00     0.209 C 
ENDBRANCH  18  21
ENDBRANCH   7  10
TORSDOF 3
ENDMDL
