MODEL 1
REMARK VINA RESULT:      -8.0      0.000      0.000
REMARK  3 active torsions:
REMARK  status: ('A' for Active; 'I' for Inactive)
REMARK    1  A    between atoms: O1_2  and  C2_3 
REMARK    2  A    between atoms: C9_14  and  N3_15 
REMARK    3  A    between atoms: N3_15  and  C10_16 
ROOT
HETATM    1  C2  UNL     1      25.701   0.411  52.190  1.00  0.00     0.289 C 
HETATM    2  C3  UNL     1      26.519  -0.794  52.719  1.00  0.00     0.231 C 
HETATM    3  O2  UNL     1      26.121  -1.052  53.982  1.00  0.00    -0.362 OA
HETATM    4  C4  UNL     1      26.132  -0.071  54.919  1.00  0.00     0.343 C 
HETATM    5  O3  UNL     1      25.606  -0.693  56.153  1.00  0.00    -0.338 OA
HETATM    6  C5  UNL     1      24.378  -1.395  55.918  1.00  0.00     0.140 C 
HETATM    7  C6  UNL     1      23.331  -1.312  55.134  1.00  0.00     0.059 C 
HETATM    8  C7  UNL     1      22.713  -0.555  54.067  1.00  0.00     0.097 A 
HETATM    9  N1  UNL     1      21.361  -0.525  54.207  1.00  0.00    -0.239 NA
HETATM   10  C8  UNL     1      20.517   0.079  53.385  1.00  0.00     0.236 A 
HETATM   11  N2  UNL     1      21.046   0.695  52.351  1.00  0.00    -0.221 NA
HETATM   12  C9  UNL     1      22.382   0.724  52.126  1.00  0.00     0.165 A 
HETATM   13  C16 UNL     1      23.257   0.096  52.984  1.00  0.00     0.146 A 
HETATM   14  O4  UNL     1      24.446   0.249  52.598  1.00  0.00    -0.312 OA
ENDROOT
BRANCH  12  15
HETATM   15  N3  UNL     1      22.525   1.475  50.904  1.00  0.00    -0.339 N 
HETATM   16  H12 UNL     1      22.373   1.235  49.875  1.00  0.00     0.167 HD
BRANCH  15  17
HETATM   17  C10 UNL     1      22.964   2.829  51.155  1.00  0.00     0.035 A 
HETATM   18  C11 UNL     1      22.773   3.610  52.274  1.00  0.00     0.032 A 
HETATM   19  C12 UNL     1      23.305   4.881  52.365  1.00  0.00     0.046 A 
HETATM   20  C13 UNL     1      24.055   5.402  51.315  1.00  0.00     0.138 A 
HETATM   21  F1  UNL     1      24.559   6.648  51.433  1.00  0.00    -0.204 F 
HETATM   22  C14 UNL     1      24.263   4.645  50.184  1.00  0.00     0.074 A 
HETATM   23 CL1  UNL     1      25.215   5.373  48.914  1.00  0.00    -0.081 Cl
HETATM   24  C15 UNL     1      23.725   3.378  50.110  1.00  0.00     0.056 A 
ENDBRANCH  15  17
ENDBRANCH  12  15
BRANCH   1  25
HETATM   25  O1  UNL     1      26.254   1.588  52.792  1.00  0.00    -0.363 OA
HETATM   26  C1  UNL     1      26.837   2.289  51.726  1.00  0.00     0.204 C 
ENDBRANCH   1  25
TORSDOF 3
ENDMDL
MODEL 2
REMARK VINA RESULT:      -7.5      3.680      6.153
REMARK  3 active torsions:
REMARK  status: ('A' for Active; 'I' for Inactive)
REMARK    1  A    between atoms: O1_2  and  C2_3 
REMARK    2  A    between atoms: C9_14  and  N3_15 
REMARK    3  A    between atoms: N3_15  and  C10_16 
ROOT
HETATM    1  C2  UNL     1      22.272   0.613  52.796  1.00  0.00     0.289 C 
HETATM    2  C3  UNL     1      21.578  -0.490  51.957  1.00  0.00     0.231 C 
HETATM    3  O2  UNL     1      21.059   0.085  50.852  1.00  0.00    -0.362 OA
HETATM    4  C4  UNL     1      20.221   1.146  50.960  1.00  0.00     0.343 C 
HETATM    5  O3  UNL     1      19.885   1.531  49.572  1.00  0.00    -0.338 OA
HETATM    6  C5  UNL     1      21.056   1.671  48.757  1.00  0.00     0.140 C 
HETATM    7  C6  UNL     1      22.311   2.024  48.889  1.00  0.00     0.059 C 
HETATM    8  C7  UNL     1      23.318   2.476  49.825  1.00  0.00     0.097 A 
HETATM    9  N1  UNL     1      24.175   3.351  49.237  1.00  0.00    -0.239 NA
HETATM   10  C8  UNL     1      25.207   3.930  49.830  1.00  0.00     0.236 A 
HETATM   11  N2  UNL     1      25.407   3.622  51.093  1.00  0.00    -0.221 NA
HETATM   12  C9  UNL     1      24.605   2.762  51.767  1.00  0.00     0.165 A 
HETATM   13  C16 UNL     1      23.532   2.162  51.147  1.00  0.00     0.146 A 
HETATM   14  O4  UNL     1      22.919   1.409  51.949  1.00  0.00    -0.312 OA
ENDROOT
BRANCH  12  15
HETATM   15  N3  UNL     1      25.179   2.697  53.088  1.00  0.00    -0.339 N 
HETATM   16  H12 UNL     1      24.905   3.126  54.026  1.00  0.00     0.167 HD
BRANCH  15  17
HETATM   17  C10 UNL     1      26.367   1.875  53.117  1.00  0.00     0.035 A 
HETATM   18  C11 UNL     1      27.659   2.228  53.441  1.00  0.00     0.032 A 
HETATM   19  C12 UNL     1      28.677   1.296  53.460  1.00  0.00     0.046 A 
HETATM   20  C13 UNL     1      28.413  -0.035  53.149  1.00  0.00     0.138 A 
HETATM   21  F1  UNL     1      29.431  -0.920  53.173  1.00  0.00    -0.204 F 
HETATM   22  C14 UNL     1      27.132  -0.417  52.821  1.00  0.00     0.074 A 
HETATM   23 CL1  UNL     1      26.888  -2.104  52.443  1.00  0.00    -0.081 Cl
HETATM   24  C15 UNL     1      26.128   0.527  52.807  1.00  0.00     0.056 A 
ENDBRANCH  15  17
ENDBRANCH  12  15
BRANCH   1  25
HETATM   25  O1  UNL     1      21.236   1.353  53.453  1.00  0.00    -0.363 OA
HETATM   26  C1  UNL     1      20.789   0.502  54.475  1.00  0.00     0.204 C 
ENDBRANCH   1  25
TORSDOF 3
ENDMDL
MODEL 3
REMARK VINA RESULT:      -7.5      2.148      2.544
REMARK  3 active torsions:
REMARK  status: ('A' for Active; 'I' for Inactive)
REMARK    1  A    between atoms: O1_2  and  C2_3 
REMARK    2  A    between atoms: C9_14  and  N3_15 
REMARK    3  A    between atoms: N3_15  and  C10_16 
ROOT
HETATM    1  C2  UNL     1      25.842   1.122  52.495  1.00  0.00     0.289 C 
HETATM    2  C3  UNL     1      26.297  -0.356  52.597  1.00  0.00     0.231 C 
HETATM    3  O2  UNL     1      25.641  -0.928  53.627  1.00  0.00    -0.362 OA
HETATM    4  C4  UNL     1      25.685  -0.371  54.863  1.00  0.00     0.343 C 
HETATM    5  O3  UNL     1      24.838  -1.230  55.718  1.00  0.00    -0.338 OA
HETATM    6  C5  UNL     1      23.554  -1.474  55.128  1.00  0.00     0.140 C 
HETATM    7  C6  UNL     1      22.698  -0.864  54.345  1.00  0.00     0.059 C 
HETATM    8  C7  UNL     1      22.440   0.346  53.595  1.00  0.00     0.097 A 
HETATM    9  N1  UNL     1      21.119   0.663  53.617  1.00  0.00    -0.239 NA
HETATM   10  C8  UNL     1      20.570   1.706  53.014  1.00  0.00     0.236 A 
HETATM   11  N2  UNL     1      21.383   2.490  52.341  1.00  0.00    -0.221 NA
HETATM   12  C9  UNL     1      22.716   2.259  52.263  1.00  0.00     0.165 A 
HETATM   13  C16 UNL     1      23.285   1.174  52.892  1.00  0.00     0.146 A 
HETATM   14  O4  UNL     1      24.529   1.149  52.699  1.00  0.00    -0.312 OA
ENDROOT
BRANCH  12  15
HETATM   15  N3  UNL     1      23.218   3.327  51.434  1.00  0.00    -0.339 N 
HETATM   16  H12 UNL     1      23.766   4.219  51.642  1.00  0.00     0.167 HD
BRANCH  15  17
HETATM   17  C10 UNL     1      22.896   3.120  50.040  1.00  0.00     0.035 A 
HETATM   18  C11 UNL     1      22.561   1.952  49.392  1.00  0.00     0.032 A 
HETATM   19  C12 UNL     1      22.237   1.942  48.049  1.00  0.00     0.046 A 
HETATM   20  C13 UNL     1      22.241   3.127  47.319  1.00  0.00     0.138 A 
HETATM   21  F1  UNL     1      21.922   3.082  46.009  1.00  0.00    -0.204 F 
HETATM   22  C14 UNL     1      22.571   4.309  47.941  1.00  0.00     0.074 A 
HETATM   23 CL1  UNL     1      22.552   5.748  46.953  1.00  0.00    -0.081 Cl
HETATM   24  C15 UNL     1      22.892   4.302  49.282  1.00  0.00     0.056 A 
ENDBRANCH  15  17
ENDBRANCH  12  15
BRANCH   1  25
HETATM   25  O1  UNL     1      26.506   1.837  53.544  1.00  0.00    -0.363 OA
HETATM   26  C1  UNL     1      27.781   2.115  53.030  1.00  0.00     0.204 C 
ENDBRANCH   1  25
TORSDOF 3
ENDMDL
MODEL 4
REMARK VINA RESULT:      -7.5      1.480      1.930
REMARK  3 active torsions:
REMARK  status: ('A' for Active; 'I' for Inactive)
REMARK    1  A    between atoms: O1_2  and  C2_3 
REMARK    2  A    between atoms: C9_14  and  N3_15 
REMARK    3  A    between atoms: N3_15  and  C10_16 
ROOT
HETATM    1  C2  UNL     1      27.359   1.157  52.806  1.00  0.00     0.289 C 
HETATM    2  C3  UNL     1      27.857  -0.193  53.383  1.00  0.00     0.231 C 
HETATM    3  O2  UNL     1      26.933  -0.644  54.257  1.00  0.00    -0.362 OA
HETATM    4  C4  UNL     1      26.516   0.143  55.281  1.00  0.00     0.343 C 
HETATM    5  O3  UNL     1      25.493  -0.647  56.000  1.00  0.00    -0.338 OA
HETATM    6  C5  UNL     1      24.505  -1.182  55.108  1.00  0.00     0.140 C 
HETATM    7  C6  UNL     1      23.924  -0.864  53.978  1.00  0.00     0.059 C 
HETATM    8  C7  UNL     1      23.849   0.129  52.928  1.00  0.00     0.097 A 
HETATM    9  N1  UNL     1      22.580   0.252  52.459  1.00  0.00    -0.239 NA
HETATM   10  C8  UNL     1      22.195   1.069  51.491  1.00  0.00     0.236 A 
HETATM   11  N2  UNL     1      23.130   1.817  50.947  1.00  0.00    -0.221 NA
HETATM   12  C9  UNL     1      24.424   1.768  51.348  1.00  0.00     0.165 A 
HETATM   13  C16 UNL     1      24.821   0.918  52.355  1.00  0.00     0.146 A 
HETATM   14  O4  UNL     1      26.056   1.034  52.575  1.00  0.00    -0.312 OA
ENDROOT
BRANCH  12  15
HETATM   15  N3  UNL     1      25.099   2.716  50.497  1.00  0.00    -0.339 N 
HETATM   16  H12 UNL     1      25.819   2.616  49.717  1.00  0.00     0.167 HD
BRANCH  15  17
HETATM   17  C10 UNL     1      24.695   4.075  50.783  1.00  0.00     0.035 A 
HETATM   18  C11 UNL     1      23.839   4.539  51.757  1.00  0.00     0.032 A 
HETATM   19  C12 UNL     1      23.597   5.888  51.919  1.00  0.00     0.046 A 
HETATM   20  C13 UNL     1      24.221   6.816  51.091  1.00  0.00     0.138 A 
HETATM   21  F1  UNL     1      23.960   8.127  51.273  1.00  0.00    -0.204 F 
HETATM   22  C14 UNL     1      25.081   6.382  50.108  1.00  0.00     0.074 A 
HETATM   23 CL1  UNL     1      25.821   7.610  49.112  1.00  0.00    -0.081 Cl
HETATM   24  C15 UNL     1      25.312   5.031  49.960  1.00  0.00     0.056 A 
ENDBRANCH  15  17
ENDBRANCH  12  15
BRANCH   1  25
HETATM   25  O1  UNL     1      27.576   2.148  53.817  1.00  0.00    -0.363 OA
HETATM   26  C1  UNL     1      28.944   2.446  53.732  1.00  0.00     0.204 C 
ENDBRANCH   1  25
TORSDOF 3
ENDMDL
MODEL 5
REMARK VINA RESULT:      -7.5      3.483      5.744
REMARK  3 active torsions:
REMARK  status: ('A' for Active; 'I' for Inactive)
REMARK    1  A    between atoms: O1_2  and  C2_3 
REMARK    2  A    between atoms: C9_14  and  N3_15 
REMARK    3  A    between atoms: N3_15  and  C10_16 
ROOT
HETATM    1  C2  UNL     1      24.197   3.707  50.553  1.00  0.00     0.289 C 
HETATM    2  C3  UNL     1      23.215   4.519  49.671  1.00  0.00     0.231 C 
HETATM    3  O2  UNL     1      22.463   3.648  48.966  1.00  0.00    -0.362 OA
HETATM    4  C4  UNL     1      23.053   2.696  48.201  1.00  0.00     0.343 C 
HETATM    5  O3  UNL     1      21.944   1.914  47.613  1.00  0.00    -0.338 OA
HETATM    6  C5  UNL     1      20.997   1.498  48.606  1.00  0.00     0.140 C 
HETATM    7  C6  UNL     1      20.981   1.167  49.874  1.00  0.00     0.059 C 
HETATM    8  C7  UNL     1      21.793   0.995  51.059  1.00  0.00     0.097 A 
HETATM    9  N1  UNL     1      21.344  -0.042  51.814  1.00  0.00    -0.239 NA
HETATM   10  C8  UNL     1      21.871  -0.441  52.962  1.00  0.00     0.236 A 
HETATM   11  N2  UNL     1      22.914   0.234  53.394  1.00  0.00    -0.221 NA
HETATM   12  C9  UNL     1      23.436   1.281  52.711  1.00  0.00     0.165 A 
HETATM   13  C16 UNL     1      22.887   1.693  51.518  1.00  0.00     0.146 A 
HETATM   14  O4  UNL     1      23.524   2.672  51.048  1.00  0.00    -0.312 OA
ENDROOT
BRANCH  12  15
HETATM   15  N3  UNL     1      24.535   1.731  53.529  1.00  0.00    -0.339 N 
HETATM   16  H12 UNL     1      24.650   2.533  54.224  1.00  0.00     0.167 HD
BRANCH  15  17
HETATM   17  C10 UNL     1      25.708   0.905  53.353  1.00  0.00     0.035 A 
HETATM   18  C11 UNL     1      25.838  -0.282  52.666  1.00  0.00     0.032 A 
HETATM   19  C12 UNL     1      27.056  -0.923  52.560  1.00  0.00     0.046 A 
HETATM   20  C13 UNL     1      28.190  -0.372  53.151  1.00  0.00     0.138 A 
HETATM   21  F1  UNL     1      29.365  -1.025  53.031  1.00  0.00    -0.204 F 
HETATM   22  C14 UNL     1      28.091   0.813  53.843  1.00  0.00     0.074 A 
HETATM   23 CL1  UNL     1      29.560   1.433  54.554  1.00  0.00    -0.081 Cl
HETATM   24  C15 UNL     1      26.867   1.439  53.939  1.00  0.00     0.056 A 
ENDBRANCH  15  17
ENDBRANCH  12  15
BRANCH   1  25
HETATM   25  O1  UNL     1      25.239   3.234  49.691  1.00  0.00    -0.363 OA
HETATM   26  C1  UNL     1      26.371   3.157  50.516  1.00  0.00     0.204 C 
ENDBRANCH   1  25
TORSDOF 3
ENDMDL
MODEL 6
REMARK VINA RESULT:      -7.3      2.118      3.575
REMARK  3 active torsions:
REMARK  status: ('A' for Active; 'I' for Inactive)
REMARK    1  A    between atoms: O1_2  and  C2_3 
REMARK    2  A    between atoms: C9_14  and  N3_15 
REMARK    3  A    between atoms: N3_15  and  C10_16 
ROOT
HETATM    1  C2  UNL     1      20.989   0.939  52.896  1.00  0.00     0.289 C 
HETATM    2  C3  UNL     1      20.551   0.842  54.379  1.00  0.00     0.231 C 
HETATM    3  O2  UNL     1      21.253  -0.153  54.961  1.00  0.00    -0.362 OA
HETATM    4  C4  UNL     1      21.254  -1.398  54.423  1.00  0.00     0.343 C 
HETATM    5  O3  UNL     1      22.142  -2.205  55.288  1.00  0.00    -0.338 OA
HETATM    6  C5  UNL     1      23.403  -1.560  55.511  1.00  0.00     0.140 C 
HETATM    7  C6  UNL     1      24.222  -0.753  54.881  1.00  0.00     0.059 C 
HETATM    8  C7  UNL     1      24.439  -0.013  53.658  1.00  0.00     0.097 A 
HETATM    9  N1  UNL     1      25.758   0.014  53.329  1.00  0.00    -0.239 NA
HETATM   10  C8  UNL     1      26.273   0.622  52.272  1.00  0.00     0.236 A 
HETATM   11  N2  UNL     1      25.426   1.249  51.484  1.00  0.00    -0.221 NA
HETATM   12  C9  UNL     1      24.093   1.277  51.727  1.00  0.00     0.165 A 
HETATM   13  C16 UNL     1      23.560   0.643  52.826  1.00  0.00     0.146 A 
HETATM   14  O4  UNL     1      22.309   0.786  52.860  1.00  0.00    -0.312 OA
ENDROOT
BRANCH  12  15
HETATM   15  N3  UNL     1      23.550   2.068  50.651  1.00  0.00    -0.339 N 
HETATM   16  H12 UNL     1      23.098   1.821  49.716  1.00  0.00     0.167 HD
BRANCH  15  17
HETATM   17  C10 UNL     1      23.653   3.484  50.922  1.00  0.00     0.035 A 
HETATM   18  C11 UNL     1      23.309   4.177  52.062  1.00  0.00     0.032 A 
HETATM   19  C12 UNL     1      23.517   5.538  52.168  1.00  0.00     0.046 A 
HETATM   20  C13 UNL     1      24.087   6.243  51.112  1.00  0.00     0.138 A 
HETATM   21  F1  UNL     1      24.274   7.572  51.247  1.00  0.00    -0.204 F 
HETATM   22  C14 UNL     1      24.441   5.578  49.961  1.00  0.00     0.074 A 
HETATM   23 CL1  UNL     1      25.149   6.537  48.685  1.00  0.00    -0.081 Cl
HETATM   24  C15 UNL     1      24.227   4.219  49.871  1.00  0.00     0.056 A 
ENDBRANCH  15  17
ENDBRANCH  12  15
BRANCH   1  25
HETATM   25  O1  UNL     1      20.362  -0.148  52.203  1.00  0.00    -0.363 OA
HETATM   26  C1  UNL     1      19.866   0.426  51.023  1.00  0.00     0.204 C 
ENDBRANCH   1  25
TORSDOF 3
ENDMDL
MODEL 7
REMARK VINA RESULT:      -7.2      2.470      3.313
REMARK  3 active torsions:
REMARK  status: ('A' for Active; 'I' for Inactive)
REMARK    1  A    between atoms: O1_2  and  C2_3 
REMARK    2  A    between atoms: C9_14  and  N3_15 
REMARK    3  A    between atoms: N3_15  and  C10_16 
ROOT
HETATM    1  C2  UNL     1      23.974   2.742  52.162  1.00  0.00     0.289 C 
HETATM    2  C3  UNL     1      25.403   2.347  51.708  1.00  0.00     0.231 C 
HETATM    3  O2  UNL     1      25.975   1.628  52.696  1.00  0.00    -0.362 OA
HETATM    4  C4  UNL     1      26.038   2.122  53.957  1.00  0.00     0.343 C 
HETATM    5  O3  UNL     1      26.685   1.068  54.768  1.00  0.00    -0.338 OA
HETATM    6  C5  UNL     1      26.070  -0.212  54.570  1.00  0.00     0.140 C 
HETATM    7  C6  UNL     1      24.887  -0.705  54.295  1.00  0.00     0.059 C 
HETATM    8  C7  UNL     1      23.505  -0.373  54.025  1.00  0.00     0.097 A 
HETATM    9  N1  UNL     1      22.666  -1.306  54.548  1.00  0.00    -0.239 NA
HETATM   10  C8  UNL     1      21.345  -1.287  54.458  1.00  0.00     0.236 A 
HETATM   11  N2  UNL     1      20.816  -0.276  53.804  1.00  0.00    -0.221 NA
HETATM   12  C9  UNL     1      21.569   0.704  53.249  1.00  0.00     0.165 A 
HETATM   13  C16 UNL     1      22.942   0.683  53.345  1.00  0.00     0.146 A 
HETATM   14  O4  UNL     1      23.444   1.684  52.770  1.00  0.00    -0.312 OA
ENDROOT
BRANCH  12  15
HETATM   15  N3  UNL     1      20.610   1.585  52.629  1.00  0.00    -0.339 N 
HETATM   16  H12 UNL     1      19.790   2.155  53.004  1.00  0.00     0.167 HD
BRANCH  15  17
HETATM   17  C10 UNL     1      20.831   1.700  51.205  1.00  0.00     0.035 A 
HETATM   18  C11 UNL     1      21.170   0.721  50.298  1.00  0.00     0.032 A 
HETATM   19  C12 UNL     1      21.300   1.001  48.952  1.00  0.00     0.046 A 
HETATM   20  C13 UNL     1      21.086   2.293  48.481  1.00  0.00     0.138 A 
HETATM   21  F1  UNL     1      21.224   2.534  47.161  1.00  0.00    -0.204 F 
HETATM   22  C14 UNL     1      20.746   3.292  49.365  1.00  0.00     0.074 A 
HETATM   23 CL1  UNL     1      20.496   4.884  48.693  1.00  0.00    -0.081 Cl
HETATM   24  C15 UNL     1      20.620   2.996  50.705  1.00  0.00     0.056 A 
ENDBRANCH  15  17
ENDBRANCH  12  15
BRANCH   1  25
HETATM   25  O1  UNL     1      24.116   3.814  53.101  1.00  0.00    -0.363 OA
HETATM   26  C1  UNL     1      23.256   4.815  52.626  1.00  0.00     0.204 C 
ENDBRANCH   1  25
TORSDOF 3
ENDMDL
MODEL 8
REMARK VINA RESULT:      -7.2      2.996      4.584
REMARK  3 active torsions:
REMARK  status: ('A' for Active; 'I' for Inactive)
REMARK    1  A    between atoms: O1_2  and  C2_3 
REMARK    2  A    between atoms: C9_14  and  N3_15 
REMARK    3  A    between atoms: N3_15  and  C10_16 
ROOT
HETATM    1  C2  UNL     1      22.252   2.630  49.973  1.00  0.00     0.289 C 
HETATM    2  C3  UNL     1      21.124   2.543  51.033  1.00  0.00     0.231 C 
HETATM    3  O2  UNL     1      21.409   1.523  51.868  1.00  0.00    -0.362 OA
HETATM    4  C4  UNL     1      21.645   0.280  51.378  1.00  0.00     0.343 C 
HETATM    5  O3  UNL     1      21.953  -0.561  52.554  1.00  0.00    -0.338 OA
HETATM    6  C5  UNL     1      22.949   0.039  53.395  1.00  0.00     0.140 C 
HETATM    7  C6  UNL     1      23.996   0.818  53.279  1.00  0.00     0.059 C 
HETATM    8  C7  UNL     1      24.821   1.555  52.347  1.00  0.00     0.097 A 
HETATM    9  N1  UNL     1      26.126   1.536  52.726  1.00  0.00    -0.239 NA
HETATM   10  C8  UNL     1      27.120   2.129  52.084  1.00  0.00     0.236 A 
HETATM   11  N2  UNL     1      26.803   2.789  50.991  1.00  0.00    -0.221 NA
HETATM   12  C9  UNL     1      25.530   2.863  50.531  1.00  0.00     0.165 A 
HETATM   13  C16 UNL     1      24.498   2.245  51.200  1.00  0.00     0.146 A 
HETATM   14  O4  UNL     1      23.405   2.432  50.603  1.00  0.00    -0.312 OA
ENDROOT
BRANCH  12  15
HETATM   15  N3  UNL     1      25.626   3.677  49.345  1.00  0.00    -0.339 N 
HETATM   16  H12 UNL     1      25.729   3.449  48.307  1.00  0.00     0.167 HD
BRANCH  15  17
HETATM   17  C10 UNL     1      25.565   5.087  49.655  1.00  0.00     0.035 A 
HETATM   18  C11 UNL     1      24.719   5.750  50.518  1.00  0.00     0.032 A 
HETATM   19  C12 UNL     1      24.829   7.110  50.731  1.00  0.00     0.046 A 
HETATM   20  C13 UNL     1      25.809   7.844  50.070  1.00  0.00     0.138 A 
HETATM   21  F1  UNL     1      25.888   9.172  50.298  1.00  0.00    -0.204 F 
HETATM   22  C14 UNL     1      26.668   7.209  49.203  1.00  0.00     0.074 A 
HETATM   23 CL1  UNL     1      27.867   8.204  48.415  1.00  0.00    -0.081 Cl
HETATM   24  C15 UNL     1      26.545   5.851  49.002  1.00  0.00     0.056 A 
ENDBRANCH  15  17
ENDBRANCH  12  15
BRANCH   1  25
HETATM   25  O1  UNL     1      22.027   1.569  49.036  1.00  0.00    -0.363 OA
HETATM   26  C1  UNL     1      22.428   2.099  47.801  1.00  0.00     0.204 C 
ENDBRANCH   1  25
TORSDOF 3
ENDMDL
MODEL 9
REMARK VINA RESULT:      -7.1      3.526      5.899
REMARK  3 active torsions:
REMARK  status: ('A' for Active; 'I' for Inactive)
REMARK    1  A    between atoms: O1_2  and  C2_3 
REMARK    2  A    between atoms: C9_14  and  N3_15 
REMARK    3  A    between atoms: N3_15  and  C10_16 
ROOT
HETATM    1  C2  UNL     1      22.801   0.861  51.375  1.00  0.00     0.289 C 
HETATM    2  C3  UNL     1      21.331   0.602  50.957  1.00  0.00     0.231 C 
HETATM    3  O2  UNL     1      20.599   1.683  51.299  1.00  0.00    -0.362 OA
HETATM    4  C4  UNL     1      20.616   2.148  52.573  1.00  0.00     0.343 C 
HETATM    5  O3  UNL     1      19.744   3.342  52.573  1.00  0.00    -0.338 OA
HETATM    6  C5  UNL     1      20.078   4.249  51.514  1.00  0.00     0.140 C 
HETATM    7  C6  UNL     1      21.135   4.629  50.839  1.00  0.00     0.059 C 
HETATM    8  C7  UNL     1      22.562   4.446  50.680  1.00  0.00     0.097 A 
HETATM    9  N1  UNL     1      23.173   5.617  50.359  1.00  0.00    -0.239 NA
HETATM   10  C8  UNL     1      24.469   5.770  50.139  1.00  0.00     0.236 A 
HETATM   11  N2  UNL     1      25.214   4.691  50.242  1.00  0.00    -0.221 NA
HETATM   12  C9  UNL     1      24.697   3.479  50.560  1.00  0.00     0.165 A 
HETATM   13  C16 UNL     1      23.349   3.323  50.789  1.00  0.00     0.146 A 
HETATM   14  O4  UNL     1      23.082   2.126  51.074  1.00  0.00    -0.312 OA
ENDROOT
BRANCH  12  15
HETATM   15  N3  UNL     1      25.834   2.592  50.549  1.00  0.00    -0.339 N 
HETATM   16  H12 UNL     1      26.535   2.309  49.797  1.00  0.00     0.167 HD
BRANCH  15  17
HETATM   17  C10 UNL     1      26.041   1.972  51.839  1.00  0.00     0.035 A 
HETATM   18  C11 UNL     1      25.883   2.511  53.096  1.00  0.00     0.032 A 
HETATM   19  C12 UNL     1      26.084   1.755  54.234  1.00  0.00     0.046 A 
HETATM   20  C13 UNL     1      26.452   0.417  54.130  1.00  0.00     0.138 A 
HETATM   21  F1  UNL     1      26.644  -0.293  55.261  1.00  0.00    -0.204 F 
HETATM   22  C14 UNL     1      26.618  -0.149  52.886  1.00  0.00     0.074 A 
HETATM   23 CL1  UNL     1      27.082  -1.831  52.844  1.00  0.00    -0.081 Cl
HETATM   24  C15 UNL     1      26.413   0.620  51.760  1.00  0.00     0.056 A 
ENDBRANCH  15  17
ENDBRANCH  12  15
BRANCH   1  25
HETATM   25  O1  UNL     1      22.870   0.678  52.794  1.00  0.00    -0.363 OA
HETATM   26  C1  UNL     1      22.895  -0.713  52.970  1.00  0.00     0.204 C 
ENDBRANCH   1  25
TORSDOF 3
ENDMDL
