MODEL 1
REMARK VINA RESULT:      -8.3      0.000      0.000
REMARK  5 active torsions:
REMARK  status: ('A' for Active; 'I' for Inactive)
REMARK    1  A    between atoms: C2_3  and  C3_4 
REMARK    2  A    between atoms: C6_7  and  C7_8 
REMARK    3  A    between atoms: C7_8  and  O2_9 
REMARK    4  A    between atoms: C12_15  and  O4_16 
REMARK    5  A    between atoms: C14_18  and  O5_19 
ROOT
HETATM    1  O1  UNL     1      23.575  -1.141  54.682  1.00  0.00    -0.286 OA
HETATM    2  C1  UNL     1      23.436  -0.414  53.697  1.00  0.00     0.200 A 
HETATM    3  C2  UNL     1      24.520   0.135  53.059  1.00  0.00     0.047 A 
HETATM    4  C9  UNL     1      24.200   0.927  51.970  1.00  0.00     0.159 A 
HETATM    5  O3  UNL     1      22.966   1.142  51.574  1.00  0.00    -0.321 OA
HETATM    6  C10 UNL     1      21.907   0.628  52.169  1.00  0.00     0.094 A 
HETATM    7  C11 UNL     1      20.613   0.857  51.750  1.00  0.00     0.074 A 
HETATM    8  C12 UNL     1      19.524   0.288  52.415  1.00  0.00     0.071 A 
HETATM    9  C13 UNL     1      19.749  -0.522  53.519  1.00  0.00     0.074 A 
HETATM   10  C14 UNL     1      21.051  -0.721  53.900  1.00  0.00     0.085 A 
HETATM   11  C15 UNL     1      22.150  -0.176  53.267  1.00  0.00     0.082 A 
ENDROOT
BRANCH   3  12
HETATM   12  C3  UNL     1      25.885  -0.081  53.466  1.00  0.00    -0.023 A 
HETATM   13  C4  UNL     1      26.616   0.560  54.334  1.00  0.00    -0.010 A 
HETATM   14  C5  UNL     1      28.000   0.022  54.472  1.00  0.00     0.064 A 
HETATM   15  C6  UNL     1      27.953  -1.106  53.483  1.00  0.00    -0.052 A 
HETATM   16  C8  UNL     1      26.747  -1.131  52.938  1.00  0.00     0.017 A 
BRANCH  15  17
HETATM   17  C7  UNL     1      29.140  -1.958  53.266  1.00  0.00     0.198 C 
BRANCH  17  18
HETATM   18  O2  UNL     1      28.772  -3.301  53.422  1.00  0.00    -0.397 OA
HETATM   19  H6  UNL     1      29.034  -3.615  54.342  1.00  0.00     0.209 HD
ENDBRANCH  17  18
ENDBRANCH  15  17
ENDBRANCH   3  12
BRANCH  10  20
HETATM   20  O5  UNL     1      21.304  -1.533  55.010  1.00  0.00    -0.360 OA
HETATM   21  H12 UNL     1      21.451  -2.511  54.910  1.00  0.00     0.217 HD
ENDBRANCH  10  20
BRANCH   8  22
HETATM   22  O4  UNL     1      18.220   0.516  51.995  1.00  0.00    -0.361 OA
HETATM   23  H10 UNL     1      17.561   0.921  52.641  1.00  0.00     0.217 HD
ENDBRANCH   8  22
TORSDOF 5
ENDMDL
MODEL 2
REMARK VINA RESULT:      -7.8      1.901      2.932
REMARK  5 active torsions:
REMARK  status: ('A' for Active; 'I' for Inactive)
REMARK    1  A    between atoms: C2_3  and  C3_4 
REMARK    2  A    between atoms: C6_7  and  C7_8 
REMARK    3  A    between atoms: C7_8  and  O2_9 
REMARK    4  A    between atoms: C12_15  and  O4_16 
REMARK    5  A    between atoms: C14_18  and  O5_19 
ROOT
HETATM    1  O1  UNL     1      25.540   2.678  52.764  1.00  0.00    -0.286 OA
HETATM    2  C1  UNL     1      24.655   1.846  52.974  1.00  0.00     0.200 A 
HETATM    3  C2  UNL     1      24.959   0.578  53.402  1.00  0.00     0.047 A 
HETATM    4  C9  UNL     1      23.857  -0.238  53.592  1.00  0.00     0.159 A 
HETATM    5  O3  UNL     1      22.622   0.159  53.383  1.00  0.00    -0.321 OA
HETATM    6  C10 UNL     1      22.304   1.371  52.971  1.00  0.00     0.094 A 
HETATM    7  C11 UNL     1      21.006   1.783  52.753  1.00  0.00     0.074 A 
HETATM    8  C12 UNL     1      20.720   3.080  52.316  1.00  0.00     0.071 A 
HETATM    9  C13 UNL     1      21.762   3.969  52.099  1.00  0.00     0.074 A 
HETATM   10  C14 UNL     1      23.036   3.516  52.328  1.00  0.00     0.085 A 
HETATM   11  C15 UNL     1      23.354   2.244  52.759  1.00  0.00     0.082 A 
ENDROOT
BRANCH   3  12
HETATM   12  C3  UNL     1      26.300   0.111  53.641  1.00  0.00    -0.023 A 
HETATM   13  C4  UNL     1      27.221   0.569  54.440  1.00  0.00    -0.010 A 
HETATM   14  C5  UNL     1      28.496  -0.204  54.399  1.00  0.00     0.064 A 
HETATM   15  C6  UNL     1      28.145  -1.252  53.382  1.00  0.00    -0.052 A 
HETATM   16  C8  UNL     1      26.902  -1.041  52.979  1.00  0.00     0.017 A 
BRANCH  15  17
HETATM   17  C7  UNL     1      29.134  -2.281  52.999  1.00  0.00     0.198 C 
BRANCH  17  18
HETATM   18  O2  UNL     1      28.651  -3.540  53.379  1.00  0.00    -0.397 OA
HETATM   19  H6  UNL     1      27.934  -3.833  52.736  1.00  0.00     0.209 HD
ENDBRANCH  17  18
ENDBRANCH  15  17
ENDBRANCH   3  12
BRANCH  10  20
HETATM   20  O5  UNL     1      24.104   4.393  52.116  1.00  0.00    -0.360 OA
HETATM   21  H12 UNL     1      24.424   4.603  51.200  1.00  0.00     0.217 HD
ENDBRANCH  10  20
BRANCH   8  22
HETATM   22  O4  UNL     1      19.414   3.498  52.096  1.00  0.00    -0.361 OA
HETATM   23  H10 UNL     1      18.656   2.870  52.312  1.00  0.00     0.217 HD
ENDBRANCH   8  22
TORSDOF 5
ENDMDL
MODEL 3
REMARK VINA RESULT:      -7.8      1.798      2.923
REMARK  5 active torsions:
REMARK  status: ('A' for Active; 'I' for Inactive)
REMARK    1  A    between atoms: C2_3  and  C3_4 
REMARK    2  A    between atoms: C6_7  and  C7_8 
REMARK    3  A    between atoms: C7_8  and  O2_9 
REMARK    4  A    between atoms: C12_15  and  O4_16 
REMARK    5  A    between atoms: C14_18  and  O5_19 
ROOT
HETATM    1  O1  UNL     1      24.319   0.638  52.127  1.00  0.00    -0.286 OA
HETATM    2  C1  UNL     1      23.989  -0.024  53.113  1.00  0.00     0.200 A 
HETATM    3  C2  UNL     1      24.925  -0.495  53.998  1.00  0.00     0.047 A 
HETATM    4  C9  UNL     1      24.398  -1.220  55.053  1.00  0.00     0.159 A 
HETATM    5  O3  UNL     1      23.111  -1.443  55.201  1.00  0.00    -0.321 OA
HETATM    6  C10 UNL     1      22.192  -1.002  54.365  1.00  0.00     0.094 A 
HETATM    7  C11 UNL     1      20.842  -1.238  54.525  1.00  0.00     0.074 A 
HETATM    8  C12 UNL     1      19.906  -0.748  53.611  1.00  0.00     0.071 A 
HETATM    9  C13 UNL     1      20.343  -0.009  52.520  1.00  0.00     0.074 A 
HETATM   10  C14 UNL     1      21.693   0.200  52.401  1.00  0.00     0.085 A 
HETATM   11  C15 UNL     1      22.645  -0.268  53.285  1.00  0.00     0.082 A 
ENDROOT
BRANCH   3  12
HETATM   12  C3  UNL     1      26.341  -0.269  53.866  1.00  0.00    -0.023 A 
HETATM   13  C4  UNL     1      27.272  -1.030  53.362  1.00  0.00    -0.010 A 
HETATM   14  C5  UNL     1      28.635  -0.428  53.410  1.00  0.00     0.064 A 
HETATM   15  C6  UNL     1      28.329   0.889  54.064  1.00  0.00    -0.052 A 
HETATM   16  C8  UNL     1      27.028   0.940  54.305  1.00  0.00     0.017 A 
BRANCH  15  17
HETATM   17  C7  UNL     1      29.409   1.860  54.329  1.00  0.00     0.198 C 
BRANCH  17  18
HETATM   18  O2  UNL     1      29.400   2.838  53.324  1.00  0.00    -0.397 OA
HETATM   19  H6  UNL     1      30.345   3.036  53.040  1.00  0.00     0.209 HD
ENDBRANCH  17  18
ENDBRANCH  15  17
ENDBRANCH   3  12
BRANCH  10  20
HETATM   20  O5  UNL     1      22.160   0.942  51.311  1.00  0.00    -0.360 OA
HETATM   21  H12 UNL     1      21.598   1.080  50.504  1.00  0.00     0.217 HD
ENDBRANCH  10  20
BRANCH   8  22
HETATM   22  O4  UNL     1      18.547  -0.985  53.769  1.00  0.00    -0.361 OA
HETATM   23  H10 UNL     1      18.063  -1.537  53.080  1.00  0.00     0.217 HD
ENDBRANCH   8  22
TORSDOF 5
ENDMDL
MODEL 4
REMARK VINA RESULT:      -7.5      3.058      4.510
REMARK  5 active torsions:
REMARK  status: ('A' for Active; 'I' for Inactive)
REMARK    1  A    between atoms: C2_3  and  C3_4 
REMARK    2  A    between atoms: C6_7  and  C7_8 
REMARK    3  A    between atoms: C7_8  and  O2_9 
REMARK    4  A    between atoms: C12_15  and  O4_16 
REMARK    5  A    between atoms: C14_18  and  O5_19 
ROOT
HETATM    1  O1  UNL     1      27.297   2.907  51.184  1.00  0.00    -0.286 OA
HETATM    2  C1  UNL     1      26.208   2.357  51.362  1.00  0.00     0.200 A 
HETATM    3  C2  UNL     1      26.102   1.219  52.121  1.00  0.00     0.047 A 
HETATM    4  C9  UNL     1      24.815   0.722  52.227  1.00  0.00     0.159 A 
HETATM    5  O3  UNL     1      23.776   1.286  51.653  1.00  0.00    -0.321 OA
HETATM    6  C10 UNL     1      23.851   2.379  50.919  1.00  0.00     0.094 A 
HETATM    7  C11 UNL     1      22.757   2.968  50.319  1.00  0.00     0.074 A 
HETATM    8  C12 UNL     1      22.888   4.127  49.550  1.00  0.00     0.071 A 
HETATM    9  C13 UNL     1      24.143   4.697  49.388  1.00  0.00     0.074 A 
HETATM   10  C14 UNL     1      25.201   4.078  50.002  1.00  0.00     0.085 A 
HETATM   11  C15 UNL     1      25.108   2.933  50.768  1.00  0.00     0.082 A 
ENDROOT
BRANCH   3  12
HETATM   12  C3  UNL     1      27.219   0.575  52.764  1.00  0.00    -0.023 A 
HETATM   13  C4  UNL     1      28.117   1.059  53.575  1.00  0.00    -0.010 A 
HETATM   14  C5  UNL     1      29.124   0.057  54.029  1.00  0.00     0.064 A 
HETATM   15  C6  UNL     1      28.636  -1.165  53.305  1.00  0.00    -0.052 A 
HETATM   16  C8  UNL     1      27.564  -0.833  52.604  1.00  0.00     0.017 A 
BRANCH  15  17
HETATM   17  C7  UNL     1      29.345  -2.453  53.453  1.00  0.00     0.198 C 
BRANCH  17  18
HETATM   18  O2  UNL     1      28.492  -3.491  53.054  1.00  0.00    -0.397 OA
HETATM   19  H6  UNL     1      27.787  -3.127  52.435  1.00  0.00     0.209 HD
ENDBRANCH  17  18
ENDBRANCH  15  17
ENDBRANCH   3  12
BRANCH  10  20
HETATM   20  O5  UNL     1      26.476   4.633  49.854  1.00  0.00    -0.360 OA
HETATM   21  H12 UNL     1      26.953   5.040  50.624  1.00  0.00     0.217 HD
ENDBRANCH  10  20
BRANCH   8  22
HETATM   22  O4  UNL     1      21.789   4.722  48.944  1.00  0.00    -0.361 OA
HETATM   23  H10 UNL     1      21.748   4.764  47.939  1.00  0.00     0.217 HD
ENDBRANCH   8  22
TORSDOF 5
ENDMDL
MODEL 5
REMARK VINA RESULT:      -7.4      0.742      2.180
REMARK  5 active torsions:
REMARK  status: ('A' for Active; 'I' for Inactive)
REMARK    1  A    between atoms: C2_3  and  C3_4 
REMARK    2  A    between atoms: C6_7  and  C7_8 
REMARK    3  A    between atoms: C7_8  and  O2_9 
REMARK    4  A    between atoms: C12_15  and  O4_16 
REMARK    5  A    between atoms: C14_18  and  O5_19 
ROOT
HETATM    1  O1  UNL     1      24.200   0.970  51.866  1.00  0.00    -0.286 OA
HETATM    2  C1  UNL     1      23.593   0.320  52.720  1.00  0.00     0.200 A 
HETATM    3  C2  UNL     1      24.258  -0.296  53.750  1.00  0.00     0.047 A 
HETATM    4  C9  UNL     1      23.438  -0.987  54.626  1.00  0.00     0.159 A 
HETATM    5  O3  UNL     1      22.133  -1.053  54.490  1.00  0.00    -0.321 OA
HETATM    6  C10 UNL     1      21.470  -0.470  53.509  1.00  0.00     0.094 A 
HETATM    7  C11 UNL     1      20.099  -0.542  53.371  1.00  0.00     0.074 A 
HETATM    8  C12 UNL     1      19.443   0.093  52.314  1.00  0.00     0.071 A 
HETATM    9  C13 UNL     1      20.184   0.810  51.385  1.00  0.00     0.074 A 
HETATM   10  C14 UNL     1      21.544   0.854  51.563  1.00  0.00     0.085 A 
HETATM   11  C15 UNL     1      22.224   0.239  52.594  1.00  0.00     0.082 A 
ENDROOT
BRANCH   3  12
HETATM   12  C3  UNL     1      25.686  -0.244  53.928  1.00  0.00    -0.023 A 
HETATM   13  C4  UNL     1      26.414   0.538  54.674  1.00  0.00    -0.010 A 
HETATM   14  C5  UNL     1      27.878   0.272  54.580  1.00  0.00     0.064 A 
HETATM   15  C6  UNL     1      27.886  -0.863  53.597  1.00  0.00    -0.052 A 
HETATM   16  C8  UNL     1      26.634  -1.124  53.254  1.00  0.00     0.017 A 
BRANCH  15  17
HETATM   17  C7  UNL     1      29.161  -1.481  53.180  1.00  0.00     0.198 C 
BRANCH  17  18
HETATM   18  O2  UNL     1      29.081  -2.867  53.372  1.00  0.00    -0.397 OA
HETATM   19  H6  UNL     1      28.191  -3.201  53.040  1.00  0.00     0.209 HD
ENDBRANCH  17  18
ENDBRANCH  15  17
ENDBRANCH   3  12
BRANCH  10  20
HETATM   20  O5  UNL     1      22.313   1.570  50.640  1.00  0.00    -0.360 OA
HETATM   21  H12 UNL     1      23.020   1.124  50.102  1.00  0.00     0.217 HD
ENDBRANCH  10  20
BRANCH   8  22
HETATM   22  O4  UNL     1      18.063   0.023  52.172  1.00  0.00    -0.361 OA
HETATM   23  H10 UNL     1      17.517   0.863  52.275  1.00  0.00     0.217 HD
ENDBRANCH   8  22
TORSDOF 5
ENDMDL
MODEL 6
REMARK VINA RESULT:      -7.3      1.801      6.980
REMARK  5 active torsions:
REMARK  status: ('A' for Active; 'I' for Inactive)
REMARK    1  A    between atoms: C2_3  and  C3_4 
REMARK    2  A    between atoms: C6_7  and  C7_8 
REMARK    3  A    between atoms: C7_8  and  O2_9 
REMARK    4  A    between atoms: C12_15  and  O4_16 
REMARK    5  A    between atoms: C14_18  and  O5_19 
ROOT
HETATM    1  O1  UNL     1      24.062   1.940  52.444  1.00  0.00    -0.286 OA
HETATM    2  C1  UNL     1      24.543   1.034  53.127  1.00  0.00     0.200 A 
HETATM    3  C2  UNL     1      23.753   0.037  53.643  1.00  0.00     0.047 A 
HETATM    4  C9  UNL     1      24.440  -0.906  54.388  1.00  0.00     0.159 A 
HETATM    5  O3  UNL     1      25.738  -0.858  54.589  1.00  0.00    -0.321 OA
HETATM    6  C10 UNL     1      26.518   0.088  54.105  1.00  0.00     0.094 A 
HETATM    7  C11 UNL     1      27.881   0.134  54.318  1.00  0.00     0.074 A 
HETATM    8  C12 UNL     1      28.665   1.159  53.783  1.00  0.00     0.071 A 
HETATM    9  C13 UNL     1      28.062   2.150  53.022  1.00  0.00     0.074 A 
HETATM   10  C14 UNL     1      26.706   2.064  52.836  1.00  0.00     0.085 A 
HETATM   11  C15 UNL     1      25.901   1.067  53.349  1.00  0.00     0.082 A 
ENDROOT
BRANCH   3  12
HETATM   12  C3  UNL     1      22.330  -0.045  53.442  1.00  0.00    -0.023 A 
HETATM   13  C4  UNL     1      21.378  -0.356  54.276  1.00  0.00    -0.010 A 
HETATM   14  C5  UNL     1      20.014  -0.326  53.674  1.00  0.00     0.064 A 
HETATM   15  C6  UNL     1      20.346   0.079  52.267  1.00  0.00    -0.052 A 
HETATM   16  C8  UNL     1      21.658   0.227  52.176  1.00  0.00     0.017 A 
BRANCH  15  17
HETATM   17  C7  UNL     1      19.274   0.243  51.264  1.00  0.00     0.198 C 
BRANCH  17  18
HETATM   18  O2  UNL     1      18.168  -0.526  51.650  1.00  0.00    -0.397 OA
HETATM   19  H6  UNL     1      17.528  -0.606  50.877  1.00  0.00     0.209 HD
ENDBRANCH  17  18
ENDBRANCH  15  17
ENDBRANCH   3  12
BRANCH  10  20
HETATM   20  O5  UNL     1      26.074   3.051  52.073  1.00  0.00    -0.360 OA
HETATM   21  H12 UNL     1      26.552   3.522  51.341  1.00  0.00     0.217 HD
ENDBRANCH  10  20
BRANCH   8  22
HETATM   22  O4  UNL     1      30.037   1.207  53.997  1.00  0.00    -0.361 OA
HETATM   23  H10 UNL     1      30.423   1.973  54.523  1.00  0.00     0.217 HD
ENDBRANCH   8  22
TORSDOF 5
ENDMDL
MODEL 7
REMARK VINA RESULT:      -7.3      1.911      6.630
REMARK  5 active torsions:
REMARK  status: ('A' for Active; 'I' for Inactive)
REMARK    1  A    between atoms: C2_3  and  C3_4 
REMARK    2  A    between atoms: C6_7  and  C7_8 
REMARK    3  A    between atoms: C7_8  and  O2_9 
REMARK    4  A    between atoms: C12_15  and  O4_16 
REMARK    5  A    between atoms: C14_18  and  O5_19 
ROOT
HETATM    1  O1  UNL     1      24.088  -0.516  53.640  1.00  0.00    -0.286 OA
HETATM    2  C1  UNL     1      24.560   0.465  53.061  1.00  0.00     0.200 A 
HETATM    3  C2  UNL     1      23.816   1.187  52.163  1.00  0.00     0.047 A 
HETATM    4  C9  UNL     1      24.486   2.258  51.598  1.00  0.00     0.159 A 
HETATM    5  O3  UNL     1      25.730   2.564  51.890  1.00  0.00    -0.321 OA
HETATM    6  C10 UNL     1      26.467   1.886  52.750  1.00  0.00     0.094 A 
HETATM    7  C11 UNL     1      27.772   2.212  53.054  1.00  0.00     0.074 A 
HETATM    8  C12 UNL     1      28.512   1.462  53.972  1.00  0.00     0.071 A 
HETATM    9  C13 UNL     1      27.921   0.368  54.589  1.00  0.00     0.074 A 
HETATM   10  C14 UNL     1      26.622   0.082  54.256  1.00  0.00     0.085 A 
HETATM   11  C15 UNL     1      25.863   0.801  53.355  1.00  0.00     0.082 A 
ENDROOT
BRANCH   3  12
HETATM   12  C3  UNL     1      22.451   0.879  51.819  1.00  0.00    -0.023 A 
HETATM   13  C4  UNL     1      21.832   0.958  50.676  1.00  0.00    -0.010 A 
HETATM   14  C5  UNL     1      20.401   0.543  50.733  1.00  0.00     0.064 A 
HETATM   15  C6  UNL     1      20.280   0.186  52.187  1.00  0.00    -0.052 A 
HETATM   16  C8  UNL     1      21.454   0.389  52.764  1.00  0.00     0.017 A 
BRANCH  15  17
HETATM   17  C7  UNL     1      18.994  -0.296  52.733  1.00  0.00     0.198 C 
BRANCH  17  18
HETATM   18  O2  UNL     1      19.227  -0.910  53.971  1.00  0.00    -0.397 OA
HETATM   19  H6  UNL     1      20.181  -1.228  54.014  1.00  0.00     0.209 HD
ENDBRANCH  17  18
ENDBRANCH  15  17
ENDBRANCH   3  12
BRANCH  10  20
HETATM   20  O5  UNL     1      26.004  -1.015  54.864  1.00  0.00    -0.360 OA
HETATM   21  H12 UNL     1      25.825  -1.851  54.359  1.00  0.00     0.217 HD
ENDBRANCH  10  20
BRANCH   8  22
HETATM   22  O4  UNL     1      29.827   1.787  54.280  1.00  0.00    -0.361 OA
HETATM   23  H10 UNL     1      30.182   2.691  54.014  1.00  0.00     0.217 HD
ENDBRANCH   8  22
TORSDOF 5
ENDMDL
MODEL 8
REMARK VINA RESULT:      -7.3      3.394      5.279
REMARK  5 active torsions:
REMARK  status: ('A' for Active; 'I' for Inactive)
REMARK    1  A    between atoms: C2_3  and  C3_4 
REMARK    2  A    between atoms: C6_7  and  C7_8 
REMARK    3  A    between atoms: C7_8  and  O2_9 
REMARK    4  A    between atoms: C12_15  and  O4_16 
REMARK    5  A    between atoms: C14_18  and  O5_19 
ROOT
HETATM    1  O1  UNL     1      25.922   1.340  52.275  1.00  0.00    -0.286 OA
HETATM    2  C1  UNL     1      24.730   1.581  52.072  1.00  0.00     0.200 A 
HETATM    3  C2  UNL     1      24.342   2.549  51.180  1.00  0.00     0.047 A 
HETATM    4  C9  UNL     1      22.971   2.700  51.064  1.00  0.00     0.159 A 
HETATM    5  O3  UNL     1      22.107   1.982  51.746  1.00  0.00    -0.321 OA
HETATM    6  C10 UNL     1      22.454   1.047  52.609  1.00  0.00     0.094 A 
HETATM    7  C11 UNL     1      21.543   0.296  53.323  1.00  0.00     0.074 A 
HETATM    8  C12 UNL     1      21.961  -0.684  54.227  1.00  0.00     0.071 A 
HETATM    9  C13 UNL     1      23.318  -0.906  54.409  1.00  0.00     0.074 A 
HETATM   10  C14 UNL     1      24.187  -0.136  53.679  1.00  0.00     0.085 A 
HETATM   11  C15 UNL     1      23.810   0.839  52.778  1.00  0.00     0.082 A 
ENDROOT
BRANCH   3  12
HETATM   12  C3  UNL     1      25.262   3.352  50.417  1.00  0.00    -0.023 A 
HETATM   13  C4  UNL     1      26.363   3.020  49.805  1.00  0.00    -0.010 A 
HETATM   14  C5  UNL     1      27.039   4.157  49.117  1.00  0.00     0.064 A 
HETATM   15  C6  UNL     1      26.093   5.275  49.447  1.00  0.00    -0.052 A 
HETATM   16  C8  UNL     1      25.106   4.783  50.179  1.00  0.00     0.017 A 
BRANCH  15  17
HETATM   17  C7  UNL     1      26.358   6.645  48.961  1.00  0.00     0.198 C 
BRANCH  17  18
HETATM   18  O2  UNL     1      26.791   7.434  50.036  1.00  0.00    -0.397 OA
HETATM   19  H6  UNL     1      26.291   7.169  50.869  1.00  0.00     0.209 HD
ENDBRANCH  17  18
ENDBRANCH  15  17
ENDBRANCH   3  12
BRANCH  10  20
HETATM   20  O5  UNL     1      25.560  -0.341  53.845  1.00  0.00    -0.360 OA
HETATM   21  H12 UNL     1      26.204  -0.136  53.116  1.00  0.00     0.217 HD
ENDBRANCH  10  20
BRANCH   8  22
HETATM   22  O4  UNL     1      21.046  -1.442  54.947  1.00  0.00    -0.361 OA
HETATM   23  H10 UNL     1      20.590  -2.217  54.495  1.00  0.00     0.217 HD
ENDBRANCH   8  22
TORSDOF 5
ENDMDL
MODEL 9
REMARK VINA RESULT:      -7.2      4.305      5.630
REMARK  5 active torsions:
REMARK  status: ('A' for Active; 'I' for Inactive)
REMARK    1  A    between atoms: C2_3  and  C3_4 
REMARK    2  A    between atoms: C6_7  and  C7_8 
REMARK    3  A    between atoms: C7_8  and  O2_9 
REMARK    4  A    between atoms: C12_15  and  O4_16 
REMARK    5  A    between atoms: C14_18  and  O5_19 
ROOT
HETATM    1  O1  UNL     1      25.807   3.085  51.804  1.00  0.00    -0.286 OA
HETATM    2  C1  UNL     1      24.839   2.860  51.075  1.00  0.00     0.200 A 
HETATM    3  C2  UNL     1      24.698   3.492  49.865  1.00  0.00     0.047 A 
HETATM    4  C9  UNL     1      23.560   3.133  49.164  1.00  0.00     0.159 A 
HETATM    5  O3  UNL     1      22.682   2.264  49.612  1.00  0.00    -0.321 OA
HETATM    6  C10 UNL     1      22.794   1.644  50.770  1.00  0.00     0.094 A 
HETATM    7  C11 UNL     1      21.870   0.731  51.236  1.00  0.00     0.074 A 
HETATM    8  C12 UNL     1      22.034   0.100  52.472  1.00  0.00     0.071 A 
HETATM    9  C13 UNL     1      23.147   0.398  53.246  1.00  0.00     0.074 A 
HETATM   10  C14 UNL     1      24.038   1.311  52.743  1.00  0.00     0.085 A 
HETATM   11  C15 UNL     1      23.908   1.952  51.528  1.00  0.00     0.082 A 
ENDROOT
BRANCH   3  12
HETATM   12  C3  UNL     1      25.640   4.449  49.344  1.00  0.00    -0.023 A 
HETATM   13  C4  UNL     1      25.481   5.704  49.034  1.00  0.00    -0.010 A 
HETATM   14  C5  UNL     1      26.717   6.361  48.520  1.00  0.00     0.064 A 
HETATM   15  C6  UNL     1      27.682   5.213  48.585  1.00  0.00    -0.052 A 
HETATM   16  C8  UNL     1      27.039   4.155  49.053  1.00  0.00     0.017 A 
BRANCH  15  17
HETATM   17  C7  UNL     1      29.085   5.392  48.159  1.00  0.00     0.198 C 
BRANCH  17  18
HETATM   18  O2  UNL     1      29.879   5.622  49.291  1.00  0.00    -0.397 OA
HETATM   19  H6  UNL     1      30.469   4.824  49.455  1.00  0.00     0.209 HD
ENDBRANCH  17  18
ENDBRANCH  15  17
ENDBRANCH   3  12
BRANCH  10  20
HETATM   20  O5  UNL     1      25.168   1.628  53.503  1.00  0.00    -0.360 OA
HETATM   21  H12 UNL     1      26.053   1.773  53.076  1.00  0.00     0.217 HD
ENDBRANCH  10  20
BRANCH   8  22
HETATM   22  O4  UNL     1      21.105  -0.819  52.944  1.00  0.00    -0.361 OA
HETATM   23  H10 UNL     1      20.190  -0.496  53.213  1.00  0.00     0.217 HD
ENDBRANCH   8  22
TORSDOF 5
ENDMDL
