MODEL 1
REMARK VINA RESULT:      -6.2      0.000      0.000
REMARK  5 active torsions:
REMARK  status: ('A' for Active; 'I' for Inactive)
REMARK    1  A    between atoms: O1_2  and  C2_3 
REMARK    2  A    between atoms: C2_3  and  N1_4 
REMARK    3  A    between atoms: N1_4  and  C3_5 
REMARK    4  A    between atoms: C8_13  and  P1_14 
REMARK    5  A    between atoms: C11_17  and  O3_18 
ROOT
HETATM    1  C3  UNL     1      21.625   2.644  51.765  1.00  0.00     0.097 C 
HETATM    2  C4  UNL     1      20.496   2.009  52.003  1.00  0.00     0.150 C 
HETATM    3  N2  UNL     1      19.364   1.969  51.103  1.00  0.00    -0.223 NA
HETATM    4  C5  UNL     1      19.301   1.729  49.795  1.00  0.00     0.237 C 
HETATM    5  N3  UNL     1      20.369   1.647  48.805  1.00  0.00    -0.230 NA
HETATM    6  C6  UNL     1      21.504   0.988  48.988  1.00  0.00     0.254 C 
HETATM    7  O2  UNL     1      22.349   0.998  50.124  1.00  0.00    -0.318 OA
HETATM    8  C7  UNL     1      22.749   2.033  50.989  1.00  0.00     0.179 A 
HETATM    9  C8  UNL     1      23.591   2.980  50.215  1.00  0.00    -0.012 A 
HETATM   10  C10 UNL     1      24.622   2.745  50.975  1.00  0.00     0.030 A 
HETATM   11  C11 UNL     1      23.909   1.820  51.814  1.00  0.00     0.138 A 
HETATM   12  C13 UNL     1      24.421   0.512  52.190  1.00  0.00     0.015 C 
HETATM   13  C14 UNL     1      23.809  -0.342  53.048  1.00  0.00    -0.021 C 
HETATM   14  C15 UNL     1      22.508   0.256  53.527  1.00  0.00     0.046 C 
HETATM   15  C16 UNL     1      21.731  -0.358  54.479  1.00  0.00    -0.002 C 
HETATM   16  C17 UNL     1      20.604   0.641  54.493  1.00  0.00     0.122 C 
HETATM   17  N4  UNL     1      20.547   1.328  53.240  1.00  0.00    -0.373 N 
HETATM   18  H23 UNL     1      19.684   0.823  52.947  1.00  0.00     0.161 HD
ENDROOT
BRANCH   1  19
HETATM   19  N1  UNL     1      21.639   3.931  52.345  1.00  0.00    -0.366 N 
HETATM   20  H6  UNL     1      22.008   4.154  53.296  1.00  0.00     0.161 HD
BRANCH  19  21
HETATM   21  C2  UNL     1      21.065   4.932  51.475  1.00  0.00     0.289 C 
BRANCH  21  22
HETATM   22  O1  UNL     1      21.859   6.072  51.473  1.00  0.00    -0.377 OA
HETATM   23  C1  UNL     1      21.311   6.983  50.569  1.00  0.00     0.203 C 
ENDBRANCH  21  22
ENDBRANCH  19  21
ENDBRANCH   1  19
BRANCH   9  24
HETATM   24  P1  UNL     1      23.367   4.119  48.784  1.00  0.00    -0.099 P 
HETATM   25  C9  UNL     1      24.503   5.586  48.942  1.00  0.00     0.045 C 
HETATM   26  H9  UNL     1      21.995   4.632  48.926  1.00  0.00     0.062 HD
ENDBRANCH   9  24
BRANCH  11  27
HETATM   27  O3  UNL     1      23.797   2.568  53.097  1.00  0.00    -0.373 OA
HETATM   28  C12 UNL     1      25.113   2.635  53.594  1.00  0.00     0.203 C 
ENDBRANCH  11  27
TORSDOF 5
ENDMDL
MODEL 2
REMARK VINA RESULT:      -6.1      2.299      3.857
REMARK  5 active torsions:
REMARK  status: ('A' for Active; 'I' for Inactive)
REMARK    1  A    between atoms: O1_2  and  C2_3 
REMARK    2  A    between atoms: C2_3  and  N1_4 
REMARK    3  A    between atoms: N1_4  and  C3_5 
REMARK    4  A    between atoms: C8_13  and  P1_14 
REMARK    5  A    between atoms: C11_17  and  O3_18 
ROOT
HETATM    1  C3  UNL     1      22.708   3.400  50.802  1.00  0.00     0.097 C 
HETATM    2  C4  UNL     1      22.966   2.149  51.124  1.00  0.00     0.150 C 
HETATM    3  N2  UNL     1      22.101   1.027  50.837  1.00  0.00    -0.223 NA
HETATM    4  C5  UNL     1      21.469   0.678  49.718  1.00  0.00     0.237 C 
HETATM    5  N3  UNL     1      21.265   1.430  48.485  1.00  0.00    -0.230 NA
HETATM    6  C6  UNL     1      22.212   2.123  47.871  1.00  0.00     0.254 C 
HETATM    7  O2  UNL     1      23.153   3.016  48.440  1.00  0.00    -0.318 OA
HETATM    8  C7  UNL     1      23.038   3.977  49.461  1.00  0.00     0.179 A 
HETATM    9  C8  UNL     1      22.138   5.055  48.981  1.00  0.00    -0.012 A 
HETATM   10  C10 UNL     1      23.090   5.940  49.064  1.00  0.00     0.030 A 
HETATM   11  C11 UNL     1      24.054   4.992  49.556  1.00  0.00     0.138 A 
HETATM   12  C13 UNL     1      25.401   4.861  49.024  1.00  0.00     0.015 C 
HETATM   13  C14 UNL     1      26.354   4.038  49.527  1.00  0.00    -0.021 C 
HETATM   14  C15 UNL     1      25.799   3.262  50.697  1.00  0.00     0.046 C 
HETATM   15  C16 UNL     1      26.582   2.424  51.452  1.00  0.00    -0.002 C 
HETATM   16  C17 UNL     1      25.506   1.927  52.382  1.00  0.00     0.122 C 
HETATM   17  N4  UNL     1      24.228   2.036  51.749  1.00  0.00    -0.373 N 
HETATM   18  H23 UNL     1      24.154   1.006  51.612  1.00  0.00     0.161 HD
ENDROOT
BRANCH   1  19
HETATM   19  N1  UNL     1      22.116   4.108  51.871  1.00  0.00    -0.366 N 
HETATM   20  H6  UNL     1      22.455   5.024  52.241  1.00  0.00     0.161 HD
BRANCH  19  21
HETATM   21  C2  UNL     1      20.976   3.415  52.424  1.00  0.00     0.289 C 
BRANCH  21  22
HETATM   22  O1  UNL     1      19.799   3.978  51.946  1.00  0.00    -0.377 OA
HETATM   23  C1  UNL     1      18.954   2.944  51.541  1.00  0.00     0.203 C 
ENDBRANCH  21  22
ENDBRANCH  19  21
ENDBRANCH   1  19
BRANCH   9  24
HETATM   24  P1  UNL     1      20.369   5.211  48.490  1.00  0.00    -0.099 P 
HETATM   25  C9  UNL     1      19.548   6.572  49.459  1.00  0.00     0.045 C 
HETATM   26  H9  UNL     1      19.748   3.950  48.925  1.00  0.00     0.062 HD
ENDBRANCH   9  24
BRANCH  11  27
HETATM   27  O3  UNL     1      24.242   5.428  50.968  1.00  0.00    -0.373 OA
HETATM   28  C12 UNL     1      24.815   6.712  50.877  1.00  0.00     0.203 C 
ENDBRANCH  11  27
TORSDOF 5
ENDMDL
MODEL 3
REMARK VINA RESULT:      -5.8     10.972     13.405
REMARK  5 active torsions:
REMARK  status: ('A' for Active; 'I' for Inactive)
REMARK    1  A    between atoms: O1_2  and  C2_3 
REMARK    2  A    between atoms: C2_3  and  N1_4 
REMARK    3  A    between atoms: N1_4  and  C3_5 
REMARK    4  A    between atoms: C8_13  and  P1_14 
REMARK    5  A    between atoms: C11_17  and  O3_18 
ROOT
HETATM    1  C3  UNL     1      33.011   6.951  46.104  1.00  0.00     0.097 C 
HETATM    2  C4  UNL     1      33.903   7.334  45.213  1.00  0.00     0.150 C 
HETATM    3  N2  UNL     1      34.477   8.658  45.135  1.00  0.00    -0.223 NA
HETATM    4  C5  UNL     1      34.988   9.443  46.081  1.00  0.00     0.237 C 
HETATM    5  N3  UNL     1      34.935   9.315  47.534  1.00  0.00    -0.230 NA
HETATM    6  C6  UNL     1      35.155   8.185  48.189  1.00  0.00     0.254 C 
HETATM    7  O2  UNL     1      34.649   6.893  47.904  1.00  0.00    -0.318 OA
HETATM    8  C7  UNL     1      33.386   6.455  47.465  1.00  0.00     0.179 A 
HETATM    9  C8  UNL     1      32.404   6.723  48.545  1.00  0.00    -0.012 A 
HETATM   10  C10 UNL     1      32.145   5.453  48.677  1.00  0.00     0.030 A 
HETATM   11  C11 UNL     1      33.054   5.065  47.632  1.00  0.00     0.138 A 
HETATM   12  C13 UNL     1      34.031   3.996  47.768  1.00  0.00     0.015 C 
HETATM   13  C14 UNL     1      34.837   3.553  46.772  1.00  0.00    -0.021 C 
HETATM   14  C15 UNL     1      34.589   4.353  45.516  1.00  0.00     0.046 C 
HETATM   15  C16 UNL     1      35.206   4.051  44.327  1.00  0.00    -0.002 C 
HETATM   16  C17 UNL     1      34.628   5.177  43.509  1.00  0.00     0.122 C 
HETATM   17  N4  UNL     1      34.265   6.263  44.365  1.00  0.00    -0.373 N 
HETATM   18  H23 UNL     1      35.063   6.850  44.040  1.00  0.00     0.161 HD
ENDROOT
BRANCH   1  19
HETATM   19  N1  UNL     1      31.693   7.048  45.605  1.00  0.00    -0.366 N 
HETATM   20  H6  UNL     1      31.107   6.238  45.305  1.00  0.00     0.161 HD
BRANCH  19  21
HETATM   21  C2  UNL     1      31.231   8.415  45.539  1.00  0.00     0.289 C 
BRANCH  21  22
HETATM   22  O1  UNL     1      30.202   8.525  44.610  1.00  0.00    -0.377 OA
HETATM   23  C1  UNL     1      28.989   8.436  45.293  1.00  0.00     0.203 C 
ENDBRANCH  21  22
ENDBRANCH  19  21
ENDBRANCH   1  19
BRANCH   9  24
HETATM   24  P1  UNL     1      31.711   8.202  49.396  1.00  0.00    -0.099 P 
HETATM   25  C9  UNL     1      29.916   8.419  48.955  1.00  0.00     0.045 C 
HETATM   26  H9  UNL     1      32.430   9.343  48.807  1.00  0.00     0.062 HD
ENDBRANCH   9  24
BRANCH  11  27
HETATM   27  O3  UNL     1      32.131   4.603  46.557  1.00  0.00    -0.373 OA
HETATM   28  C12 UNL     1      31.707   3.324  46.969  1.00  0.00     0.203 C 
ENDBRANCH  11  27
TORSDOF 5
ENDMDL
MODEL 4
REMARK VINA RESULT:      -5.7      2.225      3.358
REMARK  5 active torsions:
REMARK  status: ('A' for Active; 'I' for Inactive)
REMARK    1  A    between atoms: O1_2  and  C2_3 
REMARK    2  A    between atoms: C2_3  and  N1_4 
REMARK    3  A    between atoms: N1_4  and  C3_5 
REMARK    4  A    between atoms: C8_13  and  P1_14 
REMARK    5  A    between atoms: C11_17  and  O3_18 
ROOT
HETATM    1  C3  UNL     1      22.503   4.008  50.320  1.00  0.00     0.097 C 
HETATM    2  C4  UNL     1      22.237   2.899  50.981  1.00  0.00     0.150 C 
HETATM    3  N2  UNL     1      21.156   1.991  50.668  1.00  0.00    -0.223 NA
HETATM    4  C5  UNL     1      20.762   1.472  49.507  1.00  0.00     0.237 C 
HETATM    5  N3  UNL     1      21.153   1.822  48.145  1.00  0.00    -0.230 NA
HETATM    6  C6  UNL     1      22.403   2.032  47.760  1.00  0.00     0.254 C 
HETATM    7  O2  UNL     1      23.402   2.800  48.407  1.00  0.00    -0.318 OA
HETATM    8  C7  UNL     1      23.348   4.031  49.085  1.00  0.00     0.179 A 
HETATM    9  C8  UNL     1      23.018   5.088  48.096  1.00  0.00    -0.012 A 
HETATM   10  C10 UNL     1      24.152   5.693  48.306  1.00  0.00     0.030 A 
HETATM   11  C11 UNL     1      24.580   4.744  49.299  1.00  0.00     0.138 A 
HETATM   12  C13 UNL     1      25.896   4.126  49.310  1.00  0.00     0.015 C 
HETATM   13  C14 UNL     1      26.354   3.297  50.280  1.00  0.00    -0.021 C 
HETATM   14  C15 UNL     1      25.284   3.091  51.327  1.00  0.00     0.046 C 
HETATM   15  C16 UNL     1      25.516   2.370  52.472  1.00  0.00    -0.002 C 
HETATM   16  C17 UNL     1      24.131   2.471  53.056  1.00  0.00     0.122 C 
HETATM   17  N4  UNL     1      23.177   2.684  52.013  1.00  0.00    -0.373 N 
HETATM   18  H23 UNL     1      22.803   1.714  52.090  1.00  0.00     0.161 HD
ENDROOT
BRANCH   1  19
HETATM   19  N1  UNL     1      21.921   5.139  50.933  1.00  0.00    -0.366 N 
HETATM   20  H6  UNL     1      22.416   5.784  51.587  1.00  0.00     0.161 HD
BRANCH  19  21
HETATM   21  C2  UNL     1      20.535   5.310  50.564  1.00  0.00     0.289 C 
BRANCH  21  22
HETATM   22  O1  UNL     1      20.307   6.623  50.168  1.00  0.00    -0.377 OA
HETATM   23  C1  UNL     1      21.383   7.400  50.596  1.00  0.00     0.203 C 
ENDBRANCH  21  22
ENDBRANCH  19  21
ENDBRANCH   1  19
BRANCH   9  24
HETATM   24  P1  UNL     1      21.597   5.509  47.001  1.00  0.00    -0.099 P 
HETATM   25  C9  UNL     1      21.864   4.804  45.298  1.00  0.00     0.045 C 
HETATM   26  H9  UNL     1      21.653   6.973  46.864  1.00  0.00     0.062 HD
ENDBRANCH   9  24
BRANCH  11  27
HETATM   27  O3  UNL     1      24.524   5.544  50.554  1.00  0.00    -0.373 OA
HETATM   28  C12 UNL     1      25.415   6.613  50.343  1.00  0.00     0.203 C 
ENDBRANCH  11  27
TORSDOF 5
ENDMDL
MODEL 5
REMARK VINA RESULT:      -5.6     10.956     13.342
REMARK  5 active torsions:
REMARK  status: ('A' for Active; 'I' for Inactive)
REMARK    1  A    between atoms: O1_2  and  C2_3 
REMARK    2  A    between atoms: C2_3  and  N1_4 
REMARK    3  A    between atoms: N1_4  and  C3_5 
REMARK    4  A    between atoms: C8_13  and  P1_14 
REMARK    5  A    between atoms: C11_17  and  O3_18 
ROOT
HETATM    1  C3  UNL     1      33.514   7.339  46.762  1.00  0.00     0.097 C 
HETATM    2  C4  UNL     1      33.619   7.224  48.070  1.00  0.00     0.150 C 
HETATM    3  N2  UNL     1      32.926   8.054  49.030  1.00  0.00    -0.223 NA
HETATM    4  C5  UNL     1      31.649   8.424  49.099  1.00  0.00     0.237 C 
HETATM    5  N3  UNL     1      30.583   8.298  48.111  1.00  0.00    -0.230 NA
HETATM    6  C6  UNL     1      30.347   7.201  47.407  1.00  0.00     0.254 C 
HETATM    7  O2  UNL     1      31.278   6.375  46.732  1.00  0.00    -0.318 OA
HETATM    8  C7  UNL     1      32.426   6.677  45.976  1.00  0.00     0.179 A 
HETATM    9  C8  UNL     1      31.994   7.387  44.746  1.00  0.00    -0.012 A 
HETATM   10  C10 UNL     1      32.463   6.438  43.987  1.00  0.00     0.030 A 
HETATM   11  C11 UNL     1      32.947   5.663  45.098  1.00  0.00     0.138 A 
HETATM   12  C13 UNL     1      32.706   4.237  45.254  1.00  0.00     0.015 C 
HETATM   13  C14 UNL     1      33.224   3.469  46.243  1.00  0.00    -0.021 C 
HETATM   14  C15 UNL     1      34.059   4.319  47.171  1.00  0.00     0.046 C 
HETATM   15  C16 UNL     1      34.777   3.775  48.208  1.00  0.00    -0.002 C 
HETATM   16  C17 UNL     1      35.327   5.061  48.767  1.00  0.00     0.122 C 
HETATM   17  N4  UNL     1      34.467   6.150  48.419  1.00  0.00    -0.373 N 
HETATM   18  H23 UNL     1      34.108   6.241  49.393  1.00  0.00     0.161 HD
ENDROOT
BRANCH   1  19
HETATM   19  N1  UNL     1      34.551   8.127  46.216  1.00  0.00    -0.366 N 
HETATM   20  H6  UNL     1      35.390   7.751  45.722  1.00  0.00     0.161 HD
BRANCH  19  21
HETATM   21  C2  UNL     1      34.335   9.540  46.428  1.00  0.00     0.289 C 
BRANCH  21  22
HETATM   22  O1  UNL     1      34.520  10.233  45.238  1.00  0.00    -0.377 OA
HETATM   23  C1  UNL     1      35.436   9.526  44.459  1.00  0.00     0.203 C 
ENDBRANCH  21  22
ENDBRANCH  19  21
ENDBRANCH   1  19
BRANCH   9  24
HETATM   24  P1  UNL     1      31.172   8.983  44.331  1.00  0.00    -0.099 P 
HETATM   25  C9  UNL     1      31.935   9.725  42.805  1.00  0.00     0.045 C 
HETATM   26  H9  UNL     1      31.510   9.878  45.449  1.00  0.00     0.062 HD
ENDBRANCH   9  24
BRANCH  11  27
HETATM   27  O3  UNL     1      34.425   5.787  44.957  1.00  0.00    -0.373 OA
HETATM   28  C12 UNL     1      34.739   5.069  43.787  1.00  0.00     0.203 C 
ENDBRANCH  11  27
TORSDOF 5
ENDMDL
MODEL 6
REMARK VINA RESULT:      -5.6      2.553      4.892
REMARK  5 active torsions:
REMARK  status: ('A' for Active; 'I' for Inactive)
REMARK    1  A    between atoms: O1_2  and  C2_3 
REMARK    2  A    between atoms: C2_3  and  N1_4 
REMARK    3  A    between atoms: N1_4  and  C3_5 
REMARK    4  A    between atoms: C8_13  and  P1_14 
REMARK    5  A    between atoms: C11_17  and  O3_18 
ROOT
HETATM    1  C3  UNL     1      22.901   3.527  49.675  1.00  0.00     0.097 C 
HETATM    2  C4  UNL     1      23.901   4.221  49.172  1.00  0.00     0.150 C 
HETATM    3  N2  UNL     1      23.766   5.492  48.494  1.00  0.00    -0.223 NA
HETATM    4  C5  UNL     1      23.084   6.587  48.825  1.00  0.00     0.237 C 
HETATM    5  N3  UNL     1      22.078   6.786  49.862  1.00  0.00    -0.230 NA
HETATM    6  C6  UNL     1      22.192   6.341  51.105  1.00  0.00     0.254 C 
HETATM    7  O2  UNL     1      22.612   5.061  51.543  1.00  0.00    -0.318 OA
HETATM    8  C7  UNL     1      22.357   3.769  51.048  1.00  0.00     0.179 A 
HETATM    9  C8  UNL     1      20.913   3.482  51.231  1.00  0.00    -0.012 A 
HETATM   10  C10 UNL     1      21.172   2.486  52.029  1.00  0.00     0.030 A 
HETATM   11  C11 UNL     1      22.597   2.649  51.919  1.00  0.00     0.138 A 
HETATM   12  C13 UNL     1      23.498   2.672  53.060  1.00  0.00     0.015 C 
HETATM   13  C14 UNL     1      24.849   2.737  52.979  1.00  0.00    -0.021 C 
HETATM   14  C15 UNL     1      25.274   2.810  51.531  1.00  0.00     0.046 C 
HETATM   15  C16 UNL     1      26.595   2.788  51.158  1.00  0.00    -0.002 C 
HETATM   16  C17 UNL     1      26.387   2.937  49.673  1.00  0.00     0.122 C 
HETATM   17  N4  UNL     1      25.138   3.585  49.420  1.00  0.00    -0.373 N 
HETATM   18  H23 UNL     1      25.601   4.473  49.130  1.00  0.00     0.161 HD
ENDROOT
BRANCH   1  19
HETATM   19  N1  UNL     1      22.444   2.536  48.779  1.00  0.00    -0.366 N 
HETATM   20  H6  UNL     1      22.664   1.518  48.851  1.00  0.00     0.161 HD
BRANCH  19  21
HETATM   21  C2  UNL     1      21.631   3.088  47.720  1.00  0.00     0.289 C 
BRANCH  21  22
HETATM   22  O1  UNL     1      22.221   2.835  46.487  1.00  0.00    -0.377 OA
HETATM   23  C1  UNL     1      21.830   3.841  45.603  1.00  0.00     0.203 C 
ENDBRANCH  21  22
ENDBRANCH  19  21
ENDBRANCH   1  19
BRANCH   9  24
HETATM   24  P1  UNL     1      19.317   4.152  50.600  1.00  0.00    -0.099 P 
HETATM   25  C9  UNL     1      17.887   3.371  51.500  1.00  0.00     0.045 C 
HETATM   26  H9  UNL     1      19.242   3.686  49.206  1.00  0.00     0.062 HD
ENDBRANCH   9  24
BRANCH  11  27
HETATM   27  O3  UNL     1      23.000   1.444  51.141  1.00  0.00    -0.373 OA
HETATM   28  C12 UNL     1      22.733   0.356  51.994  1.00  0.00     0.203 C 
ENDBRANCH  11  27
TORSDOF 5
ENDMDL
MODEL 7
REMARK VINA RESULT:      -5.5     10.429     12.762
REMARK  5 active torsions:
REMARK  status: ('A' for Active; 'I' for Inactive)
REMARK    1  A    between atoms: O1_2  and  C2_3 
REMARK    2  A    between atoms: C2_3  and  N1_4 
REMARK    3  A    between atoms: N1_4  and  C3_5 
REMARK    4  A    between atoms: C8_13  and  P1_14 
REMARK    5  A    between atoms: C11_17  and  O3_18 
ROOT
HETATM    1  C3  UNL     1      32.429   7.413  46.105  1.00  0.00     0.097 C 
HETATM    2  C4  UNL     1      31.998   7.359  44.862  1.00  0.00     0.150 C 
HETATM    3  N2  UNL     1      32.644   6.627  43.795  1.00  0.00    -0.223 NA
HETATM    4  C5  UNL     1      33.118   5.383  43.755  1.00  0.00     0.237 C 
HETATM    5  N3  UNL     1      33.339   4.430  44.838  1.00  0.00    -0.230 NA
HETATM    6  C6  UNL     1      32.470   4.192  45.808  1.00  0.00     0.254 C 
HETATM    7  O2  UNL     1      31.735   5.127  46.577  1.00  0.00    -0.318 OA
HETATM    8  C7  UNL     1      32.087   6.374  47.127  1.00  0.00     0.179 A 
HETATM    9  C8  UNL     1      33.107   6.141  48.179  1.00  0.00    -0.012 A 
HETATM   10  C10 UNL     1      32.321   6.620  49.101  1.00  0.00     0.030 A 
HETATM   11  C11 UNL     1      31.260   6.912  48.175  1.00  0.00     0.138 A 
HETATM   12  C13 UNL     1      29.871   6.544  48.397  1.00  0.00     0.015 C 
HETATM   13  C14 UNL     1      28.841   6.884  47.583  1.00  0.00    -0.021 C 
HETATM   14  C15 UNL     1      29.357   7.671  46.402  1.00  0.00     0.046 C 
HETATM   15  C16 UNL     1      28.514   8.222  45.469  1.00  0.00    -0.002 C 
HETATM   16  C17 UNL     1      29.567   8.802  44.562  1.00  0.00     0.122 C 
HETATM   17  N4  UNL     1      30.790   8.075  44.710  1.00  0.00    -0.373 N 
HETATM   18  H23 UNL     1      30.685   7.615  43.781  1.00  0.00     0.161 HD
ENDROOT
BRANCH   1  19
HETATM   19  N1  UNL     1      33.212   8.564  46.342  1.00  0.00    -0.366 N 
HETATM   20  H6  UNL     1      32.857   9.452  46.760  1.00  0.00     0.161 HD
BRANCH  19  21
HETATM   21  C2  UNL     1      34.584   8.388  45.927  1.00  0.00     0.289 C 
BRANCH  21  22
HETATM   22  O1  UNL     1      35.202   9.625  45.791  1.00  0.00    -0.377 OA
HETATM   23  C1  UNL     1      35.757   9.696  44.513  1.00  0.00     0.203 C 
ENDBRANCH  21  22
ENDBRANCH  19  21
ENDBRANCH   1  19
BRANCH   9  24
HETATM   24  P1  UNL     1      34.832   5.499  48.263  1.00  0.00    -0.099 P 
HETATM   25  C9  UNL     1      34.835   3.641  48.152  1.00  0.00     0.045 C 
HETATM   26  H9  UNL     1      35.292   5.840  49.618  1.00  0.00     0.062 HD
ENDBRANCH   9  24
BRANCH  11  27
HETATM   27  O3  UNL     1      31.261   8.401  48.144  1.00  0.00    -0.373 OA
HETATM   28  C12 UNL     1      30.794   8.790  49.415  1.00  0.00     0.203 C 
ENDBRANCH  11  27
TORSDOF 5
ENDMDL
MODEL 8
REMARK VINA RESULT:      -5.5      8.952     11.438
REMARK  5 active torsions:
REMARK  status: ('A' for Active; 'I' for Inactive)
REMARK    1  A    between atoms: O1_2  and  C2_3 
REMARK    2  A    between atoms: C2_3  and  N1_4 
REMARK    3  A    between atoms: N1_4  and  C3_5 
REMARK    4  A    between atoms: C8_13  and  P1_14 
REMARK    5  A    between atoms: C11_17  and  O3_18 
ROOT
HETATM    1  C3  UNL     1      30.534   9.012  47.596  1.00  0.00     0.097 C 
HETATM    2  C4  UNL     1      29.310   9.251  47.170  1.00  0.00     0.150 C 
HETATM    3  N2  UNL     1      28.971  10.156  46.095  1.00  0.00    -0.223 NA
HETATM    4  C5  UNL     1      29.493  10.297  44.878  1.00  0.00     0.237 C 
HETATM    5  N3  UNL     1      30.716   9.737  44.313  1.00  0.00    -0.230 NA
HETATM    6  C6  UNL     1      31.091   8.474  44.454  1.00  0.00     0.254 C 
HETATM    7  O2  UNL     1      31.092   7.687  45.631  1.00  0.00    -0.318 OA
HETATM    8  C7  UNL     1      31.426   7.990  46.964  1.00  0.00     0.179 A 
HETATM    9  C8  UNL     1      32.881   8.278  47.021  1.00  0.00    -0.012 A 
HETATM   10  C10 UNL     1      33.089   7.269  47.818  1.00  0.00     0.030 A 
HETATM   11  C11 UNL     1      31.700   6.899  47.861  1.00  0.00     0.138 A 
HETATM   12  C13 UNL     1      31.221   5.539  47.672  1.00  0.00     0.015 C 
HETATM   13  C14 UNL     1      29.928   5.149  47.794  1.00  0.00    -0.021 C 
HETATM   14  C15 UNL     1      29.062   6.340  48.125  1.00  0.00     0.046 C 
HETATM   15  C16 UNL     1      27.721   6.213  48.397  1.00  0.00    -0.002 C 
HETATM   16  C17 UNL     1      27.415   7.675  48.587  1.00  0.00     0.122 C 
HETATM   17  N4  UNL     1      28.366   8.469  47.873  1.00  0.00    -0.373 N 
HETATM   18  H23 UNL     1      27.670   8.736  47.145  1.00  0.00     0.161 HD
ENDROOT
BRANCH   1  19
HETATM   19  N1  UNL     1      30.869   9.811  48.710  1.00  0.00    -0.366 N 
HETATM   20  H6  UNL     1      30.900   9.475  49.698  1.00  0.00     0.161 HD
BRANCH  19  21
HETATM   21  C2  UNL     1      31.160  11.177  48.339  1.00  0.00     0.289 C 
BRANCH  21  22
HETATM   22  O1  UNL     1      30.716  12.044  49.330  1.00  0.00    -0.377 OA
HETATM   23  C1  UNL     1      29.504  12.596  48.915  1.00  0.00     0.203 C 
ENDBRANCH  21  22
ENDBRANCH  19  21
ENDBRANCH   1  19
BRANCH   9  24
HETATM   24  P1  UNL     1      34.030   9.545  46.334  1.00  0.00    -0.099 P 
HETATM   25  C9  UNL     1      34.741   8.961  44.716  1.00  0.00     0.045 C 
HETATM   26  H9  UNL     1      35.146   9.593  47.291  1.00  0.00     0.062 HD
ENDBRANCH   9  24
BRANCH  11  27
HETATM   27  O3  UNL     1      31.317   7.246  49.258  1.00  0.00    -0.373 OA
HETATM   28  C12 UNL     1      31.907   6.246  50.055  1.00  0.00     0.203 C 
ENDBRANCH  11  27
TORSDOF 5
ENDMDL
MODEL 9
REMARK VINA RESULT:      -5.4      9.629     12.654
REMARK  5 active torsions:
REMARK  status: ('A' for Active; 'I' for Inactive)
REMARK    1  A    between atoms: O1_2  and  C2_3 
REMARK    2  A    between atoms: C2_3  and  N1_4 
REMARK    3  A    between atoms: N1_4  and  C3_5 
REMARK    4  A    between atoms: C8_13  and  P1_14 
REMARK    5  A    between atoms: C11_17  and  O3_18 
ROOT
HETATM    1  C3  UNL     1      31.991   6.918  47.471  1.00  0.00     0.097 C 
HETATM    2  C4  UNL     1      31.594   5.670  47.333  1.00  0.00     0.150 C 
HETATM    3  N2  UNL     1      30.471   5.079  48.026  1.00  0.00    -0.223 NA
HETATM    4  C5  UNL     1      29.229   5.524  48.211  1.00  0.00     0.237 C 
HETATM    5  N3  UNL     1      28.662   6.846  47.967  1.00  0.00    -0.230 NA
HETATM    6  C6  UNL     1      28.877   7.556  46.870  1.00  0.00     0.254 C 
HETATM    7  O2  UNL     1      30.105   7.792  46.204  1.00  0.00    -0.318 OA
HETATM    8  C7  UNL     1      31.401   8.048  46.688  1.00  0.00     0.179 A 
HETATM    9  C8  UNL     1      31.387   9.368  47.366  1.00  0.00    -0.012 A 
HETATM   10  C10 UNL     1      32.244   9.858  46.517  1.00  0.00     0.030 A 
HETATM   11  C11 UNL     1      32.361   8.626  45.784  1.00  0.00     0.138 A 
HETATM   12  C13 UNL     1      32.283   8.538  44.335  1.00  0.00     0.015 C 
HETATM   13  C14 UNL     1      32.477   7.404  43.616  1.00  0.00    -0.021 C 
HETATM   14  C15 UNL     1      32.755   6.248  44.547  1.00  0.00     0.046 C 
HETATM   15  C16 UNL     1      33.082   4.999  44.078  1.00  0.00    -0.002 C 
HETATM   16  C17 UNL     1      33.181   4.304  45.411  1.00  0.00     0.122 C 
HETATM   17  N4  UNL     1      32.381   4.989  46.378  1.00  0.00    -0.373 N 
HETATM   18  H23 UNL     1      31.661   4.235  46.388  1.00  0.00     0.161 HD
ENDROOT
BRANCH   1  19
HETATM   19  N1  UNL     1      33.036   7.037  48.414  1.00  0.00    -0.366 N 
HETATM   20  H6  UNL     1      33.442   7.940  48.744  1.00  0.00     0.161 HD
BRANCH  19  21
HETATM   21  C2  UNL     1      33.506   5.752  48.877  1.00  0.00     0.289 C 
BRANCH  21  22
HETATM   22  O1  UNL     1      34.791   5.516  48.404  1.00  0.00    -0.377 OA
HETATM   23  C1  UNL     1      35.568   6.642  48.675  1.00  0.00     0.203 C 
ENDBRANCH  21  22
ENDBRANCH  19  21
ENDBRANCH   1  19
BRANCH   9  24
HETATM   24  P1  UNL     1      30.574  10.113  48.843  1.00  0.00    -0.099 P 
HETATM   25  C9  UNL     1      30.857  11.953  48.876  1.00  0.00     0.045 C 
HETATM   26  H9  UNL     1      31.305   9.555  49.992  1.00  0.00     0.062 HD
ENDBRANCH   9  24
BRANCH  11  27
HETATM   27  O3  UNL     1      33.743   8.182  46.119  1.00  0.00    -0.373 OA
HETATM   28  C12 UNL     1      34.586   9.116  45.487  1.00  0.00     0.203 C 
ENDBRANCH  11  27
TORSDOF 5
ENDMDL
