MODEL 1
REMARK VINA RESULT:      -6.6      0.000      0.000
REMARK  6 active torsions:
REMARK  status: ('A' for Active; 'I' for Inactive)
REMARK    1  A    between atoms: C3_3  and  C4_4 
REMARK    2  A    between atoms: C4_4  and  C5_5 
REMARK    3  A    between atoms: C5_5  and  C6_6 
REMARK    4  A    between atoms: C6_6  and  C7_7 
REMARK    5  A    between atoms: C7_7  and  O1_8 
REMARK    6  A    between atoms: O1_8  and  C8_9 
ROOT
HETATM    1  C1  UNL     1      20.200   0.904  52.732  1.00  0.00     0.012 C 
HETATM    2  C2  UNL     1      21.142   0.189  52.824  1.00  0.00    -0.117 C 
HETATM    3  C3  UNL     1      22.335  -0.715  52.915  1.00  0.00     0.093 C 
ENDROOT
BRANCH   3   4
HETATM    4  C4  UNL     1      22.685  -0.874  54.377  1.00  0.00     0.012 C 
BRANCH   4   5
HETATM    5  C5  UNL     1      24.163  -0.862  54.624  1.00  0.00     0.003 C 
BRANCH   5   6
HETATM    6  C6  UNL     1      24.988  -0.595  53.386  1.00  0.00     0.027 C 
BRANCH   6   7
HETATM    7  C7  UNL     1      25.716   0.732  53.480  1.00  0.00     0.175 C 
BRANCH   7   8
HETATM    8  O1  UNL     1      25.771   1.259  52.146  1.00  0.00    -0.351 OA
BRANCH   8   9
HETATM    9  C8  UNL     1      24.855   2.279  51.874  1.00  0.00     0.065 A 
HETATM   10  C9  UNL     1      24.930   2.895  50.719  1.00  0.00     0.021 A 
HETATM   11  C10 UNL     1      24.087   4.011  50.153  1.00  0.00     0.066 A 
HETATM   12  C11 UNL     1      23.441   3.500  48.862  1.00  0.00     0.045 C 
HETATM   13  C19 UNL     1      23.070   4.489  51.099  1.00  0.00     0.044 A 
HETATM   14  C12 UNL     1      22.557   2.365  49.120  1.00  0.00     0.016 C 
HETATM   15  C13 UNL     1      21.459   1.578  49.297  1.00  0.00     0.112 C 
HETATM   16  F1  UNL     1      21.517   0.219  49.595  1.00  0.00    -0.206 F 
HETATM   17  C14 UNL     1      20.199   2.358  49.232  1.00  0.00     0.039 C 
HETATM   18  C15 UNL     1      19.050   2.998  49.184  1.00  0.00     0.006 C 
HETATM   19  C16 UNL     1      19.068   4.492  48.936  1.00  0.00     0.299 C 
HETATM   20  N1  UNL     1      20.457   4.779  48.668  1.00  0.00     0.103 N 
HETATM   21  C17 UNL     1      20.839   6.137  48.555  1.00  0.00     0.383 C 
HETATM   22  H21 UNL     1      20.783   4.199  47.840  1.00  0.00     0.318 HD
HETATM   23  N2  UNL     1      21.081   6.792  49.794  1.00  0.00    -0.382 NA
HETATM   24  C18 UNL     1      21.606   6.447  50.886  1.00  0.00     0.396 C 
HETATM   25  N3  UNL     1      22.171   5.347  51.393  1.00  0.00    -0.246 NA
HETATM   26  C20 UNL     1      22.992   3.750  52.413  1.00  0.00     0.030 A 
HETATM   27  C21 UNL     1      23.802   2.742  52.782  1.00  0.00     0.038 A 
ENDBRANCH   8   9
ENDBRANCH   7   8
ENDBRANCH   6   7
ENDBRANCH   5   6
ENDBRANCH   4   5
ENDBRANCH   3   4
TORSDOF 6
ENDMDL
MODEL 2
REMARK VINA RESULT:      -6.1      8.877     10.907
REMARK  6 active torsions:
REMARK  status: ('A' for Active; 'I' for Inactive)
REMARK    1  A    between atoms: C3_3  and  C4_4 
REMARK    2  A    between atoms: C4_4  and  C5_5 
REMARK    3  A    between atoms: C5_5  and  C6_6 
REMARK    4  A    between atoms: C6_6  and  C7_7 
REMARK    5  A    between atoms: C7_7  and  O1_8 
REMARK    6  A    between atoms: O1_8  and  C8_9 
ROOT
HETATM    1  C1  UNL     1      33.910   4.697  41.686  1.00  0.00     0.012 C 
HETATM    2  C2  UNL     1      33.842   4.901  42.853  1.00  0.00    -0.117 C 
HETATM    3  C3  UNL     1      33.734   5.173  44.323  1.00  0.00     0.093 C 
ENDROOT
BRANCH   3   4
HETATM    4  C4  UNL     1      34.804   4.365  45.022  1.00  0.00     0.012 C 
BRANCH   4   5
HETATM    5  C5  UNL     1      34.240   3.392  46.012  1.00  0.00     0.003 C 
BRANCH   5   6
HETATM    6  C6  UNL     1      34.942   3.407  47.351  1.00  0.00     0.027 C 
BRANCH   6   7
HETATM    7  C7  UNL     1      34.204   4.274  48.354  1.00  0.00     0.175 C 
BRANCH   7   8
HETATM    8  O1  UNL     1      32.892   4.492  47.813  1.00  0.00    -0.351 OA
BRANCH   8   9
HETATM    9  C8  UNL     1      32.323   5.730  48.122  1.00  0.00     0.065 A 
HETATM   10  C9  UNL     1      31.839   6.458  47.145  1.00  0.00     0.021 A 
HETATM   11  C10 UNL     1      31.170   7.810  47.175  1.00  0.00     0.066 A 
HETATM   12  C11 UNL     1      29.761   7.647  46.596  1.00  0.00     0.045 C 
HETATM   13  C19 UNL     1      31.123   8.389  48.523  1.00  0.00     0.044 A 
HETATM   14  C12 UNL     1      28.954   6.736  47.406  1.00  0.00     0.016 C 
HETATM   15  C13 UNL     1      28.033   6.221  48.268  1.00  0.00     0.112 C 
HETATM   16  F1  UNL     1      27.889   4.861  48.531  1.00  0.00    -0.206 F 
HETATM   17  C14 UNL     1      27.269   7.285  48.966  1.00  0.00     0.039 C 
HETATM   18  C15 UNL     1      26.561   8.184  49.614  1.00  0.00     0.006 C 
HETATM   19  C16 UNL     1      26.828   9.648  49.336  1.00  0.00     0.299 C 
HETATM   20  N1  UNL     1      27.774   9.624  48.246  1.00  0.00     0.103 N 
HETATM   21  C17 UNL     1      28.357  10.852  47.852  1.00  0.00     0.383 C 
HETATM   22  H21 UNL     1      27.352   9.097  47.425  1.00  0.00     0.318 HD
HETATM   23  N2  UNL     1      29.473  11.258  48.635  1.00  0.00    -0.382 NA
HETATM   24  C18 UNL     1      30.437  10.654  49.175  1.00  0.00     0.396 C 
HETATM   25  N3  UNL     1      30.869   9.393  49.272  1.00  0.00    -0.246 NA
HETATM   26  C20 UNL     1      31.668   7.523  49.633  1.00  0.00     0.030 A 
HETATM   27  C21 UNL     1      32.222   6.309  49.465  1.00  0.00     0.038 A 
ENDBRANCH   8   9
ENDBRANCH   7   8
ENDBRANCH   6   7
ENDBRANCH   5   6
ENDBRANCH   4   5
ENDBRANCH   3   4
TORSDOF 6
ENDMDL
MODEL 3
REMARK VINA RESULT:      -5.9      2.705      4.018
REMARK  6 active torsions:
REMARK  status: ('A' for Active; 'I' for Inactive)
REMARK    1  A    between atoms: C3_3  and  C4_4 
REMARK    2  A    between atoms: C4_4  and  C5_5 
REMARK    3  A    between atoms: C5_5  and  C6_6 
REMARK    4  A    between atoms: C6_6  and  C7_7 
REMARK    5  A    between atoms: C7_7  and  O1_8 
REMARK    6  A    between atoms: O1_8  and  C8_9 
ROOT
HETATM    1  C1  UNL     1      20.056   2.843  51.398  1.00  0.00     0.012 C 
HETATM    2  C2  UNL     1      20.549   1.764  51.368  1.00  0.00    -0.117 C 
HETATM    3  C3  UNL     1      21.176   0.403  51.305  1.00  0.00     0.093 C 
ENDROOT
BRANCH   3   4
HETATM    4  C4  UNL     1      21.255  -0.135  52.716  1.00  0.00     0.012 C 
BRANCH   4   5
HETATM    5  C5  UNL     1      22.384   0.460  53.501  1.00  0.00     0.003 C 
BRANCH   5   6
HETATM    6  C6  UNL     1      23.742   0.250  52.872  1.00  0.00     0.027 C 
BRANCH   6   7
HETATM    7  C7  UNL     1      24.512   1.553  52.768  1.00  0.00     0.175 C 
BRANCH   7   8
HETATM    8  O1  UNL     1      24.791   1.749  51.373  1.00  0.00    -0.351 OA
BRANCH   8   9
HETATM    9  C8  UNL     1      24.088   2.795  50.770  1.00  0.00     0.065 A 
HETATM   10  C9  UNL     1      23.946   3.917  51.434  1.00  0.00     0.021 A 
HETATM   11  C10 UNL     1      23.255   5.200  51.043  1.00  0.00     0.066 A 
HETATM   12  C11 UNL     1      24.299   6.320  51.071  1.00  0.00     0.045 C 
HETATM   13  C19 UNL     1      22.606   5.116  49.728  1.00  0.00     0.044 A 
HETATM   14  C12 UNL     1      25.366   6.080  50.102  1.00  0.00     0.016 C 
HETATM   15  C13 UNL     1      26.175   6.141  49.007  1.00  0.00     0.112 C 
HETATM   16  F1  UNL     1      27.301   5.340  48.828  1.00  0.00    -0.206 F 
HETATM   17  C14 UNL     1      25.663   7.090  47.989  1.00  0.00     0.039 C 
HETATM   18  C15 UNL     1      25.256   7.917  47.050  1.00  0.00     0.006 C 
HETATM   19  C16 UNL     1      23.979   8.697  47.281  1.00  0.00     0.299 C 
HETATM   20  N1  UNL     1      23.620   8.373  48.641  1.00  0.00     0.103 N 
HETATM   21  C17 UNL     1      22.365   8.822  49.116  1.00  0.00     0.383 C 
HETATM   22  H21 UNL     1      24.417   8.646  49.289  1.00  0.00     0.318 HD
HETATM   23  N2  UNL     1      21.266   7.989  48.770  1.00  0.00    -0.382 NA
HETATM   24  C18 UNL     1      21.098   6.744  48.678  1.00  0.00     0.396 C 
HETATM   25  N3  UNL     1      21.835   5.643  48.856  1.00  0.00    -0.246 NA
HETATM   26  C20 UNL     1      22.801   3.821  48.977  1.00  0.00     0.030 A 
HETATM   27  C21 UNL     1      23.471   2.752  49.441  1.00  0.00     0.038 A 
ENDBRANCH   8   9
ENDBRANCH   7   8
ENDBRANCH   6   7
ENDBRANCH   5   6
ENDBRANCH   4   5
ENDBRANCH   3   4
TORSDOF 6
ENDMDL
MODEL 4
REMARK VINA RESULT:      -5.8      3.788      6.831
REMARK  6 active torsions:
REMARK  status: ('A' for Active; 'I' for Inactive)
REMARK    1  A    between atoms: C3_3  and  C4_4 
REMARK    2  A    between atoms: C4_4  and  C5_5 
REMARK    3  A    between atoms: C5_5  and  C6_6 
REMARK    4  A    between atoms: C6_6  and  C7_7 
REMARK    5  A    between atoms: C7_7  and  O1_8 
REMARK    6  A    between atoms: O1_8  and  C8_9 
ROOT
HETATM    1  C1  UNL     1      27.049   8.630  44.319  1.00  0.00     0.012 C 
HETATM    2  C2  UNL     1      27.462   8.608  45.431  1.00  0.00    -0.117 C 
HETATM    3  C3  UNL     1      27.981   8.605  46.838  1.00  0.00     0.093 C 
ENDROOT
BRANCH   3   4
HETATM    4  C4  UNL     1      28.259   7.170  47.225  1.00  0.00     0.012 C 
BRANCH   4   5
HETATM    5  C5  UNL     1      27.736   6.826  48.587  1.00  0.00     0.003 C 
BRANCH   5   6
HETATM    6  C6  UNL     1      26.741   5.688  48.590  1.00  0.00     0.027 C 
BRANCH   6   7
HETATM    7  C7  UNL     1      25.417   6.111  49.197  1.00  0.00     0.175 C 
BRANCH   7   8
HETATM    8  O1  UNL     1      25.346   5.487  50.488  1.00  0.00    -0.351 OA
BRANCH   8   9
HETATM    9  C8  UNL     1      24.104   4.934  50.810  1.00  0.00     0.065 A 
HETATM   10  C9  UNL     1      23.598   4.025  50.012  1.00  0.00     0.021 A 
HETATM   11  C10 UNL     1      22.302   3.258  50.104  1.00  0.00     0.066 A 
HETATM   12  C11 UNL     1      22.645   1.767  50.171  1.00  0.00     0.045 C 
HETATM   13  C19 UNL     1      21.484   3.665  51.253  1.00  0.00     0.044 A 
HETATM   14  C12 UNL     1      23.430   1.453  51.364  1.00  0.00     0.016 C 
HETATM   15  C13 UNL     1      23.822   1.007  52.590  1.00  0.00     0.112 C 
HETATM   16  F1  UNL     1      25.115   1.144  53.089  1.00  0.00    -0.206 F 
HETATM   17  C14 UNL     1      22.689   0.447  53.367  1.00  0.00     0.039 C 
HETATM   18  C15 UNL     1      21.723  -0.061  54.101  1.00  0.00     0.006 C 
HETATM   19  C16 UNL     1      20.325  -0.104  53.522  1.00  0.00     0.299 C 
HETATM   20  N1  UNL     1      20.502   0.343  52.161  1.00  0.00     0.103 N 
HETATM   21  C17 UNL     1      19.340   0.574  51.387  1.00  0.00     0.383 C 
HETATM   22  H21 UNL     1      21.195  -0.295  51.669  1.00  0.00     0.318 HD
HETATM   23  N2  UNL     1      18.737   1.846  51.585  1.00  0.00    -0.382 NA
HETATM   24  C18 UNL     1      19.177   3.010  51.777  1.00  0.00     0.396 C 
HETATM   25  N3  UNL     1      20.373   3.597  51.881  1.00  0.00    -0.246 NA
HETATM   26  C20 UNL     1      22.097   4.698  52.168  1.00  0.00     0.030 A 
HETATM   27  C21 UNL     1      23.290   5.289  51.976  1.00  0.00     0.038 A 
ENDBRANCH   8   9
ENDBRANCH   7   8
ENDBRANCH   6   7
ENDBRANCH   5   6
ENDBRANCH   4   5
ENDBRANCH   3   4
TORSDOF 6
ENDMDL
MODEL 5
REMARK VINA RESULT:      -5.6      4.649      7.622
REMARK  6 active torsions:
REMARK  status: ('A' for Active; 'I' for Inactive)
REMARK    1  A    between atoms: C3_3  and  C4_4 
REMARK    2  A    between atoms: C4_4  and  C5_5 
REMARK    3  A    between atoms: C5_5  and  C6_6 
REMARK    4  A    between atoms: C6_6  and  C7_7 
REMARK    5  A    between atoms: C7_7  and  O1_8 
REMARK    6  A    between atoms: O1_8  and  C8_9 
ROOT
HETATM    1  C1  UNL     1      30.921  11.558  48.876  1.00  0.00     0.012 C 
HETATM    2  C2  UNL     1      30.787  10.379  48.889  1.00  0.00    -0.117 C 
HETATM    3  C3  UNL     1      30.634   8.888  48.925  1.00  0.00     0.093 C 
ENDROOT
BRANCH   3   4
HETATM    4  C4  UNL     1      29.545   8.511  47.947  1.00  0.00     0.012 C 
BRANCH   4   5
HETATM    5  C5  UNL     1      28.332   7.944  48.620  1.00  0.00     0.003 C 
BRANCH   5   6
HETATM    6  C6  UNL     1      27.434   8.988  49.241  1.00  0.00     0.027 C 
BRANCH   6   7
HETATM    7  C7  UNL     1      26.286   8.351  50.001  1.00  0.00     0.175 C 
BRANCH   7   8
HETATM    8  O1  UNL     1      25.835   7.247  49.201  1.00  0.00    -0.351 OA
BRANCH   8   9
HETATM    9  C8  UNL     1      24.841   6.458  49.788  1.00  0.00     0.065 A 
HETATM   10  C9  UNL     1      24.286   5.514  49.068  1.00  0.00     0.021 A 
HETATM   11  C10 UNL     1      23.211   4.518  49.427  1.00  0.00     0.066 A 
HETATM   12  C11 UNL     1      23.797   3.114  49.250  1.00  0.00     0.045 C 
HETATM   13  C19 UNL     1      22.696   4.708  50.789  1.00  0.00     0.044 A 
HETATM   14  C12 UNL     1      24.927   2.889  50.150  1.00  0.00     0.016 C 
HETATM   15  C13 UNL     1      25.716   2.461  51.174  1.00  0.00     0.112 C 
HETATM   16  F1  UNL     1      27.057   2.808  51.319  1.00  0.00    -0.206 F 
HETATM   17  C14 UNL     1      24.955   1.663  52.166  1.00  0.00     0.039 C 
HETATM   18  C15 UNL     1      24.332   0.949  53.079  1.00  0.00     0.006 C 
HETATM   19  C16 UNL     1      22.853   0.678  52.895  1.00  0.00     0.299 C 
HETATM   20  N1  UNL     1      22.564   1.220  51.589  1.00  0.00     0.103 N 
HETATM   21  C17 UNL     1      21.210   1.272  51.182  1.00  0.00     0.383 C 
HETATM   22  H21 UNL     1      23.184   0.747  50.867  1.00  0.00     0.318 HD
HETATM   23  N2  UNL     1      20.488   2.399  51.662  1.00  0.00    -0.382 NA
HETATM   24  C18 UNL     1      20.769   3.614  51.845  1.00  0.00     0.396 C 
HETATM   25  N3  UNL     1      21.834   4.405  51.682  1.00  0.00    -0.246 NA
HETATM   26  C20 UNL     1      23.366   5.788  51.604  1.00  0.00     0.030 A 
HETATM   27  C21 UNL     1      24.344   6.597  51.160  1.00  0.00     0.038 A 
ENDBRANCH   8   9
ENDBRANCH   7   8
ENDBRANCH   6   7
ENDBRANCH   5   6
ENDBRANCH   4   5
ENDBRANCH   3   4
TORSDOF 6
ENDMDL
MODEL 6
REMARK VINA RESULT:      -5.4      4.370      7.109
REMARK  6 active torsions:
REMARK  status: ('A' for Active; 'I' for Inactive)
REMARK    1  A    between atoms: C3_3  and  C4_4 
REMARK    2  A    between atoms: C4_4  and  C5_5 
REMARK    3  A    between atoms: C5_5  and  C6_6 
REMARK    4  A    between atoms: C6_6  and  C7_7 
REMARK    5  A    between atoms: C7_7  and  O1_8 
REMARK    6  A    between atoms: O1_8  and  C8_9 
ROOT
HETATM    1  C1  UNL     1      11.486   2.437  55.339  1.00  0.00     0.012 C 
HETATM    2  C2  UNL     1      11.957   3.226  54.588  1.00  0.00    -0.117 C 
HETATM    3  C3  UNL     1      12.529   4.236  53.639  1.00  0.00     0.093 C 
ENDROOT
BRANCH   3   4
HETATM    4  C4  UNL     1      14.000   3.930  53.469  1.00  0.00     0.012 C 
BRANCH   4   5
HETATM    5  C5  UNL     1      14.411   3.842  52.030  1.00  0.00     0.003 C 
BRANCH   5   6
HETATM    6  C6  UNL     1      15.563   2.897  51.781  1.00  0.00     0.027 C 
BRANCH   6   7
HETATM    7  C7  UNL     1      16.470   3.407  50.677  1.00  0.00     0.175 C 
BRANCH   7   8
HETATM    8  O1  UNL     1      17.121   2.254  50.122  1.00  0.00    -0.351 OA
BRANCH   8   9
HETATM    9  C8  UNL     1      18.518   2.289  50.157  1.00  0.00     0.065 A 
HETATM   10  C9  UNL     1      19.102   3.138  50.968  1.00  0.00     0.021 A 
HETATM   11  C10 UNL     1      20.567   3.394  51.222  1.00  0.00     0.066 A 
HETATM   12  C11 UNL     1      20.838   3.121  52.704  1.00  0.00     0.045 C 
HETATM   13  C19 UNL     1      21.440   2.580  50.367  1.00  0.00     0.044 A 
HETATM   14  C12 UNL     1      20.566   1.727  53.050  1.00  0.00     0.016 C 
HETATM   15  C13 UNL     1      20.701   0.412  53.378  1.00  0.00     0.112 C 
HETATM   16  F1  UNL     1      19.628  -0.448  53.601  1.00  0.00    -0.206 F 
HETATM   17  C14 UNL     1      22.121  -0.018  53.376  1.00  0.00     0.039 C 
HETATM   18  C15 UNL     1      23.361  -0.456  53.390  1.00  0.00     0.006 C 
HETATM   19  C16 UNL     1      24.473   0.518  53.060  1.00  0.00     0.299 C 
HETATM   20  N1  UNL     1      23.795   1.787  52.946  1.00  0.00     0.103 N 
HETATM   21  C17 UNL     1      24.542   2.893  52.476  1.00  0.00     0.383 C 
HETATM   22  H21 UNL     1      23.290   1.999  53.857  1.00  0.00     0.318 HD
HETATM   23  N2  UNL     1      24.653   2.978  51.062  1.00  0.00    -0.382 NA
HETATM   24  C18 UNL     1      23.875   2.742  50.100  1.00  0.00     0.396 C 
HETATM   25  N3  UNL     1      22.617   2.319  49.943  1.00  0.00    -0.246 NA
HETATM   26  C20 UNL     1      20.744   1.596  49.458  1.00  0.00     0.030 A 
HETATM   27  C21 UNL     1      19.411   1.454  49.349  1.00  0.00     0.038 A 
ENDBRANCH   8   9
ENDBRANCH   7   8
ENDBRANCH   6   7
ENDBRANCH   5   6
ENDBRANCH   4   5
ENDBRANCH   3   4
TORSDOF 6
ENDMDL
MODEL 7
REMARK VINA RESULT:      -5.4      2.059      2.616
REMARK  6 active torsions:
REMARK  status: ('A' for Active; 'I' for Inactive)
REMARK    1  A    between atoms: C3_3  and  C4_4 
REMARK    2  A    between atoms: C4_4  and  C5_5 
REMARK    3  A    between atoms: C5_5  and  C6_6 
REMARK    4  A    between atoms: C6_6  and  C7_7 
REMARK    5  A    between atoms: C7_7  and  O1_8 
REMARK    6  A    between atoms: O1_8  and  C8_9 
ROOT
HETATM    1  C1  UNL     1      18.427   0.727  51.420  1.00  0.00     0.012 C 
HETATM    2  C2  UNL     1      19.603   0.621  51.299  1.00  0.00    -0.117 C 
HETATM    3  C3  UNL     1      21.088   0.506  51.128  1.00  0.00     0.093 C 
ENDROOT
BRANCH   3   4
HETATM    4  C4  UNL     1      21.588  -0.527  52.113  1.00  0.00     0.012 C 
BRANCH   4   5
HETATM    5  C5  UNL     1      22.131   0.085  53.368  1.00  0.00     0.003 C 
BRANCH   5   6
HETATM    6  C6  UNL     1      23.631  -0.035  53.507  1.00  0.00     0.027 C 
BRANCH   6   7
HETATM    7  C7  UNL     1      24.347   1.094  52.790  1.00  0.00     0.175 C 
BRANCH   7   8
HETATM    8  O1  UNL     1      23.630   2.296  53.111  1.00  0.00    -0.351 OA
BRANCH   8   9
HETATM    9  C8  UNL     1      23.668   3.289  52.128  1.00  0.00     0.065 A 
HETATM   10  C9  UNL     1      23.673   2.922  50.870  1.00  0.00     0.021 A 
HETATM   11  C10 UNL     1      23.704   3.755  49.612  1.00  0.00     0.066 A 
HETATM   12  C11 UNL     1      22.444   3.429  48.805  1.00  0.00     0.045 C 
HETATM   13  C19 UNL     1      23.798   5.194  49.887  1.00  0.00     0.044 A 
HETATM   14  C12 UNL     1      21.232   3.784  49.541  1.00  0.00     0.016 C 
HETATM   15  C13 UNL     1      20.098   4.408  49.968  1.00  0.00     0.112 C 
HETATM   16  F1  UNL     1      19.318   3.958  51.031  1.00  0.00    -0.206 F 
HETATM   17  C14 UNL     1      19.847   5.671  49.233  1.00  0.00     0.039 C 
HETATM   18  C15 UNL     1      19.573   6.799  48.614  1.00  0.00     0.006 C 
HETATM   19  C16 UNL     1      20.511   7.267  47.522  1.00  0.00     0.299 C 
HETATM   20  N1  UNL     1      21.441   6.173  47.376  1.00  0.00     0.103 N 
HETATM   21  C17 UNL     1      22.561   6.368  46.532  1.00  0.00     0.383 C 
HETATM   22  H21 UNL     1      20.907   5.287  47.136  1.00  0.00     0.318 HD
HETATM   23  N2  UNL     1      23.655   7.041  47.143  1.00  0.00    -0.382 NA
HETATM   24  C18 UNL     1      24.173   7.020  48.290  1.00  0.00     0.396 C 
HETATM   25  N3  UNL     1      23.963   6.382  49.445  1.00  0.00    -0.246 NA
HETATM   26  C20 UNL     1      23.770   5.591  51.344  1.00  0.00     0.030 A 
HETATM   27  C21 UNL     1      23.715   4.732  52.378  1.00  0.00     0.038 A 
ENDBRANCH   8   9
ENDBRANCH   7   8
ENDBRANCH   6   7
ENDBRANCH   5   6
ENDBRANCH   4   5
ENDBRANCH   3   4
TORSDOF 6
ENDMDL
MODEL 8
REMARK VINA RESULT:      -5.3      8.979     11.451
REMARK  6 active torsions:
REMARK  status: ('A' for Active; 'I' for Inactive)
REMARK    1  A    between atoms: C3_3  and  C4_4 
REMARK    2  A    between atoms: C4_4  and  C5_5 
REMARK    3  A    between atoms: C5_5  and  C6_6 
REMARK    4  A    between atoms: C6_6  and  C7_7 
REMARK    5  A    between atoms: C7_7  and  O1_8 
REMARK    6  A    between atoms: O1_8  and  C8_9 
ROOT
HETATM    1  C1  UNL     1      31.263  11.566  45.794  1.00  0.00     0.012 C 
HETATM    2  C2  UNL     1      32.239  11.189  46.355  1.00  0.00    -0.117 C 
HETATM    3  C3  UNL     1      33.466  10.729  47.083  1.00  0.00     0.093 C 
ENDROOT
BRANCH   3   4
HETATM    4  C4  UNL     1      34.095   9.619  46.273  1.00  0.00     0.012 C 
BRANCH   4   5
HETATM    5  C5  UNL     1      34.375   8.393  47.088  1.00  0.00     0.003 C 
BRANCH   5   6
HETATM    6  C6  UNL     1      33.403   8.181  48.226  1.00  0.00     0.027 C 
BRANCH   6   7
HETATM    7  C7  UNL     1      32.873   6.759  48.244  1.00  0.00     0.175 C 
BRANCH   7   8
HETATM    8  O1  UNL     1      32.338   6.510  46.936  1.00  0.00    -0.351 OA
BRANCH   8   9
HETATM    9  C8  UNL     1      31.064   7.038  46.706  1.00  0.00     0.065 A 
HETATM   10  C9  UNL     1      30.099   6.723  47.535  1.00  0.00     0.021 A 
HETATM   11  C10 UNL     1      28.648   7.139  47.546  1.00  0.00     0.066 A 
HETATM   12  C11 UNL     1      28.379   7.863  48.868  1.00  0.00     0.045 C 
HETATM   13  C19 UNL     1      28.293   7.985  46.399  1.00  0.00     0.044 A 
HETATM   14  C12 UNL     1      29.188   9.075  48.987  1.00  0.00     0.016 C 
HETATM   15  C13 UNL     1      29.598  10.374  49.026  1.00  0.00     0.112 C 
HETATM   16  F1  UNL     1      30.909  10.767  49.284  1.00  0.00    -0.206 F 
HETATM   17  C14 UNL     1      28.507  11.312  48.668  1.00  0.00     0.039 C 
HETATM   18  C15 UNL     1      27.578  12.192  48.358  1.00  0.00     0.006 C 
HETATM   19  C16 UNL     1      26.194  11.685  48.011  1.00  0.00     0.299 C 
HETATM   20  N1  UNL     1      26.271  10.268  48.275  1.00  0.00     0.103 N 
HETATM   21  C17 UNL     1      25.171   9.465  47.890  1.00  0.00     0.383 C 
HETATM   22  H21 UNL     1      26.547  10.113  49.289  1.00  0.00     0.318 HD
HETATM   23  N2  UNL     1      25.169   9.075  46.523  1.00  0.00    -0.382 NA
HETATM   24  C18 UNL     1      26.062   8.733  45.702  1.00  0.00     0.396 C 
HETATM   25  N3  UNL     1      27.388   8.571  45.714  1.00  0.00    -0.246 NA
HETATM   26  C20 UNL     1      29.427   8.349  45.471  1.00  0.00     0.030 A 
HETATM   27  C21 UNL     1      30.696   7.921  45.596  1.00  0.00     0.038 A 
ENDBRANCH   8   9
ENDBRANCH   7   8
ENDBRANCH   6   7
ENDBRANCH   5   6
ENDBRANCH   4   5
ENDBRANCH   3   4
TORSDOF 6
ENDMDL
MODEL 9
REMARK VINA RESULT:      -5.3      9.940     11.718
REMARK  6 active torsions:
REMARK  status: ('A' for Active; 'I' for Inactive)
REMARK    1  A    between atoms: C3_3  and  C4_4 
REMARK    2  A    between atoms: C4_4  and  C5_5 
REMARK    3  A    between atoms: C5_5  and  C6_6 
REMARK    4  A    between atoms: C6_6  and  C7_7 
REMARK    5  A    between atoms: C7_7  and  O1_8 
REMARK    6  A    between atoms: O1_8  and  C8_9 
ROOT
HETATM    1  C1  UNL     1      22.957   3.449  48.598  1.00  0.00     0.012 C 
HETATM    2  C2  UNL     1      23.873   3.815  49.258  1.00  0.00    -0.117 C 
HETATM    3  C3  UNL     1      25.014   4.280  50.113  1.00  0.00     0.093 C 
ENDROOT
BRANCH   3   4
HETATM    4  C4  UNL     1      26.275   4.200  49.284  1.00  0.00     0.012 C 
BRANCH   4   5
HETATM    5  C5  UNL     1      26.638   5.509  48.652  1.00  0.00     0.003 C 
BRANCH   5   6
HETATM    6  C6  UNL     1      28.122   5.690  48.428  1.00  0.00     0.027 C 
BRANCH   6   7
HETATM    7  C7  UNL     1      28.498   7.158  48.361  1.00  0.00     0.175 C 
BRANCH   7   8
HETATM    8  O1  UNL     1      29.924   7.218  48.521  1.00  0.00    -0.351 OA
BRANCH   8   9
HETATM    9  C8  UNL     1      30.633   7.575  47.371  1.00  0.00     0.065 A 
HETATM   10  C9  UNL     1      31.924   7.780  47.472  1.00  0.00     0.021 A 
HETATM   11  C10 UNL     1      32.936   8.163  46.420  1.00  0.00     0.066 A 
HETATM   12  C11 UNL     1      33.990   7.054  46.360  1.00  0.00     0.045 C 
HETATM   13  C19 UNL     1      32.326   8.383  45.102  1.00  0.00     0.044 A 
HETATM   14  C12 UNL     1      33.401   5.777  45.963  1.00  0.00     0.016 C 
HETATM   15  C13 UNL     1      33.034   4.670  45.258  1.00  0.00     0.112 C 
HETATM   16  F1  UNL     1      32.245   3.646  45.777  1.00  0.00    -0.206 F 
HETATM   17  C14 UNL     1      33.491   4.731  43.849  1.00  0.00     0.039 C 
HETATM   18  C15 UNL     1      33.871   4.730  42.589  1.00  0.00     0.006 C 
HETATM   19  C16 UNL     1      34.659   5.916  42.074  1.00  0.00     0.299 C 
HETATM   20  N1  UNL     1      34.898   6.710  43.256  1.00  0.00     0.103 N 
HETATM   21  C17 UNL     1      35.479   7.988  43.084  1.00  0.00     0.383 C 
HETATM   22  H21 UNL     1      35.418   6.124  43.974  1.00  0.00     0.318 HD
HETATM   23  N2  UNL     1      34.560   9.018  42.742  1.00  0.00    -0.382 NA
HETATM   24  C18 UNL     1      33.379   9.294  43.080  1.00  0.00     0.396 C 
HETATM   25  N3  UNL     1      32.451   8.782  43.894  1.00  0.00    -0.246 NA
HETATM   26  C20 UNL     1      30.842   8.121  45.008  1.00  0.00     0.030 A 
HETATM   27  C21 UNL     1      30.056   7.755  46.036  1.00  0.00     0.038 A 
ENDBRANCH   8   9
ENDBRANCH   7   8
ENDBRANCH   6   7
ENDBRANCH   5   6
ENDBRANCH   4   5
ENDBRANCH   3   4
TORSDOF 6
ENDMDL
