MODEL 1
REMARK VINA RESULT:      -8.0      0.000      0.000
REMARK  3 active torsions:
REMARK  status: ('A' for Active; 'I' for Inactive)
REMARK    1  A    between atoms: O1_1  and  C1_2 
REMARK    2  A    between atoms: C6_9  and  C7_10 
REMARK    3  A    between atoms: C7_10  and  N1_11 
ROOT
HETATM    1  N1  UNL     1      25.206   1.231  52.479  1.00  0.00     0.120 N 
HETATM    2  C8  UNL     1      26.190   1.875  53.394  1.00  0.00     0.278 C 
HETATM    3  C9  UNL     1      27.538   1.799  52.854  1.00  0.00     0.057 C 
HETATM    4  C10 UNL     1      28.596   2.418  53.651  1.00  0.00    -0.025 C 
HETATM    5  C11 UNL     1      29.479   1.459  54.002  1.00  0.00    -0.004 C 
HETATM    6  C12 UNL     1      29.808   0.046  53.937  1.00  0.00    -0.004 C 
HETATM    7  C13 UNL     1      29.218  -1.069  53.479  1.00  0.00    -0.025 C 
HETATM    8  C14 UNL     1      28.442  -2.196  52.936  1.00  0.00     0.057 C 
HETATM    9  C15 UNL     1      27.004  -1.842  52.810  1.00  0.00     0.275 C 
HETATM   10  N2  UNL     1      26.729  -0.636  52.138  1.00  0.00     0.112 N 
HETATM   11  C16 UNL     1      25.382  -0.217  52.546  1.00  0.00     0.540 C 
HETATM   12  H18 UNL     1      26.741  -0.832  51.098  1.00  0.00     0.318 HD
ENDROOT
BRANCH   1  13
HETATM   13  C7  UNL     1      23.915   1.478  53.103  1.00  0.00     0.316 C 
BRANCH  13  14
HETATM   14  C6  UNL     1      22.763   1.228  52.236  1.00  0.00     0.006 A 
HETATM   15  C1  UNL     1      21.695   0.611  52.851  1.00  0.00     0.091 A 
HETATM   16  C2  UNL     1      20.539   0.311  52.148  1.00  0.00     0.045 A 
HETATM   17 BR1  UNL     1      19.020  -0.545  52.932  1.00  0.00    -0.048 Br
HETATM   18  C3  UNL     1      20.424   0.625  50.802  1.00  0.00     0.041 A 
HETATM   19  C4  UNL     1      21.501   1.248  50.180  1.00  0.00     0.013 A 
HETATM   20 BR2  UNL     1      21.435   1.720  48.328  1.00  0.00    -0.051 Br
HETATM   21  C5  UNL     1      22.652   1.547  50.878  1.00  0.00     0.030 A 
BRANCH  15  22
HETATM   22  O1  UNL     1      21.638   0.224  54.194  1.00  0.00    -0.359 OA
HETATM   23  H1  UNL     1      20.738  -0.134  54.521  1.00  0.00     0.217 HD
ENDBRANCH  15  22
ENDBRANCH  13  14
ENDBRANCH   1  13
TORSDOF 3
ENDMDL
MODEL 2
REMARK VINA RESULT:      -7.9      4.540      6.167
REMARK  3 active torsions:
REMARK  status: ('A' for Active; 'I' for Inactive)
REMARK    1  A    between atoms: O1_1  and  C1_2 
REMARK    2  A    between atoms: C6_9  and  C7_10 
REMARK    3  A    between atoms: C7_10  and  N1_11 
ROOT
HETATM    1  N1  UNL     1      25.778   3.005  51.285  1.00  0.00     0.120 N 
HETATM    2  C8  UNL     1      24.751   1.925  51.293  1.00  0.00     0.278 C 
HETATM    3  C9  UNL     1      24.197   1.736  52.624  1.00  0.00     0.057 C 
HETATM    4  C10 UNL     1      23.158   0.716  52.759  1.00  0.00    -0.025 C 
HETATM    5  C11 UNL     1      23.601  -0.229  53.615  1.00  0.00    -0.004 C 
HETATM    6  C12 UNL     1      24.703  -0.673  54.450  1.00  0.00    -0.004 C 
HETATM    7  C13 UNL     1      25.965  -0.282  54.684  1.00  0.00    -0.025 C 
HETATM    8  C14 UNL     1      27.324   0.267  54.825  1.00  0.00     0.057 C 
HETATM    9  C15 UNL     1      27.673   1.132  53.668  1.00  0.00     0.275 C 
HETATM   10  N2  UNL     1      26.732   2.127  53.344  1.00  0.00     0.112 N 
HETATM   11  C16 UNL     1      26.981   2.512  51.949  1.00  0.00     0.540 C 
HETATM   12  H18 UNL     1      26.902   2.957  53.978  1.00  0.00     0.318 HD
ENDROOT
BRANCH   1  13
HETATM   13  C7  UNL     1      26.153   3.139  49.886  1.00  0.00     0.316 C 
BRANCH  13  14
HETATM   14  C6  UNL     1      25.846   4.442  49.296  1.00  0.00     0.006 A 
HETATM   15  C1  UNL     1      26.946   5.211  48.981  1.00  0.00     0.091 A 
HETATM   16  C2  UNL     1      26.802   6.470  48.420  1.00  0.00     0.045 A 
HETATM   17 BR1  UNL     1      28.279   7.594  47.959  1.00  0.00    -0.048 Br
HETATM   18  C3  UNL     1      25.545   6.992  48.157  1.00  0.00     0.041 A 
HETATM   19  C4  UNL     1      24.434   6.216  48.474  1.00  0.00     0.013 A 
HETATM   20 BR2  UNL     1      22.660   6.851  48.147  1.00  0.00    -0.051 Br
HETATM   21  C5  UNL     1      24.575   4.964  49.033  1.00  0.00     0.030 A 
BRANCH  15  22
HETATM   22  O1  UNL     1      28.281   4.846  49.177  1.00  0.00    -0.359 OA
HETATM   23  H1  UNL     1      28.529   3.888  48.916  1.00  0.00     0.217 HD
ENDBRANCH  15  22
ENDBRANCH  13  14
ENDBRANCH   1  13
TORSDOF 3
ENDMDL
MODEL 3
REMARK VINA RESULT:      -7.6      4.562      6.138
REMARK  3 active torsions:
REMARK  status: ('A' for Active; 'I' for Inactive)
REMARK    1  A    between atoms: O1_1  and  C1_2 
REMARK    2  A    between atoms: C6_9  and  C7_10 
REMARK    3  A    between atoms: C7_10  and  N1_11 
ROOT
HETATM    1  N1  UNL     1      25.491   3.064  51.136  1.00  0.00     0.120 N 
HETATM    2  C8  UNL     1      24.529   1.940  51.314  1.00  0.00     0.278 C 
HETATM    3  C9  UNL     1      24.216   1.733  52.718  1.00  0.00     0.057 C 
HETATM    4  C10 UNL     1      23.261   0.670  53.024  1.00  0.00    -0.025 C 
HETATM    5  C11 UNL     1      23.882  -0.251  53.791  1.00  0.00    -0.004 C 
HETATM    6  C12 UNL     1      25.128  -0.642  54.428  1.00  0.00    -0.004 C 
HETATM    7  C13 UNL     1      26.393  -0.194  54.446  1.00  0.00    -0.025 C 
HETATM    8  C14 UNL     1      27.731   0.414  54.358  1.00  0.00     0.057 C 
HETATM    9  C15 UNL     1      27.842   1.288  53.161  1.00  0.00     0.275 C 
HETATM   10  N2  UNL     1      26.816   2.238  53.002  1.00  0.00     0.112 N 
HETATM   11  C16 UNL     1      26.810   2.627  51.586  1.00  0.00     0.540 C 
HETATM   12  H18 UNL     1      27.054   3.078  53.600  1.00  0.00     0.318 HD
ENDROOT
BRANCH   1  13
HETATM   13  C7  UNL     1      25.620   3.207  49.693  1.00  0.00     0.316 C 
BRANCH  13  14
HETATM   14  C6  UNL     1      26.125   4.507  49.254  1.00  0.00     0.006 A 
HETATM   15  C1  UNL     1      25.205   5.533  49.296  1.00  0.00     0.091 A 
HETATM   16  C2  UNL     1      25.546   6.818  48.904  1.00  0.00     0.045 A 
HETATM   17 BR1  UNL     1      24.325   8.288  48.933  1.00  0.00    -0.048 Br
HETATM   18  C3  UNL     1      26.827   7.109  48.460  1.00  0.00     0.041 A 
HETATM   19  C4  UNL     1      27.757   6.075  48.418  1.00  0.00     0.013 A 
HETATM   20 BR2  UNL     1      29.547   6.380  47.820  1.00  0.00    -0.051 Br
HETATM   21  C5  UNL     1      27.419   4.796  48.806  1.00  0.00     0.030 A 
BRANCH  15  22
HETATM   22  O1  UNL     1      23.875   5.420  49.713  1.00  0.00    -0.359 OA
HETATM   23  H1  UNL     1      23.340   4.649  49.307  1.00  0.00     0.217 HD
ENDBRANCH  15  22
ENDBRANCH  13  14
ENDBRANCH   1  13
TORSDOF 3
ENDMDL
MODEL 4
REMARK VINA RESULT:      -7.4      4.540      6.305
REMARK  3 active torsions:
REMARK  status: ('A' for Active; 'I' for Inactive)
REMARK    1  A    between atoms: O1_1  and  C1_2 
REMARK    2  A    between atoms: C6_9  and  C7_10 
REMARK    3  A    between atoms: C7_10  and  N1_11 
ROOT
HETATM    1  N1  UNL     1      24.788   3.732  51.138  1.00  0.00     0.120 N 
HETATM    2  C8  UNL     1      25.486   3.846  49.826  1.00  0.00     0.278 C 
HETATM    3  C9  UNL     1      26.481   4.904  49.850  1.00  0.00     0.057 C 
HETATM    4  C10 UNL     1      27.254   5.101  48.624  1.00  0.00    -0.025 C 
HETATM    5  C11 UNL     1      27.015   6.349  48.168  1.00  0.00    -0.004 C 
HETATM    6  C12 UNL     1      26.283   7.586  48.378  1.00  0.00    -0.004 C 
HETATM    7  C13 UNL     1      25.334   8.023  49.219  1.00  0.00    -0.025 C 
HETATM    8  C14 UNL     1      24.292   8.349  50.208  1.00  0.00     0.057 C 
HETATM    9  C15 UNL     1      23.688   7.114  50.772  1.00  0.00     0.275 C 
HETATM   10  N2  UNL     1      24.596   6.155  51.256  1.00  0.00     0.112 N 
HETATM   11  C16 UNL     1      23.886   4.870  51.288  1.00  0.00     0.540 C 
HETATM   12  H18 UNL     1      24.872   6.433  52.240  1.00  0.00     0.318 HD
ENDROOT
BRANCH   1  13
HETATM   13  C7  UNL     1      23.912   2.581  50.984  1.00  0.00     0.316 C 
BRANCH  13  14
HETATM   14  C6  UNL     1      24.224   1.458  51.868  1.00  0.00     0.006 A 
HETATM   15  C1  UNL     1      23.162   0.992  52.613  1.00  0.00     0.091 A 
HETATM   16  C2  UNL     1      23.315  -0.066  53.496  1.00  0.00     0.045 A 
HETATM   17 BR1  UNL     1      21.890  -0.764  54.563  1.00  0.00    -0.048 Br
HETATM   18  C3  UNL     1      24.543  -0.687  53.654  1.00  0.00     0.041 A 
HETATM   19  C4  UNL     1      25.617  -0.218  52.902  1.00  0.00     0.013 A 
HETATM   20 BR2  UNL     1      27.350  -1.013  53.051  1.00  0.00    -0.051 Br
HETATM   21  C5  UNL     1      25.466   0.834  52.024  1.00  0.00     0.030 A 
BRANCH  15  22
HETATM   22  O1  UNL     1      21.858   1.498  52.582  1.00  0.00    -0.359 OA
HETATM   23  H1  UNL     1      21.221   1.059  51.913  1.00  0.00     0.217 HD
ENDBRANCH  15  22
ENDBRANCH  13  14
ENDBRANCH   1  13
TORSDOF 3
ENDMDL
MODEL 5
REMARK VINA RESULT:      -7.4      4.111      5.807
REMARK  3 active torsions:
REMARK  status: ('A' for Active; 'I' for Inactive)
REMARK    1  A    between atoms: O1_1  and  C1_2 
REMARK    2  A    between atoms: C6_9  and  C7_10 
REMARK    3  A    between atoms: C7_10  and  N1_11 
ROOT
HETATM    1  N1  UNL     1      23.871   3.975  51.628  1.00  0.00     0.120 N 
HETATM    2  C8  UNL     1      24.640   3.608  50.406  1.00  0.00     0.278 C 
HETATM    3  C9  UNL     1      25.967   4.201  50.422  1.00  0.00     0.057 C 
HETATM    4  C10 UNL     1      26.831   3.895  49.283  1.00  0.00    -0.025 C 
HETATM    5  C11 UNL     1      27.131   5.052  48.655  1.00  0.00    -0.004 C 
HETATM    6  C12 UNL     1      26.930   6.490  48.625  1.00  0.00    -0.004 C 
HETATM    7  C13 UNL     1      26.176   7.380  49.288  1.00  0.00    -0.025 C 
HETATM    8  C14 UNL     1      25.285   8.227  50.099  1.00  0.00     0.057 C 
HETATM    9  C15 UNL     1      24.210   7.419  50.730  1.00  0.00     0.275 C 
HETATM   10  N2  UNL     1      24.637   6.276  51.432  1.00  0.00     0.112 N 
HETATM   11  C16 UNL     1      23.479   5.378  51.532  1.00  0.00     0.540 C 
HETATM   12  H18 UNL     1      24.936   6.580  52.400  1.00  0.00     0.318 HD
ENDROOT
BRANCH   1  13
HETATM   13  C7  UNL     1      22.625   3.232  51.510  1.00  0.00     0.316 C 
BRANCH  13  14
HETATM   14  C6  UNL     1      22.595   1.973  52.253  1.00  0.00     0.006 A 
HETATM   15  C1  UNL     1      21.346   1.406  52.388  1.00  0.00     0.091 A 
HETATM   16  C2  UNL     1      21.170   0.213  53.072  1.00  0.00     0.045 A 
HETATM   17 BR1  UNL     1      19.470  -0.631  53.300  1.00  0.00    -0.048 Br
HETATM   18  C3  UNL     1      22.249  -0.445  53.641  1.00  0.00     0.041 A 
HETATM   19  C4  UNL     1      23.511   0.125  53.505  1.00  0.00     0.013 A 
HETATM   20 BR2  UNL     1      25.059  -0.710  54.255  1.00  0.00    -0.051 Br
HETATM   21  C5  UNL     1      23.688   1.312  52.826  1.00  0.00     0.030 A 
BRANCH  15  22
HETATM   22  O1  UNL     1      20.153   1.930  51.881  1.00  0.00    -0.359 OA
HETATM   23  H1  UNL     1      19.701   1.388  51.141  1.00  0.00     0.217 HD
ENDBRANCH  15  22
ENDBRANCH  13  14
ENDBRANCH   1  13
TORSDOF 3
ENDMDL
MODEL 6
REMARK VINA RESULT:      -7.2      4.683      6.669
REMARK  3 active torsions:
REMARK  status: ('A' for Active; 'I' for Inactive)
REMARK    1  A    between atoms: O1_1  and  C1_2 
REMARK    2  A    between atoms: C6_9  and  C7_10 
REMARK    3  A    between atoms: C7_10  and  N1_11 
ROOT
HETATM    1  N1  UNL     1      24.902   3.544  51.034  1.00  0.00     0.120 N 
HETATM    2  C8  UNL     1      25.536   3.836  49.717  1.00  0.00     0.278 C 
HETATM    3  C9  UNL     1      26.414   4.991  49.800  1.00  0.00     0.057 C 
HETATM    4  C10 UNL     1      27.116   5.366  48.574  1.00  0.00    -0.025 C 
HETATM    5  C11 UNL     1      26.731   6.613  48.229  1.00  0.00    -0.004 C 
HETATM    6  C12 UNL     1      25.881   7.743  48.561  1.00  0.00    -0.004 C 
HETATM    7  C13 UNL     1      24.922   8.007  49.462  1.00  0.00    -0.025 C 
HETATM    8  C14 UNL     1      23.889   8.140  50.503  1.00  0.00     0.057 C 
HETATM    9  C15 UNL     1      23.439   6.806  50.980  1.00  0.00     0.275 C 
HETATM   10  N2  UNL     1      24.461   5.915  51.358  1.00  0.00     0.112 N 
HETATM   11  C16 UNL     1      23.891   4.563  51.303  1.00  0.00     0.540 C 
HETATM   12  H18 UNL     1      24.741   6.143  52.353  1.00  0.00     0.318 HD
ENDROOT
BRANCH   1  13
HETATM   13  C7  UNL     1      24.147   2.321  50.811  1.00  0.00     0.316 C 
BRANCH  13  14
HETATM   14  C6  UNL     1      24.301   1.312  51.859  1.00  0.00     0.006 A 
HETATM   15  C1  UNL     1      25.589   0.857  52.043  1.00  0.00     0.091 A 
HETATM   16  C2  UNL     1      25.880  -0.103  53.000  1.00  0.00     0.045 A 
HETATM   17 BR1  UNL     1      27.640  -0.782  53.311  1.00  0.00    -0.048 Br
HETATM   18  C3  UNL     1      24.881  -0.632  53.802  1.00  0.00     0.041 A 
HETATM   19  C4  UNL     1      23.580  -0.173  53.618  1.00  0.00     0.013 A 
HETATM   20 BR2  UNL     1      22.137  -0.844  54.677  1.00  0.00    -0.051 Br
HETATM   21  C5  UNL     1      23.289   0.781  52.666  1.00  0.00     0.030 A 
BRANCH  15  22
HETATM   22  O1  UNL     1      26.714   1.278  51.326  1.00  0.00    -0.359 OA
HETATM   23  H1  UNL     1      26.593   2.112  50.747  1.00  0.00     0.217 HD
ENDBRANCH  15  22
ENDBRANCH  13  14
ENDBRANCH   1  13
TORSDOF 3
ENDMDL
MODEL 7
REMARK VINA RESULT:      -7.2      4.585      6.701
REMARK  3 active torsions:
REMARK  status: ('A' for Active; 'I' for Inactive)
REMARK    1  A    between atoms: O1_1  and  C1_2 
REMARK    2  A    between atoms: C6_9  and  C7_10 
REMARK    3  A    between atoms: C7_10  and  N1_11 
ROOT
HETATM    1  N1  UNL     1      24.952   3.045  50.965  1.00  0.00     0.120 N 
HETATM    2  C8  UNL     1      23.788   2.243  50.491  1.00  0.00     0.278 C 
HETATM    3  C9  UNL     1      22.840   2.008  51.567  1.00  0.00     0.057 C 
HETATM    4  C10 UNL     1      21.638   1.249  51.223  1.00  0.00    -0.025 C 
HETATM    5  C11 UNL     1      21.624   0.119  51.961  1.00  0.00    -0.004 C 
HETATM    6  C12 UNL     1      22.326  -0.679  52.951  1.00  0.00    -0.004 C 
HETATM    7  C13 UNL     1      23.512  -0.627  53.578  1.00  0.00    -0.025 C 
HETATM    8  C14 UNL     1      24.844  -0.434  54.175  1.00  0.00     0.057 C 
HETATM    9  C15 UNL     1      25.674   0.476  53.343  1.00  0.00     0.275 C 
HETATM   10  N2  UNL     1      25.072   1.697  52.986  1.00  0.00     0.112 N 
HETATM   11  C16 UNL     1      25.791   2.200  51.809  1.00  0.00     0.540 C 
HETATM   12  H18 UNL     1      25.196   2.370  53.794  1.00  0.00     0.318 HD
ENDROOT
BRANCH   1  13
HETATM   13  C7  UNL     1      25.744   3.277  49.767  1.00  0.00     0.316 C 
BRANCH  13  14
HETATM   14  C6  UNL     1      25.634   4.628  49.217  1.00  0.00     0.006 A 
HETATM   15  C1  UNL     1      26.834   5.227  48.900  1.00  0.00     0.091 A 
HETATM   16  C2  UNL     1      26.879   6.509  48.375  1.00  0.00     0.045 A 
HETATM   17 BR1  UNL     1      28.504   7.404  47.914  1.00  0.00    -0.048 Br
HETATM   18  C3  UNL     1      25.714   7.226  48.151  1.00  0.00     0.041 A 
HETATM   19  C4  UNL     1      24.501   6.623  48.470  1.00  0.00     0.013 A 
HETATM   20 BR2  UNL     1      22.842   7.533  48.195  1.00  0.00    -0.051 Br
HETATM   21  C5  UNL     1      24.455   5.348  48.993  1.00  0.00     0.030 A 
BRANCH  15  22
HETATM   22  O1  UNL     1      28.100   4.654  49.060  1.00  0.00    -0.359 OA
HETATM   23  H1  UNL     1      28.749   4.773  48.279  1.00  0.00     0.217 HD
ENDBRANCH  15  22
ENDBRANCH  13  14
ENDBRANCH   1  13
TORSDOF 3
ENDMDL
MODEL 8
REMARK VINA RESULT:      -7.0      4.079      6.167
REMARK  3 active torsions:
REMARK  status: ('A' for Active; 'I' for Inactive)
REMARK    1  A    between atoms: O1_1  and  C1_2 
REMARK    2  A    between atoms: C6_9  and  C7_10 
REMARK    3  A    between atoms: C7_10  and  N1_11 
ROOT
HETATM    1  N1  UNL     1      22.791   3.043  51.731  1.00  0.00     0.120 N 
HETATM    2  C8  UNL     1      23.855   2.472  52.604  1.00  0.00     0.278 C 
HETATM    3  C9  UNL     1      23.949   1.030  52.443  1.00  0.00     0.057 C 
HETATM    4  C10 UNL     1      24.976   0.351  53.232  1.00  0.00    -0.025 C 
HETATM    5  C11 UNL     1      24.366  -0.525  54.057  1.00  0.00    -0.004 C 
HETATM    6  C12 UNL     1      23.097  -1.066  54.511  1.00  0.00    -0.004 C 
HETATM    7  C13 UNL     1      21.797  -0.806  54.297  1.00  0.00    -0.025 C 
HETATM    8  C14 UNL     1      20.423  -0.396  53.965  1.00  0.00     0.057 C 
HETATM    9  C15 UNL     1      20.398   0.981  53.405  1.00  0.00     0.275 C 
HETATM   10  N2  UNL     1      21.294   1.227  52.348  1.00  0.00     0.112 N 
HETATM   11  C16 UNL     1      21.488   2.681  52.282  1.00  0.00     0.540 C 
HETATM   12  H18 UNL     1      20.844   0.886  51.452  1.00  0.00     0.318 HD
ENDROOT
BRANCH   1  13
HETATM   13  C7  UNL     1      22.892   4.481  51.929  1.00  0.00     0.316 C 
BRANCH  13  14
HETATM   14  C6  UNL     1      23.140   5.247  50.708  1.00  0.00     0.006 A 
HETATM   15  C1  UNL     1      23.955   6.347  50.868  1.00  0.00     0.091 A 
HETATM   16  C2  UNL     1      24.271   7.166  49.795  1.00  0.00     0.045 A 
HETATM   17 BR1  UNL     1      25.393   8.708  49.940  1.00  0.00    -0.048 Br
HETATM   18  C3  UNL     1      23.776   6.900  48.528  1.00  0.00     0.041 A 
HETATM   19  C4  UNL     1      22.952   5.790  48.365  1.00  0.00     0.013 A 
HETATM   20 BR2  UNL     1      22.222   5.343  46.656  1.00  0.00    -0.051 Br
HETATM   21  C5  UNL     1      22.637   4.975  49.432  1.00  0.00     0.030 A 
BRANCH  15  22
HETATM   22  O1  UNL     1      24.540   6.763  52.068  1.00  0.00    -0.359 OA
HETATM   23  H1  UNL     1      23.893   7.027  52.816  1.00  0.00     0.217 HD
ENDBRANCH  15  22
ENDBRANCH  13  14
ENDBRANCH   1  13
TORSDOF 3
ENDMDL
MODEL 9
REMARK VINA RESULT:      -6.9      8.767     11.313
REMARK  3 active torsions:
REMARK  status: ('A' for Active; 'I' for Inactive)
REMARK    1  A    between atoms: O1_1  and  C1_2 
REMARK    2  A    between atoms: C6_9  and  C7_10 
REMARK    3  A    between atoms: C7_10  and  N1_11 
ROOT
HETATM    1  N1  UNL     1      29.705   7.252  47.952  1.00  0.00     0.120 N 
HETATM    2  C8  UNL     1      29.158   6.015  48.577  1.00  0.00     0.278 C 
HETATM    3  C9  UNL     1      27.752   5.840  48.255  1.00  0.00     0.057 C 
HETATM    4  C10 UNL     1      27.103   4.645  48.793  1.00  0.00    -0.025 C 
HETATM    5  C11 UNL     1      26.104   5.038  49.612  1.00  0.00    -0.004 C 
HETATM    6  C12 UNL     1      25.411   6.167  50.207  1.00  0.00    -0.004 C 
HETATM    7  C13 UNL     1      25.568   7.499  50.234  1.00  0.00    -0.025 C 
HETATM    8  C14 UNL     1      25.878   8.938  50.173  1.00  0.00     0.057 C 
HETATM    9  C15 UNL     1      27.290   9.162  49.769  1.00  0.00     0.275 C 
HETATM   10  N2  UNL     1      27.711   8.479  48.612  1.00  0.00     0.112 N 
HETATM   11  C16 UNL     1      29.177   8.411  48.666  1.00  0.00     0.540 C 
HETATM   12  H18 UNL     1      27.412   9.048  47.771  1.00  0.00     0.318 HD
ENDROOT
BRANCH   1  13
HETATM   13  C7  UNL     1      31.123   7.228  48.278  1.00  0.00     0.316 C 
BRANCH  13  14
HETATM   14  C6  UNL     1      31.958   6.519  47.310  1.00  0.00     0.006 A 
HETATM   15  C1  UNL     1      32.753   5.527  47.843  1.00  0.00     0.091 A 
HETATM   16  C2  UNL     1      33.598   4.776  47.041  1.00  0.00     0.045 A 
HETATM   17 BR1  UNL     1      34.729   3.388  47.709  1.00  0.00    -0.048 Br
HETATM   18  C3  UNL     1      33.666   5.002  45.675  1.00  0.00     0.041 A 
HETATM   19  C4  UNL     1      32.864   6.003  45.134  1.00  0.00     0.013 A 
HETATM   20 BR2  UNL     1      32.890   6.386  43.261  1.00  0.00    -0.051 Br
HETATM   21  C5  UNL     1      32.023   6.750  45.931  1.00  0.00     0.030 A 
BRANCH  15  22
HETATM   22  O1  UNL     1      32.812   5.166  49.193  1.00  0.00    -0.359 OA
HETATM   23  H1  UNL     1      31.917   4.959  49.643  1.00  0.00     0.217 HD
ENDBRANCH  15  22
ENDBRANCH  13  14
ENDBRANCH   1  13
TORSDOF 3
ENDMDL
