MODEL 1
REMARK VINA RESULT:      -7.8      0.000      0.000
REMARK  1 active torsions:
REMARK  status: ('A' for Active; 'I' for Inactive)
REMARK    1  A    between atoms: C3_3  and  C4_5 
ROOT
HETATM    1  C4  UNL     1      26.870  -0.915  53.145  1.00  0.00     0.337 C 
HETATM    2  N1  UNL     1      26.907  -0.549  54.532  1.00  0.00    -0.036 NA
HETATM    3  C5  UNL     1      26.484   0.648  54.080  1.00  0.00     0.735 C 
HETATM    4  N2  UNL     1      26.797   2.158  54.073  1.00  0.00    -0.056 NA
HETATM    5  C6  UNL     1      26.981   2.769  52.808  1.00  0.00     0.255 C 
HETATM    6  N3  UNL     1      26.685   1.709  51.522  1.00  0.00    -0.216 NA
HETATM    7  C7  UNL     1      25.681   0.885  52.086  1.00  0.00     0.182 C 
HETATM    8  O1  UNL     1      27.107   0.354  52.340  1.00  0.00    -0.273 OA
HETATM    9  C8  UNL     1      24.206   0.664  52.378  1.00  0.00     0.045 A 
HETATM   10  C9  UNL     1      23.086   1.312  51.811  1.00  0.00     0.019 A 
HETATM   11  C10 UNL     1      21.933   0.754  52.270  1.00  0.00     0.020 A 
HETATM   12  C11 UNL     1      21.851  -0.287  53.155  1.00  0.00     0.013 A 
HETATM   13 BR1  UNL     1      20.173  -0.981  53.721  1.00  0.00    -0.051 Br
HETATM   14  C12 UNL     1      22.929  -0.923  53.712  1.00  0.00     0.050 A 
HETATM   15  C13 UNL     1      24.105  -0.440  53.317  1.00  0.00     0.073 A 
HETATM   16  N4  UNL     1      25.488  -0.509  53.372  1.00  0.00    -0.116 N 
ENDROOT
BRANCH   1  17
HETATM   17  C3  UNL     1      27.303  -2.121  52.695  1.00  0.00     0.171 C 
HETATM   18  C2  UNL     1      28.478  -2.677  52.908  1.00  0.00     0.014 C 
HETATM   19  C1  UNL     1      29.779  -2.468  53.581  1.00  0.00     0.039 C 
HETATM   20  F1  UNL     1      26.284  -2.658  51.972  1.00  0.00    -0.204 F 
ENDBRANCH   1  17
TORSDOF 1
ENDMDL
MODEL 2
REMARK VINA RESULT:      -7.5      3.287      5.047
REMARK  1 active torsions:
REMARK  status: ('A' for Active; 'I' for Inactive)
REMARK    1  A    between atoms: C3_3  and  C4_5 
ROOT
HETATM    1  C4  UNL     1      22.621   0.984  52.839  1.00  0.00     0.337 C 
HETATM    2  N1  UNL     1      22.615   0.600  51.456  1.00  0.00    -0.036 NA
HETATM    3  C5  UNL     1      23.486   1.619  51.317  1.00  0.00     0.735 C 
HETATM    4  N2  UNL     1      23.757   2.929  50.551  1.00  0.00    -0.056 NA
HETATM    5  C6  UNL     1      23.911   4.105  51.325  1.00  0.00     0.255 C 
HETATM    6  N3  UNL     1      23.893   3.797  52.990  1.00  0.00    -0.216 NA
HETATM    7  C7  UNL     1      24.472   2.506  53.024  1.00  0.00     0.182 C 
HETATM    8  O1  UNL     1      22.936   2.472  52.889  1.00  0.00    -0.273 OA
HETATM    9  C8  UNL     1      25.733   1.657  53.060  1.00  0.00     0.045 A 
HETATM   10  C9  UNL     1      27.053   2.049  53.372  1.00  0.00     0.019 A 
HETATM   11  C10 UNL     1      27.878   0.966  53.387  1.00  0.00     0.020 A 
HETATM   12  C11 UNL     1      27.498  -0.325  53.138  1.00  0.00     0.013 A 
HETATM   13 BR1  UNL     1      28.749  -1.757  53.190  1.00  0.00    -0.051 Br
HETATM   14  C12 UNL     1      26.222  -0.717  52.834  1.00  0.00     0.050 A 
HETATM   15  C13 UNL     1      25.343   0.283  52.797  1.00  0.00     0.073 A 
HETATM   16  N4  UNL     1      24.034   0.697  52.614  1.00  0.00    -0.116 N 
ENDROOT
BRANCH   1  17
HETATM   17  C3  UNL     1      21.809   0.408  53.763  1.00  0.00     0.171 C 
HETATM   18  C2  UNL     1      22.138  -0.500  54.659  1.00  0.00     0.014 C 
HETATM   19  C1  UNL     1      23.273  -1.305  55.163  1.00  0.00     0.039 C 
HETATM   20  F1  UNL     1      20.573   0.948  53.589  1.00  0.00    -0.204 F 
ENDBRANCH   1  17
TORSDOF 1
ENDMDL
MODEL 3
REMARK VINA RESULT:      -7.4      3.532      5.747
REMARK  1 active torsions:
REMARK  status: ('A' for Active; 'I' for Inactive)
REMARK    1  A    between atoms: C3_3  and  C4_5 
ROOT
HETATM    1  C4  UNL     1      22.052   0.998  51.614  1.00  0.00     0.337 C 
HETATM    2  N1  UNL     1      21.632   2.018  52.532  1.00  0.00    -0.036 NA
HETATM    3  C5  UNL     1      21.921   1.094  53.469  1.00  0.00     0.735 C 
HETATM    4  N2  UNL     1      21.347   0.319  54.672  1.00  0.00    -0.056 NA
HETATM    5  C6  UNL     1      21.349  -1.095  54.585  1.00  0.00     0.255 C 
HETATM    6  N3  UNL     1      22.121  -1.661  53.189  1.00  0.00    -0.216 NA
HETATM    7  C7  UNL     1      23.102  -0.657  53.006  1.00  0.00     0.182 C 
HETATM    8  O1  UNL     1      21.778  -0.343  52.279  1.00  0.00    -0.273 OA
HETATM    9  C8  UNL     1      24.486  -0.128  53.344  1.00  0.00     0.045 A 
HETATM   10  C9  UNL     1      25.567  -0.805  53.949  1.00  0.00     0.019 A 
HETATM   11  C10 UNL     1      26.667  -0.004  53.987  1.00  0.00     0.020 A 
HETATM   12  C11 UNL     1      26.733   1.278  53.510  1.00  0.00     0.013 A 
HETATM   13 BR1  UNL     1      28.334   2.298  53.621  1.00  0.00    -0.051 Br
HETATM   14  C12 UNL     1      25.692   1.945  52.923  1.00  0.00     0.050 A 
HETATM   15  C13 UNL     1      24.569   1.233  52.843  1.00  0.00     0.073 A 
HETATM   16  N4  UNL     1      23.247   1.156  52.435  1.00  0.00    -0.116 N 
ENDROOT
BRANCH   1  17
HETATM   17  C3  UNL     1      21.963   1.143  50.267  1.00  0.00     0.171 C 
HETATM   18  C2  UNL     1      22.590   2.026  49.517  1.00  0.00     0.014 C 
HETATM   19  C1  UNL     1      23.551   3.150  49.570  1.00  0.00     0.039 C 
HETATM   20  F1  UNL     1      21.091   0.197  49.827  1.00  0.00    -0.204 F 
ENDBRANCH   1  17
TORSDOF 1
ENDMDL
MODEL 4
REMARK VINA RESULT:      -7.4      8.220      9.528
REMARK  1 active torsions:
REMARK  status: ('A' for Active; 'I' for Inactive)
REMARK    1  A    between atoms: C3_3  and  C4_5 
ROOT
HETATM    1  C4  UNL     1      31.893   4.922  47.520  1.00  0.00     0.337 C 
HETATM    2  N1  UNL     1      32.152   4.952  48.932  1.00  0.00    -0.036 NA
HETATM    3  C5  UNL     1      31.814   6.252  48.822  1.00  0.00     0.735 C 
HETATM    4  N2  UNL     1      32.294   7.691  49.095  1.00  0.00    -0.056 NA
HETATM    5  C6  UNL     1      32.381   8.561  47.981  1.00  0.00     0.255 C 
HETATM    6  N3  UNL     1      31.800   7.857  46.556  1.00  0.00    -0.216 NA
HETATM    7  C7  UNL     1      30.790   7.010  47.074  1.00  0.00     0.182 C 
HETATM    8  O1  UNL     1      32.167   6.320  46.985  1.00  0.00    -0.273 OA
HETATM    9  C8  UNL     1      29.350   6.849  47.533  1.00  0.00     0.045 A 
HETATM   10  C9  UNL     1      28.248   7.700  47.298  1.00  0.00     0.019 A 
HETATM   11  C10 UNL     1      27.108   7.148  47.795  1.00  0.00     0.020 A 
HETATM   12  C11 UNL     1      27.024   5.940  48.434  1.00  0.00     0.013 A 
HETATM   13 BR1  UNL     1      25.365   5.274  49.086  1.00  0.00    -0.051 Br
HETATM   14  C12 UNL     1      28.085   5.107  48.668  1.00  0.00     0.050 A 
HETATM   15  C13 UNL     1      29.247   5.570  48.212  1.00  0.00     0.073 A 
HETATM   16  N4  UNL     1      30.608   5.376  48.039  1.00  0.00    -0.116 N 
ENDROOT
BRANCH   1  17
HETATM   17  C3  UNL     1      32.122   3.822  46.758  1.00  0.00     0.171 C 
HETATM   18  C2  UNL     1      33.259   3.461  46.199  1.00  0.00     0.014 C 
HETATM   19  C1  UNL     1      34.676   3.859  46.040  1.00  0.00     0.039 C 
HETATM   20  F1  UNL     1      30.943   3.150  46.675  1.00  0.00    -0.204 F 
ENDBRANCH   1  17
TORSDOF 1
ENDMDL
MODEL 5
REMARK VINA RESULT:      -7.3      3.943      5.239
REMARK  1 active torsions:
REMARK  status: ('A' for Active; 'I' for Inactive)
REMARK    1  A    between atoms: C3_3  and  C4_5 
ROOT
HETATM    1  C4  UNL     1      24.864   3.579  50.237  1.00  0.00     0.337 C 
HETATM    2  N1  UNL     1      24.441   4.594  51.159  1.00  0.00    -0.036 NA
HETATM    3  C5  UNL     1      23.208   4.289  50.708  1.00  0.00     0.735 C 
HETATM    4  N2  UNL     1      21.934   4.880  50.073  1.00  0.00    -0.056 NA
HETATM    5  C6  UNL     1      21.529   4.343  48.826  1.00  0.00     0.255 C 
HETATM    6  N3  UNL     1      22.487   3.036  48.337  1.00  0.00    -0.216 NA
HETATM    7  C7  UNL     1      22.828   2.476  49.592  1.00  0.00     0.182 C 
HETATM    8  O1  UNL     1      23.839   3.539  49.113  1.00  0.00    -0.273 OA
HETATM    9  C8  UNL     1      22.454   1.547  50.736  1.00  0.00     0.045 A 
HETATM   10  C9  UNL     1      21.475   0.531  50.764  1.00  0.00     0.019 A 
HETATM   11  C10 UNL     1      21.521  -0.140  51.947  1.00  0.00     0.020 A 
HETATM   12  C11 UNL     1      22.389   0.120  52.974  1.00  0.00     0.013 A 
HETATM   13 BR1  UNL     1      22.355  -0.893  54.584  1.00  0.00    -0.051 Br
HETATM   14  C12 UNL     1      23.342   1.102  52.958  1.00  0.00     0.050 A 
HETATM   15  C13 UNL     1      23.369   1.812  51.833  1.00  0.00     0.073 A 
HETATM   16  N4  UNL     1      23.951   2.828  51.092  1.00  0.00    -0.116 N 
ENDROOT
BRANCH   1  17
HETATM   17  C3  UNL     1      26.173   3.304  50.002  1.00  0.00     0.171 C 
HETATM   18  C2  UNL     1      27.035   4.041  49.332  1.00  0.00     0.014 C 
HETATM   19  C1  UNL     1      27.173   5.310  48.583  1.00  0.00     0.039 C 
HETATM   20  F1  UNL     1      26.434   2.107  50.592  1.00  0.00    -0.204 F 
ENDBRANCH   1  17
TORSDOF 1
ENDMDL
MODEL 6
REMARK VINA RESULT:      -7.2      2.414      3.077
REMARK  1 active torsions:
REMARK  status: ('A' for Active; 'I' for Inactive)
REMARK    1  A    between atoms: C3_3  and  C4_5 
ROOT
HETATM    1  C4  UNL     1      25.502   1.927  52.472  1.00  0.00     0.337 C 
HETATM    2  N1  UNL     1      25.146   2.813  53.545  1.00  0.00    -0.036 NA
HETATM    3  C5  UNL     1      24.251   3.294  52.660  1.00  0.00     0.735 C 
HETATM    4  N2  UNL     1      23.761   4.574  51.956  1.00  0.00    -0.056 NA
HETATM    5  C6  UNL     1      23.797   4.582  50.539  1.00  0.00     0.255 C 
HETATM    6  N3  UNL     1      24.265   3.091  49.890  1.00  0.00    -0.216 NA
HETATM    7  C7  UNL     1      23.740   2.205  50.862  1.00  0.00     0.182 C 
HETATM    8  O1  UNL     1      25.185   2.649  51.171  1.00  0.00    -0.273 OA
HETATM    9  C8  UNL     1      22.551   1.410  51.375  1.00  0.00     0.045 A 
HETATM   10  C9  UNL     1      21.355   1.075  50.703  1.00  0.00     0.019 A 
HETATM   11  C10 UNL     1      20.585   0.265  51.479  1.00  0.00     0.020 A 
HETATM   12  C11 UNL     1      20.908  -0.173  52.735  1.00  0.00     0.013 A 
HETATM   13 BR1  UNL     1      19.743  -1.306  53.723  1.00  0.00    -0.051 Br
HETATM   14  C12 UNL     1      22.064   0.145  53.398  1.00  0.00     0.050 A 
HETATM   15  C13 UNL     1      22.881   0.938  52.709  1.00  0.00     0.073 A 
HETATM   16  N4  UNL     1      24.087   1.618  52.642  1.00  0.00    -0.116 N 
ENDROOT
BRANCH   1  17
HETATM   17  C3  UNL     1      26.543   1.058  52.556  1.00  0.00     0.171 C 
HETATM   18  C2  UNL     1      27.753   1.304  53.016  1.00  0.00     0.014 C 
HETATM   19  C1  UNL     1      28.602   2.369  53.596  1.00  0.00     0.039 C 
HETATM   20  F1  UNL     1      26.099  -0.132  52.071  1.00  0.00    -0.204 F 
ENDBRANCH   1  17
TORSDOF 1
ENDMDL
MODEL 7
REMARK VINA RESULT:      -7.2      3.959      5.795
REMARK  1 active torsions:
REMARK  status: ('A' for Active; 'I' for Inactive)
REMARK    1  A    between atoms: C3_3  and  C4_5 
ROOT
HETATM    1  C4  UNL     1      21.083   0.913  51.621  1.00  0.00     0.337 C 
HETATM    2  N1  UNL     1      21.558   0.628  50.296  1.00  0.00    -0.036 NA
HETATM    3  C5  UNL     1      22.133   1.842  50.395  1.00  0.00     0.735 C 
HETATM    4  N2  UNL     1      22.249   3.224  49.721  1.00  0.00    -0.056 NA
HETATM    5  C6  UNL     1      21.870   4.349  50.494  1.00  0.00     0.255 C 
HETATM    6  N3  UNL     1      21.477   3.943  52.089  1.00  0.00    -0.216 NA
HETATM    7  C7  UNL     1      22.343   2.843  52.301  1.00  0.00     0.182 C 
HETATM    8  O1  UNL     1      20.969   2.425  51.739  1.00  0.00    -0.273 OA
HETATM    9  C8  UNL     1      23.723   2.344  52.699  1.00  0.00     0.045 A 
HETATM   10  C9  UNL     1      24.755   3.040  53.366  1.00  0.00     0.019 A 
HETATM   11  C10 UNL     1      25.799   2.206  53.625  1.00  0.00     0.020 A 
HETATM   12  C11 UNL     1      25.856   0.879  53.294  1.00  0.00     0.013 A 
HETATM   13 BR1  UNL     1      27.376  -0.185  53.713  1.00  0.00    -0.051 Br
HETATM   14  C12 UNL     1      24.862   0.194  52.648  1.00  0.00     0.050 A 
HETATM   15  C13 UNL     1      23.797   0.935  52.354  1.00  0.00     0.073 A 
HETATM   16  N4  UNL     1      22.527   1.011  51.805  1.00  0.00    -0.116 N 
ENDROOT
BRANCH   1  17
HETATM   17  C3  UNL     1      20.230   0.091  52.285  1.00  0.00     0.171 C 
HETATM   18  C2  UNL     1      20.334  -0.329  53.529  1.00  0.00     0.014 C 
HETATM   19  C1  UNL     1      21.183  -0.242  54.738  1.00  0.00     0.039 C 
HETATM   20  F1  UNL     1      19.233  -0.225  51.416  1.00  0.00    -0.204 F 
ENDBRANCH   1  17
TORSDOF 1
ENDMDL
MODEL 8
REMARK VINA RESULT:      -7.2      3.626      5.364
REMARK  1 active torsions:
REMARK  status: ('A' for Active; 'I' for Inactive)
REMARK    1  A    between atoms: C3_3  and  C4_5 
ROOT
HETATM    1  C4  UNL     1      24.034   1.632  52.234  1.00  0.00     0.337 C 
HETATM    2  N1  UNL     1      24.040   2.511  53.369  1.00  0.00    -0.036 NA
HETATM    3  C5  UNL     1      25.359   2.604  53.110  1.00  0.00     0.735 C 
HETATM    4  N2  UNL     1      26.763   2.434  53.723  1.00  0.00    -0.056 NA
HETATM    5  C6  UNL     1      27.633   1.512  53.090  1.00  0.00     0.255 C 
HETATM    6  N3  UNL     1      26.975   0.862  51.672  1.00  0.00    -0.216 NA
HETATM    7  C7  UNL     1      26.191   1.953  51.223  1.00  0.00     0.182 C 
HETATM    8  O1  UNL     1      25.415   0.997  52.152  1.00  0.00    -0.273 OA
HETATM    9  C8  UNL     1      26.120   3.259  50.449  1.00  0.00     0.045 A 
HETATM   10  C9  UNL     1      27.041   3.784  49.516  1.00  0.00     0.019 A 
HETATM   11  C10 UNL     1      26.560   4.935  48.971  1.00  0.00     0.020 A 
HETATM   12  C11 UNL     1      25.356   5.513  49.272  1.00  0.00     0.013 A 
HETATM   13 BR1  UNL     1      24.793   7.128  48.438  1.00  0.00    -0.051 Br
HETATM   14  C12 UNL     1      24.455   5.014  50.174  1.00  0.00     0.050 A 
HETATM   15  C13 UNL     1      24.846   3.884  50.759  1.00  0.00     0.073 A 
HETATM   16  N4  UNL     1      24.567   2.856  51.646  1.00  0.00    -0.116 N 
ENDROOT
BRANCH   1  17
HETATM   17  C3  UNL     1      22.926   0.953  51.840  1.00  0.00     0.171 C 
HETATM   18  C2  UNL     1      22.233   0.080  52.543  1.00  0.00     0.014 C 
HETATM   19  C1  UNL     1      22.170  -0.591  53.860  1.00  0.00     0.039 C 
HETATM   20  F1  UNL     1      22.658   1.345  50.566  1.00  0.00    -0.204 F 
ENDBRANCH   1  17
TORSDOF 1
ENDMDL
MODEL 9
REMARK VINA RESULT:      -7.1      3.669      5.560
REMARK  1 active torsions:
REMARK  status: ('A' for Active; 'I' for Inactive)
REMARK    1  A    between atoms: C3_3  and  C4_5 
ROOT
HETATM    1  C4  UNL     1      22.888   2.161  50.360  1.00  0.00     0.337 C 
HETATM    2  N1  UNL     1      23.790   2.640  49.351  1.00  0.00    -0.036 NA
HETATM    3  C5  UNL     1      24.191   3.490  50.316  1.00  0.00     0.735 C 
HETATM    4  N2  UNL     1      24.396   4.980  50.656  1.00  0.00    -0.056 NA
HETATM    5  C6  UNL     1      23.689   5.485  51.775  1.00  0.00     0.255 C 
HETATM    6  N3  UNL     1      22.838   4.282  52.608  1.00  0.00    -0.216 NA
HETATM    7  C7  UNL     1      23.683   3.167  52.393  1.00  0.00     0.182 C 
HETATM    8  O1  UNL     1      22.607   3.325  51.299  1.00  0.00    -0.273 OA
HETATM    9  C8  UNL     1      24.898   2.365  52.830  1.00  0.00     0.045 A 
HETATM   10  C9  UNL     1      25.592   2.412  54.059  1.00  0.00     0.019 A 
HETATM   11  C10 UNL     1      26.565   1.461  54.091  1.00  0.00     0.020 A 
HETATM   12  C11 UNL     1      26.844   0.576  53.084  1.00  0.00     0.013 A 
HETATM   13 BR1  UNL     1      28.235  -0.711  53.250  1.00  0.00    -0.051 Br
HETATM   14  C12 UNL     1      26.179   0.521  51.889  1.00  0.00     0.050 A 
HETATM   15  C13 UNL     1      25.205   1.420  51.770  1.00  0.00     0.073 A 
HETATM   16  N4  UNL     1      24.179   1.955  51.007  1.00  0.00    -0.116 N 
ENDROOT
BRANCH   1  17
HETATM   17  C3  UNL     1      21.943   1.219  50.109  1.00  0.00     0.171 C 
HETATM   18  C2  UNL     1      21.380   0.402  50.977  1.00  0.00     0.014 C 
HETATM   19  C1  UNL     1      21.366   0.028  52.408  1.00  0.00     0.039 C 
HETATM   20  F1  UNL     1      21.679   1.273  48.776  1.00  0.00    -0.204 F 
ENDBRANCH   1  17
TORSDOF 1
ENDMDL
