MODEL 1
REMARK VINA RESULT:      -8.0      0.000      0.000
REMARK  3 active torsions:
REMARK  status: ('A' for Active; 'I' for Inactive)
REMARK    1  A    between atoms: C2_2  and  C3_3 
REMARK    2  A    between atoms: N4_9  and  C6_10 
REMARK    3  A    between atoms: C6_10  and  O1_11 
ROOT
HETATM    1  C3  UNL     1      26.441   1.981  51.208  1.00  0.00     0.160 A 
HETATM    2  C4  UNL     1      25.322   2.924  50.790  1.00  0.00     0.035 A 
HETATM    3  N1  UNL     1      26.411   3.524  50.639  1.00  0.00    -0.273 N 
HETATM    4  N2  UNL     1      26.629   4.773  50.193  1.00  0.00    -0.239 N 
HETATM    5  N3  UNL     1      25.850   5.963  50.125  1.00  0.00    -0.273 N 
HETATM    6  C5  UNL     1      25.131   7.170  50.131  1.00  0.00     0.121 C 
HETATM    7  N4  UNL     1      26.345   7.581  50.058  1.00  0.00    -0.250 NA
HETATM    8  C7  UNL     1      23.634   6.965  50.216  1.00  0.00     0.126 C 
HETATM    9  C8  UNL     1      23.159   6.157  49.088  1.00  0.00    -0.004 C 
HETATM   10 BR1  UNL     1      23.142   6.808  47.292  1.00  0.00    -0.055 Br
HETATM   11  C9  UNL     1      22.705   4.932  49.202  1.00  0.00     0.023 C 
HETATM   12  C10 UNL     1      22.494   3.961  50.282  1.00  0.00    -0.045 A 
HETATM   13  C11 UNL     1      21.654   4.604  51.129  1.00  0.00     0.008 A 
HETATM   14  C12 UNL     1      21.298   3.796  52.316  1.00  0.00    -0.002 A 
HETATM   15  C13 UNL     1      21.967   2.678  52.091  1.00  0.00    -0.012 A 
HETATM   16  C14 UNL     1      22.785   2.640  50.794  1.00  0.00     0.006 A 
HETATM   17  C15 UNL     1      22.006   1.678  49.837  1.00  0.00     0.025 C 
HETATM   18  C16 UNL     1      24.119   2.111  51.015  1.00  0.00     0.074 C 
HETATM   19  H6  UNL     1      27.625   4.844  49.821  1.00  0.00     0.208 HD
HETATM   20  H7  UNL     1      25.441   5.417  49.285  1.00  0.00     0.190 HD
ENDROOT
BRANCH   7  21
HETATM   21  C6  UNL     1      26.814   8.930  50.000  1.00  0.00     0.315 C 
BRANCH  21  22
HETATM   22  O1  UNL     1      27.470   9.325  51.171  1.00  0.00    -0.380 OA
HETATM   23  H10 UNL     1      28.303   8.805  51.332  1.00  0.00     0.211 HD
ENDBRANCH  21  22
ENDBRANCH   7  21
BRANCH   1  24
HETATM   24  C2  UNL     1      26.565   0.718  51.659  1.00  0.00     0.018 C 
HETATM   25  C1  UNL     1      26.841  -0.524  52.450  1.00  0.00     0.013 C 
ENDBRANCH   1  24
TORSDOF 3
ENDMDL
MODEL 2
REMARK VINA RESULT:      -7.3      4.268      6.700
REMARK  3 active torsions:
REMARK  status: ('A' for Active; 'I' for Inactive)
REMARK    1  A    between atoms: C2_2  and  C3_3 
REMARK    2  A    between atoms: N4_9  and  C6_10 
REMARK    3  A    between atoms: C6_10  and  O1_11 
ROOT
HETATM    1  C3  UNL     1      26.007   3.705  50.296  1.00  0.00     0.160 A 
HETATM    2  C4  UNL     1      25.339   2.643  51.157  1.00  0.00     0.035 A 
HETATM    3  N1  UNL     1      26.578   2.476  51.227  1.00  0.00    -0.273 N 
HETATM    4  N2  UNL     1      27.264   1.550  51.919  1.00  0.00    -0.239 N 
HETATM    5  N3  UNL     1      26.961   0.260  52.441  1.00  0.00    -0.273 N 
HETATM    6  C5  UNL     1      26.712  -1.049  52.885  1.00  0.00     0.121 C 
HETATM    7  N4  UNL     1      27.993  -1.031  52.809  1.00  0.00    -0.250 NA
HETATM    8  C7  UNL     1      25.237  -1.342  53.058  1.00  0.00     0.126 C 
HETATM    9  C8  UNL     1      24.636  -0.412  54.020  1.00  0.00    -0.004 C 
HETATM   10 BR1  UNL     1      25.042  -0.459  55.887  1.00  0.00    -0.055 Br
HETATM   11  C9  UNL     1      23.774   0.522  53.698  1.00  0.00     0.023 C 
HETATM   12  C10 UNL     1      23.122   1.006  52.475  1.00  0.00    -0.045 A 
HETATM   13  C11 UNL     1      22.472  -0.087  52.007  1.00  0.00     0.008 A 
HETATM   14  C12 UNL     1      21.730   0.174  50.754  1.00  0.00    -0.002 A 
HETATM   15  C13 UNL     1      21.988   1.454  50.549  1.00  0.00    -0.012 A 
HETATM   16  C14 UNL     1      22.877   2.131  51.600  1.00  0.00     0.006 A 
HETATM   17  C15 UNL     1      21.921   3.055  52.423  1.00  0.00     0.025 C 
HETATM   18  C16 UNL     1      23.911   2.945  50.986  1.00  0.00     0.074 C 
HETATM   19  H6  UNL     1      28.257   1.900  52.085  1.00  0.00     0.208 HD
HETATM   20  H7  UNL     1      26.482   0.886  53.182  1.00  0.00     0.190 HD
ENDROOT
BRANCH   7  21
HETATM   21  C6  UNL     1      28.906  -2.090  53.107  1.00  0.00     0.315 C 
BRANCH  21  22
HETATM   22  O1  UNL     1      28.354  -3.357  52.889  1.00  0.00    -0.380 OA
HETATM   23  H10 UNL     1      28.189  -3.848  53.738  1.00  0.00     0.211 HD
ENDBRANCH  21  22
ENDBRANCH   7  21
BRANCH   1  24
HETATM   24  C2  UNL     1      25.634   4.746  49.527  1.00  0.00     0.018 C 
HETATM   25  C1  UNL     1      24.904   5.860  48.840  1.00  0.00     0.013 C 
ENDBRANCH   1  24
TORSDOF 3
ENDMDL
MODEL 3
REMARK VINA RESULT:      -7.3      3.937      6.244
REMARK  3 active torsions:
REMARK  status: ('A' for Active; 'I' for Inactive)
REMARK    1  A    between atoms: C2_2  and  C3_3 
REMARK    2  A    between atoms: N4_9  and  C6_10 
REMARK    3  A    between atoms: C6_10  and  O1_11 
ROOT
HETATM    1  C3  UNL     1      23.342   5.530  51.636  1.00  0.00     0.160 A 
HETATM    2  C4  UNL     1      22.887   4.082  51.756  1.00  0.00     0.035 A 
HETATM    3  N1  UNL     1      23.867   4.245  52.519  1.00  0.00    -0.273 N 
HETATM    4  N2  UNL     1      24.461   3.350  53.327  1.00  0.00    -0.239 N 
HETATM    5  N3  UNL     1      24.545   1.930  53.359  1.00  0.00    -0.273 N 
HETATM    6  C5  UNL     1      24.717   0.535  53.358  1.00  0.00     0.121 C 
HETATM    7  N4  UNL     1      25.718   0.928  54.060  1.00  0.00    -0.250 NA
HETATM    8  C7  UNL     1      23.643  -0.190  52.577  1.00  0.00     0.126 C 
HETATM    9  C8  UNL     1      22.316   0.106  53.127  1.00  0.00    -0.004 C 
HETATM   10 BR1  UNL     1      21.746  -0.531  54.837  1.00  0.00    -0.055 Br
HETATM   11  C9  UNL     1      21.407   0.820  52.508  1.00  0.00     0.023 C 
HETATM   12  C10 UNL     1      21.289   1.533  51.231  1.00  0.00    -0.045 A 
HETATM   13  C11 UNL     1      21.500   0.567  50.306  1.00  0.00     0.008 A 
HETATM   14  C12 UNL     1      21.426   1.069  48.916  1.00  0.00    -0.002 A 
HETATM   15  C13 UNL     1      21.158   2.350  49.107  1.00  0.00    -0.012 A 
HETATM   16  C14 UNL     1      21.030   2.793  50.570  1.00  0.00     0.006 A 
HETATM   17  C15 UNL     1      19.503   3.040  50.799  1.00  0.00     0.025 C 
HETATM   18  C16 UNL     1      21.753   4.027  50.823  1.00  0.00     0.074 C 
HETATM   19  H6  UNL     1      24.980   3.868  54.101  1.00  0.00     0.208 HD
HETATM   20  H7  UNL     1      23.551   2.073  53.760  1.00  0.00     0.190 HD
ENDROOT
BRANCH   7  21
HETATM   21  C6  UNL     1      26.732   0.127  54.670  1.00  0.00     0.315 C 
BRANCH  21  22
HETATM   22  O1  UNL     1      27.896   0.851  54.951  1.00  0.00    -0.380 OA
HETATM   23  H10 UNL     1      28.577   0.302  55.424  1.00  0.00     0.211 HD
ENDBRANCH  21  22
ENDBRANCH   7  21
BRANCH   1  24
HETATM   24  C2  UNL     1      22.972   6.641  50.969  1.00  0.00     0.018 C 
HETATM   25  C1  UNL     1      22.232   7.736  50.265  1.00  0.00     0.013 C 
ENDBRANCH   1  24
TORSDOF 3
ENDMDL
MODEL 4
REMARK VINA RESULT:      -6.9      7.160      8.987
REMARK  3 active torsions:
REMARK  status: ('A' for Active; 'I' for Inactive)
REMARK    1  A    between atoms: C2_2  and  C3_3 
REMARK    2  A    between atoms: N4_9  and  C6_10 
REMARK    3  A    between atoms: C6_10  and  O1_11 
ROOT
HETATM    1  C3  UNL     1      21.221  -1.217  54.360  1.00  0.00     0.160 A 
HETATM    2  C4  UNL     1      20.420  -0.428  53.334  1.00  0.00     0.035 A 
HETATM    3  N1  UNL     1      19.637  -1.209  53.921  1.00  0.00    -0.273 N 
HETATM    4  N2  UNL     1      18.316  -1.374  53.733  1.00  0.00    -0.239 N 
HETATM    5  N3  UNL     1      17.418  -1.121  52.658  1.00  0.00    -0.273 N 
HETATM    6  C5  UNL     1      16.531  -0.965  51.580  1.00  0.00     0.121 C 
HETATM    7  N4  UNL     1      15.922  -1.833  52.303  1.00  0.00    -0.250 NA
HETATM    8  C7  UNL     1      17.023   0.030  50.551  1.00  0.00     0.126 C 
HETATM    9  C8  UNL     1      17.232   1.346  51.164  1.00  0.00    -0.004 C 
HETATM   10 BR1  UNL     1      15.788   2.435  51.780  1.00  0.00    -0.055 Br
HETATM   11  C9  UNL     1      18.410   1.894  51.342  1.00  0.00     0.023 C 
HETATM   12  C10 UNL     1      19.809   1.539  51.079  1.00  0.00    -0.045 A 
HETATM   13  C11 UNL     1      19.842   1.341  49.740  1.00  0.00     0.008 A 
HETATM   14  C12 UNL     1      21.184   0.967  49.241  1.00  0.00    -0.002 A 
HETATM   15  C13 UNL     1      21.896   0.972  50.355  1.00  0.00    -0.012 A 
HETATM   16  C14 UNL     1      21.130   1.339  51.633  1.00  0.00     0.006 A 
HETATM   17  C15 UNL     1      21.612   2.778  52.010  1.00  0.00     0.025 C 
HETATM   18  C16 UNL     1      21.443   0.434  52.725  1.00  0.00     0.074 C 
HETATM   19  H6  UNL     1      17.887  -1.799  54.611  1.00  0.00     0.208 HD
HETATM   20  H7  UNL     1      17.536  -0.120  53.049  1.00  0.00     0.190 HD
ENDROOT
BRANCH   7  21
HETATM   21  C6  UNL     1      14.665  -2.463  52.050  1.00  0.00     0.315 C 
BRANCH  21  22
HETATM   22  O1  UNL     1      13.776  -2.348  53.126  1.00  0.00    -0.380 OA
HETATM   23  H10 UNL     1      14.072  -1.668  53.788  1.00  0.00     0.211 HD
ENDBRANCH  21  22
ENDBRANCH   7  21
BRANCH   1  24
HETATM   24  C2  UNL     1      22.494  -1.280  54.799  1.00  0.00     0.018 C 
HETATM   25  C1  UNL     1      23.756  -1.293  55.607  1.00  0.00     0.013 C 
ENDBRANCH   1  24
TORSDOF 3
ENDMDL
MODEL 5
REMARK VINA RESULT:      -6.9      5.195      7.350
REMARK  3 active torsions:
REMARK  status: ('A' for Active; 'I' for Inactive)
REMARK    1  A    between atoms: C2_2  and  C3_3 
REMARK    2  A    between atoms: N4_9  and  C6_10 
REMARK    3  A    between atoms: C6_10  and  O1_11 
ROOT
HETATM    1  C3  UNL     1      21.398   2.839  47.480  1.00  0.00     0.160 A 
HETATM    2  C4  UNL     1      21.834   2.550  48.909  1.00  0.00     0.035 A 
HETATM    3  N1  UNL     1      20.821   1.855  48.664  1.00  0.00    -0.273 N 
HETATM    4  N2  UNL     1      20.181   0.988  49.468  1.00  0.00    -0.239 N 
HETATM    5  N3  UNL     1      20.082   0.815  50.878  1.00  0.00    -0.273 N 
HETATM    6  C5  UNL     1      19.898   0.680  52.264  1.00  0.00     0.121 C 
HETATM    7  N4  UNL     1      18.869   0.072  51.797  1.00  0.00    -0.250 NA
HETATM    8  C7  UNL     1      21.001   1.330  53.071  1.00  0.00     0.126 C 
HETATM    9  C8  UNL     1      22.303   0.751  52.726  1.00  0.00    -0.004 C 
HETATM   10 BR1  UNL     1      22.786  -1.040  53.185  1.00  0.00    -0.055 Br
HETATM   11  C9  UNL     1      23.247   1.396  52.083  1.00  0.00     0.023 C 
HETATM   12  C10 UNL     1      23.432   2.733  51.506  1.00  0.00    -0.045 A 
HETATM   13  C11 UNL     1      23.255   3.563  52.561  1.00  0.00     0.008 A 
HETATM   14  C12 UNL     1      23.399   4.992  52.205  1.00  0.00    -0.002 A 
HETATM   15  C13 UNL     1      23.669   4.922  50.913  1.00  0.00    -0.012 A 
HETATM   16  C14 UNL     1      23.732   3.507  50.322  1.00  0.00     0.006 A 
HETATM   17  C15 UNL     1      25.250   3.232  50.059  1.00  0.00     0.025 C 
HETATM   18  C16 UNL     1      23.010   3.417  49.066  1.00  0.00     0.074 C 
HETATM   19  H6  UNL     1      19.631   0.298  48.871  1.00  0.00     0.208 HD
HETATM   20  H7  UNL     1      21.059   0.384  50.698  1.00  0.00     0.190 HD
ENDROOT
BRANCH   7  21
HETATM   21  C6  UNL     1      17.820  -0.569  52.526  1.00  0.00     0.315 C 
BRANCH  21  22
HETATM   22  O1  UNL     1      18.195  -0.902  53.833  1.00  0.00    -0.380 OA
HETATM   23  H10 UNL     1      17.782  -1.753  54.138  1.00  0.00     0.211 HD
ENDBRANCH  21  22
ENDBRANCH   7  21
BRANCH   1  24
HETATM   24  C2  UNL     1      21.809   3.598  46.445  1.00  0.00     0.018 C 
HETATM   25  C1  UNL     1      21.918   4.436  45.207  1.00  0.00     0.013 C 
ENDBRANCH   1  24
TORSDOF 3
ENDMDL
MODEL 6
REMARK VINA RESULT:      -6.8      2.702      4.408
REMARK  3 active torsions:
REMARK  status: ('A' for Active; 'I' for Inactive)
REMARK    1  A    between atoms: C2_2  and  C3_3 
REMARK    2  A    between atoms: N4_9  and  C6_10 
REMARK    3  A    between atoms: C6_10  and  O1_11 
ROOT
HETATM    1  C3  UNL     1      25.658   3.750  49.798  1.00  0.00     0.160 A 
HETATM    2  C4  UNL     1      25.685   5.093  49.083  1.00  0.00     0.035 A 
HETATM    3  N1  UNL     1      26.869   4.743  49.295  1.00  0.00    -0.273 N 
HETATM    4  N2  UNL     1      28.006   5.384  48.975  1.00  0.00    -0.239 N 
HETATM    5  N3  UNL     1      28.350   6.740  48.706  1.00  0.00    -0.273 N 
HETATM    6  C5  UNL     1      28.729   8.080  48.526  1.00  0.00     0.121 C 
HETATM    7  N4  UNL     1      29.843   7.527  48.844  1.00  0.00    -0.250 NA
HETATM    8  C7  UNL     1      27.571   8.973  48.138  1.00  0.00     0.126 C 
HETATM    9  C8  UNL     1      26.951   8.504  46.894  1.00  0.00    -0.004 C 
HETATM   10 BR1  UNL     1      27.830   8.616  45.202  1.00  0.00    -0.055 Br
HETATM   11  C9  UNL     1      25.753   7.974  46.825  1.00  0.00     0.023 C 
HETATM   12  C10 UNL     1      24.668   7.650  47.757  1.00  0.00    -0.045 A 
HETATM   13  C11 UNL     1      24.365   8.843  48.322  1.00  0.00     0.008 A 
HETATM   14  C12 UNL     1      23.273   8.754  49.316  1.00  0.00    -0.002 A 
HETATM   15  C13 UNL     1      22.976   7.467  49.275  1.00  0.00    -0.012 A 
HETATM   16  C14 UNL     1      23.801   6.624  48.294  1.00  0.00     0.006 A 
HETATM   17  C15 UNL     1      22.829   6.287  47.115  1.00  0.00     0.025 C 
HETATM   18  C16 UNL     1      24.257   5.386  48.900  1.00  0.00     0.074 C 
HETATM   19  H6  UNL     1      28.805   4.681  48.932  1.00  0.00     0.208 HD
HETATM   20  H7  UNL     1      27.892   6.466  47.765  1.00  0.00     0.190 HD
ENDROOT
BRANCH   7  21
HETATM   21  C6  UNL     1      31.125   8.145  48.975  1.00  0.00     0.315 C 
BRANCH  21  22
HETATM   22  O1  UNL     1      31.610   8.112  50.288  1.00  0.00    -0.380 OA
HETATM   23  H10 UNL     1      30.900   7.890  50.947  1.00  0.00     0.211 HD
ENDBRANCH  21  22
ENDBRANCH   7  21
BRANCH   1  24
HETATM   24  C2  UNL     1      24.737   2.866  50.227  1.00  0.00     0.018 C 
HETATM   25  C1  UNL     1      23.538   2.180  50.808  1.00  0.00     0.013 C 
ENDBRANCH   1  24
TORSDOF 3
ENDMDL
MODEL 7
REMARK VINA RESULT:      -6.8      5.896      8.803
REMARK  3 active torsions:
REMARK  status: ('A' for Active; 'I' for Inactive)
REMARK    1  A    between atoms: C2_2  and  C3_3 
REMARK    2  A    between atoms: N4_9  and  C6_10 
REMARK    3  A    between atoms: C6_10  and  O1_11 
ROOT
HETATM    1  C3  UNL     1      28.066   5.415  48.434  1.00  0.00     0.160 A 
HETATM    2  C4  UNL     1      29.138   6.413  48.018  1.00  0.00     0.035 A 
HETATM    3  N1  UNL     1      29.657   5.273  48.041  1.00  0.00    -0.273 N 
HETATM    4  N2  UNL     1      30.923   4.919  47.760  1.00  0.00    -0.239 N 
HETATM    5  N3  UNL     1      32.175   5.598  47.751  1.00  0.00    -0.273 N 
HETATM    6  C5  UNL     1      33.430   6.223  47.823  1.00  0.00     0.121 C 
HETATM    7  N4  UNL     1      33.744   4.981  47.913  1.00  0.00    -0.250 NA
HETATM    8  C7  UNL     1      33.344   7.731  47.740  1.00  0.00     0.126 C 
HETATM    9  C8  UNL     1      32.700   8.144  46.488  1.00  0.00    -0.004 C 
HETATM   10 BR1  UNL     1      33.533   7.925  44.783  1.00  0.00    -0.055 Br
HETATM   11  C9  UNL     1      31.512   8.695  46.420  1.00  0.00     0.023 C 
HETATM   12  C10 UNL     1      30.456   9.088  47.360  1.00  0.00    -0.045 A 
HETATM   13  C11 UNL     1      31.075   9.963  48.188  1.00  0.00     0.008 A 
HETATM   14  C12 UNL     1      30.181  10.499  49.238  1.00  0.00    -0.002 A 
HETATM   15  C13 UNL     1      29.040   9.894  48.955  1.00  0.00    -0.012 A 
HETATM   16  C14 UNL     1      29.069   8.950  47.746  1.00  0.00     0.006 A 
HETATM   17  C15 UNL     1      28.280   9.692  46.618  1.00  0.00     0.025 C 
HETATM   18  C16 UNL     1      28.409   7.689  48.034  1.00  0.00     0.074 C 
HETATM   19  H6  UNL     1      30.948   3.887  47.496  1.00  0.00     0.208 HD
HETATM   20  H7  UNL     1      31.755   5.954  46.819  1.00  0.00     0.190 HD
ENDROOT
BRANCH   7  21
HETATM   21  C6  UNL     1      35.047   4.411  48.051  1.00  0.00     0.315 C 
BRANCH  21  22
HETATM   22  O1  UNL     1      35.027   3.163  48.684  1.00  0.00    -0.380 OA
HETATM   23  H10 UNL     1      35.814   2.606  48.444  1.00  0.00     0.211 HD
ENDBRANCH  21  22
ENDBRANCH   7  21
BRANCH   1  24
HETATM   24  C2  UNL     1      26.757   5.431  48.751  1.00  0.00     0.018 C 
HETATM   25  C1  UNL     1      25.394   5.175  49.317  1.00  0.00     0.013 C 
ENDBRANCH   1  24
TORSDOF 3
ENDMDL
MODEL 8
REMARK VINA RESULT:      -6.6      3.787      5.225
REMARK  3 active torsions:
REMARK  status: ('A' for Active; 'I' for Inactive)
REMARK    1  A    between atoms: C2_2  and  C3_3 
REMARK    2  A    between atoms: N4_9  and  C6_10 
REMARK    3  A    between atoms: C6_10  and  O1_11 
ROOT
HETATM    1  C3  UNL     1      21.559   0.018  52.233  1.00  0.00     0.160 A 
HETATM    2  C4  UNL     1      22.450   1.151  51.744  1.00  0.00     0.035 A 
HETATM    3  N1  UNL     1      21.422   1.128  51.028  1.00  0.00    -0.273 N 
HETATM    4  N2  UNL     1      21.095   1.930  49.999  1.00  0.00    -0.239 N 
HETATM    5  N3  UNL     1      21.829   2.745  49.092  1.00  0.00    -0.273 N 
HETATM    6  C5  UNL     1      22.540   3.483  48.131  1.00  0.00     0.121 C 
HETATM    7  N4  UNL     1      21.422   3.275  47.536  1.00  0.00    -0.250 NA
HETATM    8  C7  UNL     1      23.930   3.865  48.590  1.00  0.00     0.126 C 
HETATM    9  C8  UNL     1      23.866   4.661  49.821  1.00  0.00    -0.004 C 
HETATM   10 BR1  UNL     1      23.176   6.442  49.859  1.00  0.00    -0.055 Br
HETATM   11  C9  UNL     1      24.273   4.235  50.992  1.00  0.00     0.023 C 
HETATM   12  C10 UNL     1      24.865   3.010  51.543  1.00  0.00    -0.045 A 
HETATM   13  C11 UNL     1      26.004   2.857  50.828  1.00  0.00     0.008 A 
HETATM   14  C12 UNL     1      26.779   1.660  51.221  1.00  0.00    -0.002 A 
HETATM   15  C13 UNL     1      26.029   1.159  52.188  1.00  0.00    -0.012 A 
HETATM   16  C14 UNL     1      24.751   1.943  52.513  1.00  0.00     0.006 A 
HETATM   17  C15 UNL     1      25.028   2.641  53.885  1.00  0.00     0.025 C 
HETATM   18  C16 UNL     1      23.603   1.065  52.651  1.00  0.00     0.074 C 
HETATM   19  H6  UNL     1      20.038   1.914  49.865  1.00  0.00     0.208 HD
HETATM   20  H7  UNL     1      21.834   3.379  49.968  1.00  0.00     0.190 HD
ENDROOT
BRANCH   7  21
HETATM   21  C6  UNL     1      21.029   3.698  46.229  1.00  0.00     0.315 C 
BRANCH  21  22
HETATM   22  O1  UNL     1      22.053   3.558  45.285  1.00  0.00    -0.380 OA
HETATM   23  H10 UNL     1      22.519   4.417  45.103  1.00  0.00     0.211 HD
ENDBRANCH  21  22
ENDBRANCH   7  21
BRANCH   1  24
HETATM   24  C2  UNL     1      21.575  -0.915  53.205  1.00  0.00     0.018 C 
HETATM   25  C1  UNL     1      21.354  -1.734  54.440  1.00  0.00     0.013 C 
ENDBRANCH   1  24
TORSDOF 3
ENDMDL
MODEL 9
REMARK VINA RESULT:      -6.5      8.715     10.350
REMARK  3 active torsions:
REMARK  status: ('A' for Active; 'I' for Inactive)
REMARK    1  A    between atoms: C2_2  and  C3_3 
REMARK    2  A    between atoms: N4_9  and  C6_10 
REMARK    3  A    between atoms: C6_10  and  O1_11 
ROOT
HETATM    1  C3  UNL     1      33.098   5.545  42.770  1.00  0.00     0.160 A 
HETATM    2  C4  UNL     1      32.819   5.728  44.255  1.00  0.00     0.035 A 
HETATM    3  N1  UNL     1      32.594   6.818  43.680  1.00  0.00    -0.273 N 
HETATM    4  N2  UNL     1      32.178   7.980  44.213  1.00  0.00    -0.239 N 
HETATM    5  N3  UNL     1      32.226   8.561  45.512  1.00  0.00    -0.273 N 
HETATM    6  C5  UNL     1      32.344   9.190  46.762  1.00  0.00     0.121 C 
HETATM    7  N4  UNL     1      32.177  10.189  45.974  1.00  0.00    -0.250 NA
HETATM    8  C7  UNL     1      32.555   8.211  47.897  1.00  0.00     0.126 C 
HETATM    9  C8  UNL     1      31.445   7.256  47.969  1.00  0.00    -0.004 C 
HETATM   10 BR1  UNL     1      29.684   7.766  48.508  1.00  0.00    -0.055 Br
HETATM   11  C9  UNL     1      31.552   5.982  47.680  1.00  0.00     0.023 C 
HETATM   12  C10 UNL     1      32.609   5.069  47.229  1.00  0.00    -0.045 A 
HETATM   13  C11 UNL     1      33.552   5.171  48.196  1.00  0.00     0.008 A 
HETATM   14  C12 UNL     1      34.735   4.318  47.945  1.00  0.00    -0.002 A 
HETATM   15  C13 UNL     1      34.408   3.734  46.805  1.00  0.00    -0.012 A 
HETATM   16  C14 UNL     1      33.042   4.121  46.226  1.00  0.00     0.006 A 
HETATM   17  C15 UNL     1      32.124   2.876  46.453  1.00  0.00     0.025 C 
HETATM   18  C16 UNL     1      33.121   4.398  44.802  1.00  0.00     0.074 C 
HETATM   19  H6  UNL     1      31.720   8.570  43.453  1.00  0.00     0.208 HD
HETATM   20  H7  UNL     1      31.406   7.867  45.641  1.00  0.00     0.190 HD
ENDROOT
BRANCH   7  21
HETATM   21  C6  UNL     1      32.128  11.577  46.312  1.00  0.00     0.315 C 
BRANCH  21  22
HETATM   22  O1  UNL     1      33.088  11.935  47.266  1.00  0.00    -0.380 OA
HETATM   23  H10 UNL     1      32.974  12.870  47.583  1.00  0.00     0.211 HD
ENDBRANCH  21  22
ENDBRANCH   7  21
BRANCH   1  24
HETATM   24  C2  UNL     1      33.488   4.555  41.942  1.00  0.00     0.018 C 
HETATM   25  C1  UNL     1      33.576   3.460  40.924  1.00  0.00     0.013 C 
ENDBRANCH   1  24
TORSDOF 3
ENDMDL
