MODEL 1
REMARK VINA RESULT:      -7.6      0.000      0.000
REMARK  7 active torsions:
REMARK  status: ('A' for Active; 'I' for Inactive)
REMARK    1  A    between atoms: C5_5  and  C6_6 
REMARK    2  A    between atoms: N2_8  and  C7_9 
REMARK    3  A    between atoms: C7_9  and  C8_10 
REMARK    4  A    between atoms: C8_10  and  C9_11 
REMARK    5  A    between atoms: C10_12  and  C11_13 
REMARK    6  A    between atoms: C12_14  and  O1_15 
REMARK    7  A    between atoms: C15_18  and  C16_19 
ROOT
HETATM    1  C9  UNL     1      25.009  -0.681  53.576  1.00  0.00    -0.024 C 
HETATM    2  C10 UNL     1      26.048  -1.027  52.873  1.00  0.00     0.007 C 
ENDROOT
BRANCH   1   3
HETATM    3  C8  UNL     1      23.547  -0.776  53.397  1.00  0.00     0.047 C 
BRANCH   3   4
HETATM    4  C7  UNL     1      22.945   0.591  53.325  1.00  0.00     0.128 C 
BRANCH   4   5
HETATM    5  N2  UNL     1      22.936   1.186  52.020  1.00  0.00    -0.368 N 
HETATM    6  C2  UNL     1      22.002   1.121  50.946  1.00  0.00     0.021 A 
HETATM    7  C1  UNL     1      20.895   0.401  51.064  1.00  0.00     0.042 C 
HETATM    8  C3  UNL     1      22.527   1.938  49.856  1.00  0.00     0.027 A 
HETATM    9  C4  UNL     1      23.682   2.446  50.257  1.00  0.00     0.006 A 
HETATM   10  C5  UNL     1      24.035   2.022  51.634  1.00  0.00     0.147 A 
BRANCH  10  11
HETATM   11  C6  UNL     1      24.144   3.248  52.471  1.00  0.00     0.109 C 
HETATM   12  N1  UNL     1      24.938   3.427  53.454  1.00  0.00    -0.314 NA
HETATM   13  H7  UNL     1      25.607   2.716  53.780  1.00  0.00     0.185 HD
ENDBRANCH  10  11
ENDBRANCH   4   5
ENDBRANCH   3   4
ENDBRANCH   1   3
BRANCH   2  14
HETATM   14  C11 UNL     1      27.427  -0.851  53.217  1.00  0.00    -0.013 A 
HETATM   15  C12 UNL     1      28.358  -1.791  53.159  1.00  0.00     0.072 A 
HETATM   16  C13 UNL     1      29.653  -1.272  53.578  1.00  0.00     0.034 A 
HETATM   17  C14 UNL     1      29.438   0.018  53.885  1.00  0.00    -0.009 A 
HETATM   18  C15 UNL     1      28.004   0.433  53.692  1.00  0.00     0.084 A 
BRANCH  15  19
HETATM   19  O1  UNL     1      28.297  -3.124  52.779  1.00  0.00    -0.360 OA
HETATM   20  H14 UNL     1      27.977  -3.340  51.830  1.00  0.00     0.217 HD
ENDBRANCH  15  19
BRANCH  18  21
HETATM   21  C16 UNL     1      27.933   1.506  52.655  1.00  0.00     0.093 C 
HETATM   22  N3  UNL     1      28.139   2.735  52.965  1.00  0.00    -0.315 NA
HETATM   23  H19 UNL     1      28.077   3.447  52.198  1.00  0.00     0.185 HD
ENDBRANCH  18  21
ENDBRANCH   2  14
TORSDOF 7
ENDMDL
MODEL 2
REMARK VINA RESULT:      -7.5      2.771      6.536
REMARK  7 active torsions:
REMARK  status: ('A' for Active; 'I' for Inactive)
REMARK    1  A    between atoms: C5_5  and  C6_6 
REMARK    2  A    between atoms: N2_8  and  C7_9 
REMARK    3  A    between atoms: C7_9  and  C8_10 
REMARK    4  A    between atoms: C8_10  and  C9_11 
REMARK    5  A    between atoms: C10_12  and  C11_13 
REMARK    6  A    between atoms: C12_14  and  O1_15 
REMARK    7  A    between atoms: C15_18  and  C16_19 
ROOT
HETATM    1  C9  UNL     1      24.213   1.101  53.361  1.00  0.00    -0.024 C 
HETATM    2  C10 UNL     1      23.458   0.371  52.593  1.00  0.00     0.007 C 
ENDROOT
BRANCH   1   3
HETATM    3  C8  UNL     1      25.651   1.432  53.406  1.00  0.00     0.047 C 
BRANCH   3   4
HETATM    4  C7  UNL     1      26.329   0.644  54.482  1.00  0.00     0.128 C 
BRANCH   4   5
HETATM    5  N2  UNL     1      27.531  -0.028  54.079  1.00  0.00    -0.368 N 
HETATM    6  C2  UNL     1      27.770  -1.092  53.163  1.00  0.00     0.021 A 
HETATM    7  C1  UNL     1      26.763  -1.644  52.501  1.00  0.00     0.042 C 
HETATM    8  C3  UNL     1      29.205  -1.358  53.162  1.00  0.00     0.027 A 
HETATM    9  C4  UNL     1      29.770  -0.515  54.013  1.00  0.00     0.006 A 
HETATM   10  C5  UNL     1      28.778   0.382  54.656  1.00  0.00     0.147 A 
BRANCH  10  11
HETATM   11  C6  UNL     1      29.140   1.782  54.304  1.00  0.00     0.109 C 
HETATM   12  N1  UNL     1      29.155   2.290  53.132  1.00  0.00    -0.314 NA
HETATM   13  H7  UNL     1      28.910   1.764  52.282  1.00  0.00     0.185 HD
ENDBRANCH  10  11
ENDBRANCH   4   5
ENDBRANCH   3   4
ENDBRANCH   1   3
BRANCH   2  14
HETATM   14  C11 UNL     1      22.046   0.163  52.705  1.00  0.00    -0.013 A 
HETATM   15  C12 UNL     1      21.173   0.276  51.716  1.00  0.00     0.072 A 
HETATM   16  C13 UNL     1      19.819  -0.004  52.178  1.00  0.00     0.034 A 
HETATM   17  C14 UNL     1      19.939  -0.286  53.486  1.00  0.00    -0.009 A 
HETATM   18  C15 UNL     1      21.363  -0.212  53.971  1.00  0.00     0.084 A 
BRANCH  15  19
HETATM   19  O1  UNL     1      21.335   0.600  50.376  1.00  0.00    -0.360 OA
HETATM   20  H14 UNL     1      21.630  -0.142  49.735  1.00  0.00     0.217 HD
ENDBRANCH  15  19
BRANCH  18  21
HETATM   21  C16 UNL     1      21.788  -1.555  54.469  1.00  0.00     0.093 C 
HETATM   22  N3  UNL     1      22.567  -1.664  55.482  1.00  0.00    -0.315 NA
HETATM   23  H19 UNL     1      22.833  -2.630  55.790  1.00  0.00     0.185 HD
ENDBRANCH  18  21
ENDBRANCH   2  14
TORSDOF 7
ENDMDL
MODEL 3
REMARK VINA RESULT:      -7.3      1.596      2.677
REMARK  7 active torsions:
REMARK  status: ('A' for Active; 'I' for Inactive)
REMARK    1  A    between atoms: C5_5  and  C6_6 
REMARK    2  A    between atoms: N2_8  and  C7_9 
REMARK    3  A    between atoms: C7_9  and  C8_10 
REMARK    4  A    between atoms: C8_10  and  C9_11 
REMARK    5  A    between atoms: C10_12  and  C11_13 
REMARK    6  A    between atoms: C12_14  and  O1_15 
REMARK    7  A    between atoms: C15_18  and  C16_19 
ROOT
HETATM    1  C9  UNL     1      25.043  -0.756  54.424  1.00  0.00    -0.024 C 
HETATM    2  C10 UNL     1      25.874  -0.484  53.460  1.00  0.00     0.007 C 
ENDROOT
BRANCH   1   3
HETATM    3  C8  UNL     1      23.574  -0.763  54.568  1.00  0.00     0.047 C 
BRANCH   3   4
HETATM    4  C7  UNL     1      22.922  -0.746  53.223  1.00  0.00     0.128 C 
BRANCH   4   5
HETATM    5  N2  UNL     1      22.210   0.458  52.905  1.00  0.00    -0.368 N 
HETATM    6  C2  UNL     1      22.532   1.569  52.075  1.00  0.00     0.021 A 
HETATM    7  C1  UNL     1      23.687   1.604  51.424  1.00  0.00     0.042 C 
HETATM    8  C3  UNL     1      21.414   2.504  52.136  1.00  0.00     0.027 A 
HETATM    9  C4  UNL     1      20.501   1.985  52.941  1.00  0.00     0.006 A 
HETATM   10  C5  UNL     1      20.917   0.670  53.488  1.00  0.00     0.147 A 
BRANCH  10  11
HETATM   11  C6  UNL     1      19.917  -0.340  53.049  1.00  0.00     0.109 C 
HETATM   12  N1  UNL     1      19.121  -0.997  53.801  1.00  0.00    -0.314 NA
HETATM   13  H7  UNL     1      19.090  -0.892  54.824  1.00  0.00     0.185 HD
ENDBRANCH  10  11
ENDBRANCH   4   5
ENDBRANCH   3   4
ENDBRANCH   1   3
BRANCH   2  14
HETATM   14  C11 UNL     1      27.304  -0.533  53.505  1.00  0.00    -0.013 A 
HETATM   15  C12 UNL     1      28.047  -1.577  53.171  1.00  0.00     0.072 A 
HETATM   16  C13 UNL     1      29.465  -1.285  53.335  1.00  0.00     0.034 A 
HETATM   17  C14 UNL     1      29.519  -0.019  53.782  1.00  0.00    -0.009 A 
HETATM   18  C15 UNL     1      28.158   0.603  53.942  1.00  0.00     0.084 A 
BRANCH  15  19
HETATM   19  O1  UNL     1      27.705  -2.841  52.712  1.00  0.00    -0.360 OA
HETATM   20  H14 UNL     1      26.733  -3.003  52.431  1.00  0.00     0.217 HD
ENDBRANCH  15  19
BRANCH  18  21
HETATM   21  C16 UNL     1      28.042   1.782  53.033  1.00  0.00     0.093 C 
HETATM   22  N3  UNL     1      28.944   2.695  53.021  1.00  0.00    -0.315 NA
HETATM   23  H19 UNL     1      28.813   3.501  52.363  1.00  0.00     0.185 HD
ENDBRANCH  18  21
ENDBRANCH   2  14
TORSDOF 7
ENDMDL
MODEL 4
REMARK VINA RESULT:      -7.3      1.626      2.670
REMARK  7 active torsions:
REMARK  status: ('A' for Active; 'I' for Inactive)
REMARK    1  A    between atoms: C5_5  and  C6_6 
REMARK    2  A    between atoms: N2_8  and  C7_9 
REMARK    3  A    between atoms: C7_9  and  C8_10 
REMARK    4  A    between atoms: C8_10  and  C9_11 
REMARK    5  A    between atoms: C10_12  and  C11_13 
REMARK    6  A    between atoms: C12_14  and  O1_15 
REMARK    7  A    between atoms: C15_18  and  C16_19 
ROOT
HETATM    1  C9  UNL     1      25.467   0.631  52.299  1.00  0.00    -0.024 C 
HETATM    2  C10 UNL     1      25.936  -0.205  53.179  1.00  0.00     0.007 C 
ENDROOT
BRANCH   1   3
HETATM    3  C8  UNL     1      24.124   1.124  51.937  1.00  0.00     0.047 C 
BRANCH   3   4
HETATM    4  C7  UNL     1      23.287   1.296  53.165  1.00  0.00     0.128 C 
BRANCH   4   5
HETATM    5  N2  UNL     1      21.959   0.763  53.077  1.00  0.00    -0.368 N 
HETATM    6  C2  UNL     1      21.272  -0.224  53.840  1.00  0.00     0.021 A 
HETATM    7  C1  UNL     1      21.882  -0.836  54.846  1.00  0.00     0.042 C 
HETATM    8  C3  UNL     1      19.928  -0.353  53.288  1.00  0.00     0.027 A 
HETATM    9  C4  UNL     1      19.827   0.495  52.276  1.00  0.00     0.006 A 
HETATM   10  C5  UNL     1      21.080   1.260  52.058  1.00  0.00     0.147 A 
BRANCH  10  11
HETATM   11  C6  UNL     1      20.764   2.704  52.228  1.00  0.00     0.109 C 
HETATM   12  N1  UNL     1      19.611   3.208  52.448  1.00  0.00    -0.314 NA
HETATM   13  H7  UNL     1      18.753   2.646  52.532  1.00  0.00     0.185 HD
ENDBRANCH  10  11
ENDBRANCH   4   5
ENDBRANCH   3   4
ENDBRANCH   1   3
BRANCH   2  14
HETATM   14  C11 UNL     1      27.305  -0.568  53.390  1.00  0.00    -0.013 A 
HETATM   15  C12 UNL     1      27.869  -1.699  52.994  1.00  0.00     0.072 A 
HETATM   16  C13 UNL     1      29.276  -1.743  53.372  1.00  0.00     0.034 A 
HETATM   17  C14 UNL     1      29.510  -0.585  54.009  1.00  0.00    -0.009 A 
HETATM   18  C15 UNL     1      28.290   0.293  54.095  1.00  0.00     0.084 A 
BRANCH  15  19
HETATM   19  O1  UNL     1      27.357  -2.792  52.309  1.00  0.00    -0.360 OA
HETATM   20  H14 UNL     1      28.020  -3.482  51.941  1.00  0.00     0.217 HD
ENDBRANCH  15  19
BRANCH  18  21
HETATM   21  C16 UNL     1      28.548   1.573  53.369  1.00  0.00     0.093 C 
HETATM   22  N3  UNL     1      28.270   2.703  53.909  1.00  0.00    -0.315 NA
HETATM   23  H19 UNL     1      28.472   3.570  53.356  1.00  0.00     0.185 HD
ENDBRANCH  18  21
ENDBRANCH   2  14
TORSDOF 7
ENDMDL
MODEL 5
REMARK VINA RESULT:      -7.3      2.478      6.468
REMARK  7 active torsions:
REMARK  status: ('A' for Active; 'I' for Inactive)
REMARK    1  A    between atoms: C5_5  and  C6_6 
REMARK    2  A    between atoms: N2_8  and  C7_9 
REMARK    3  A    between atoms: C7_9  and  C8_10 
REMARK    4  A    between atoms: C8_10  and  C9_11 
REMARK    5  A    between atoms: C10_12  and  C11_13 
REMARK    6  A    between atoms: C12_14  and  O1_15 
REMARK    7  A    between atoms: C15_18  and  C16_19 
ROOT
HETATM    1  C9  UNL     1      24.095   0.859  53.404  1.00  0.00    -0.024 C 
HETATM    2  C10 UNL     1      23.348  -0.005  52.782  1.00  0.00     0.007 C 
ENDROOT
BRANCH   1   3
HETATM    3  C8  UNL     1      25.527   1.216  53.378  1.00  0.00     0.047 C 
BRANCH   3   4
HETATM    4  C7  UNL     1      26.260   0.495  54.464  1.00  0.00     0.128 C 
BRANCH   4   5
HETATM    5  N2  UNL     1      27.487  -0.129  54.062  1.00  0.00    -0.368 N 
HETATM    6  C2  UNL     1      27.767  -1.192  53.157  1.00  0.00     0.021 A 
HETATM    7  C1  UNL     1      26.781  -1.795  52.507  1.00  0.00     0.042 C 
HETATM    8  C3  UNL     1      29.212  -1.396  53.149  1.00  0.00     0.027 A 
HETATM    9  C4  UNL     1      29.745  -0.520  53.987  1.00  0.00     0.006 A 
HETATM   10  C5  UNL     1      28.719   0.341  54.626  1.00  0.00     0.147 A 
BRANCH  10  11
HETATM   11  C6  UNL     1      29.018   1.751  54.255  1.00  0.00     0.109 C 
HETATM   12  N1  UNL     1      29.027   2.240  53.076  1.00  0.00    -0.314 NA
HETATM   13  H7  UNL     1      28.822   1.689  52.231  1.00  0.00     0.185 HD
ENDBRANCH  10  11
ENDBRANCH   4   5
ENDBRANCH   3   4
ENDBRANCH   1   3
BRANCH   2  14
HETATM   14  C11 UNL     1      21.941  -0.213  52.942  1.00  0.00    -0.013 A 
HETATM   15  C12 UNL     1      21.370  -0.857  53.947  1.00  0.00     0.072 A 
HETATM   16  C13 UNL     1      19.920  -0.883  53.797  1.00  0.00     0.034 A 
HETATM   17  C14 UNL     1      19.668  -0.223  52.654  1.00  0.00    -0.009 A 
HETATM   18  C15 UNL     1      20.918   0.278  51.981  1.00  0.00     0.084 A 
BRANCH  15  19
HETATM   19  O1  UNL     1      21.906  -1.480  55.065  1.00  0.00    -0.360 OA
HETATM   20  H14 UNL     1      21.354  -2.217  55.516  1.00  0.00     0.217 HD
ENDBRANCH  15  19
BRANCH  18  21
HETATM   21  C16 UNL     1      20.878   1.769  51.906  1.00  0.00     0.093 C 
HETATM   22  N3  UNL     1      20.355   2.462  52.851  1.00  0.00    -0.315 NA
HETATM   23  H19 UNL     1      20.354   3.505  52.747  1.00  0.00     0.185 HD
ENDBRANCH  18  21
ENDBRANCH   2  14
TORSDOF 7
ENDMDL
MODEL 6
REMARK VINA RESULT:      -7.1      2.445      3.311
REMARK  7 active torsions:
REMARK  status: ('A' for Active; 'I' for Inactive)
REMARK    1  A    between atoms: C5_5  and  C6_6 
REMARK    2  A    between atoms: N2_8  and  C7_9 
REMARK    3  A    between atoms: C7_9  and  C8_10 
REMARK    4  A    between atoms: C8_10  and  C9_11 
REMARK    5  A    between atoms: C10_12  and  C11_13 
REMARK    6  A    between atoms: C12_14  and  O1_15 
REMARK    7  A    between atoms: C15_18  and  C16_19 
ROOT
HETATM    1  C9  UNL     1      24.567   0.597  52.848  1.00  0.00    -0.024 C 
HETATM    2  C10 UNL     1      25.337  -0.431  53.058  1.00  0.00     0.007 C 
ENDROOT
BRANCH   1   3
HETATM    3  C8  UNL     1      23.162   0.785  52.436  1.00  0.00     0.047 C 
BRANCH   3   4
HETATM    4  C7  UNL     1      23.097   1.549  51.152  1.00  0.00     0.128 C 
BRANCH   4   5
HETATM    5  N2  UNL     1      23.303   2.963  51.273  1.00  0.00    -0.368 N 
HETATM    6  C2  UNL     1      24.194   3.859  50.615  1.00  0.00     0.021 A 
HETATM    7  C1  UNL     1      25.041   3.409  49.700  1.00  0.00     0.042 C 
HETATM    8  C3  UNL     1      23.950   5.195  51.150  1.00  0.00     0.027 A 
HETATM    9  C4  UNL     1      22.988   5.095  52.054  1.00  0.00     0.006 A 
HETATM   10  C5  UNL     1      22.505   3.701  52.208  1.00  0.00     0.147 A 
BRANCH  10  11
HETATM   11  C6  UNL     1      21.057   3.683  51.866  1.00  0.00     0.109 C 
HETATM   12  N1  UNL     1      20.105   3.275  52.612  1.00  0.00    -0.314 NA
HETATM   13  H7  UNL     1      20.248   2.902  53.561  1.00  0.00     0.185 HD
ENDBRANCH  10  11
ENDBRANCH   4   5
ENDBRANCH   3   4
ENDBRANCH   1   3
BRANCH   2  14
HETATM   14  C11 UNL     1      26.710  -0.420  53.464  1.00  0.00    -0.013 A 
HETATM   15  C12 UNL     1      27.190   0.200  54.530  1.00  0.00     0.072 A 
HETATM   16  C13 UNL     1      28.630   0.004  54.646  1.00  0.00     0.034 A 
HETATM   17  C14 UNL     1      28.972  -0.760  53.596  1.00  0.00    -0.009 A 
HETATM   18  C15 UNL     1      27.796  -1.117  52.726  1.00  0.00     0.084 A 
BRANCH  15  19
HETATM   19  O1  UNL     1      26.570   0.967  55.507  1.00  0.00    -0.360 OA
HETATM   20  H14 UNL     1      26.655   1.986  55.443  1.00  0.00     0.217 HD
ENDBRANCH  15  19
BRANCH  18  21
HETATM   21  C16 UNL     1      27.617  -2.600  52.718  1.00  0.00     0.093 C 
HETATM   22  N3  UNL     1      28.553  -3.378  53.124  1.00  0.00    -0.315 NA
HETATM   23  H19 UNL     1      28.373  -4.410  53.098  1.00  0.00     0.185 HD
ENDBRANCH  18  21
ENDBRANCH   2  14
TORSDOF 7
ENDMDL
MODEL 7
REMARK VINA RESULT:      -7.0      2.594      3.695
REMARK  7 active torsions:
REMARK  status: ('A' for Active; 'I' for Inactive)
REMARK    1  A    between atoms: C5_5  and  C6_6 
REMARK    2  A    between atoms: N2_8  and  C7_9 
REMARK    3  A    between atoms: C7_9  and  C8_10 
REMARK    4  A    between atoms: C8_10  and  C9_11 
REMARK    5  A    between atoms: C10_12  and  C11_13 
REMARK    6  A    between atoms: C12_14  and  O1_15 
REMARK    7  A    between atoms: C15_18  and  C16_19 
ROOT
HETATM    1  C9  UNL     1      24.754   0.456  52.656  1.00  0.00    -0.024 C 
HETATM    2  C10 UNL     1      25.932   0.057  52.271  1.00  0.00     0.007 C 
ENDROOT
BRANCH   1   3
HETATM    3  C8  UNL     1      23.453   0.667  51.993  1.00  0.00     0.047 C 
BRANCH   3   4
HETATM    4  C7  UNL     1      22.433   1.121  52.988  1.00  0.00     0.128 C 
BRANCH   4   5
HETATM    5  N2  UNL     1      21.138   0.520  52.852  1.00  0.00    -0.368 N 
HETATM    6  C2  UNL     1      20.174   0.554  51.804  1.00  0.00     0.021 A 
HETATM    7  C1  UNL     1      20.412   1.244  50.698  1.00  0.00     0.042 C 
HETATM    8  C3  UNL     1      19.034  -0.254  52.227  1.00  0.00     0.027 A 
HETATM    9  C4  UNL     1      19.306  -0.729  53.433  1.00  0.00     0.006 A 
HETATM   10  C5  UNL     1      20.635  -0.289  53.924  1.00  0.00     0.147 A 
BRANCH  10  11
HETATM   11  C6  UNL     1      21.457  -1.507  54.158  1.00  0.00     0.109 C 
HETATM   12  N1  UNL     1      22.100  -1.795  55.223  1.00  0.00    -0.314 NA
HETATM   13  H7  UNL     1      22.116  -1.192  56.057  1.00  0.00     0.185 HD
ENDBRANCH  10  11
ENDBRANCH   4   5
ENDBRANCH   3   4
ENDBRANCH   1   3
BRANCH   2  14
HETATM   14  C11 UNL     1      27.106  -0.091  53.076  1.00  0.00    -0.013 A 
HETATM   15  C12 UNL     1      27.372   0.595  54.177  1.00  0.00     0.072 A 
HETATM   16  C13 UNL     1      28.652   0.193  54.748  1.00  0.00     0.034 A 
HETATM   17  C14 UNL     1      29.124  -0.761  53.928  1.00  0.00    -0.009 A 
HETATM   18  C15 UNL     1      28.200  -1.050  52.775  1.00  0.00     0.084 A 
BRANCH  15  19
HETATM   19  O1  UNL     1      26.661   1.584  54.841  1.00  0.00    -0.360 OA
HETATM   20  H14 UNL     1      25.809   1.311  55.340  1.00  0.00     0.217 HD
ENDBRANCH  15  19
BRANCH  18  21
HETATM   21  C16 UNL     1      27.745  -2.471  52.849  1.00  0.00     0.093 C 
HETATM   22  N3  UNL     1      28.522  -3.388  53.299  1.00  0.00    -0.315 NA
HETATM   23  H19 UNL     1      28.152  -4.369  53.329  1.00  0.00     0.185 HD
ENDBRANCH  18  21
ENDBRANCH   2  14
TORSDOF 7
ENDMDL
MODEL 8
REMARK VINA RESULT:      -7.0      2.633      3.652
REMARK  7 active torsions:
REMARK  status: ('A' for Active; 'I' for Inactive)
REMARK    1  A    between atoms: C5_5  and  C6_6 
REMARK    2  A    between atoms: N2_8  and  C7_9 
REMARK    3  A    between atoms: C7_9  and  C8_10 
REMARK    4  A    between atoms: C8_10  and  C9_11 
REMARK    5  A    between atoms: C10_12  and  C11_13 
REMARK    6  A    between atoms: C12_14  and  O1_15 
REMARK    7  A    between atoms: C15_18  and  C16_19 
ROOT
HETATM    1  C9  UNL     1      24.979   0.760  52.584  1.00  0.00    -0.024 C 
HETATM    2  C10 UNL     1      26.177   0.642  52.091  1.00  0.00     0.007 C 
ENDROOT
BRANCH   1   3
HETATM    3  C8  UNL     1      23.628   0.951  52.020  1.00  0.00     0.047 C 
BRANCH   3   4
HETATM    4  C7  UNL     1      22.667   1.339  53.098  1.00  0.00     0.128 C 
BRANCH   4   5
HETATM    5  N2  UNL     1      21.369   0.738  53.002  1.00  0.00    -0.368 N 
HETATM    6  C2  UNL     1      20.756  -0.335  53.712  1.00  0.00     0.021 A 
HETATM    7  C1  UNL     1      21.422  -0.974  54.664  1.00  0.00     0.042 C 
HETATM    8  C3  UNL     1      19.408  -0.503  53.180  1.00  0.00     0.027 A 
HETATM    9  C4  UNL     1      19.237   0.401  52.228  1.00  0.00     0.006 A 
HETATM   10  C5  UNL     1      20.440   1.248  52.036  1.00  0.00     0.147 A 
BRANCH  10  11
HETATM   11  C6  UNL     1      20.049   2.658  52.306  1.00  0.00     0.109 C 
HETATM   12  N1  UNL     1      18.938   3.209  51.999  1.00  0.00    -0.314 NA
HETATM   13  H7  UNL     1      18.175   2.717  51.515  1.00  0.00     0.185 HD
ENDBRANCH  10  11
ENDBRANCH   4   5
ENDBRANCH   3   4
ENDBRANCH   1   3
BRANCH   2  14
HETATM   14  C11 UNL     1      27.400   0.458  52.811  1.00  0.00    -0.013 A 
HETATM   15  C12 UNL     1      27.903   1.302  53.699  1.00  0.00     0.072 A 
HETATM   16  C13 UNL     1      29.160   0.804  54.242  1.00  0.00     0.034 A 
HETATM   17  C14 UNL     1      29.372  -0.373  53.630  1.00  0.00    -0.009 A 
HETATM   18  C15 UNL     1      28.282  -0.728  52.653  1.00  0.00     0.084 A 
BRANCH  15  19
HETATM   19  O1  UNL     1      27.443   2.523  54.171  1.00  0.00    -0.360 OA
HETATM   20  H14 UNL     1      27.379   3.302  53.507  1.00  0.00     0.217 HD
ENDBRANCH  15  19
BRANCH  18  21
HETATM   21  C16 UNL     1      27.618  -1.992  53.090  1.00  0.00     0.093 C 
HETATM   22  N3  UNL     1      28.196  -3.127  52.933  1.00  0.00    -0.315 NA
HETATM   23  H19 UNL     1      27.685  -3.983  53.258  1.00  0.00     0.185 HD
ENDBRANCH  18  21
ENDBRANCH   2  14
TORSDOF 7
ENDMDL
MODEL 9
REMARK VINA RESULT:      -7.0      2.494      6.369
REMARK  7 active torsions:
REMARK  status: ('A' for Active; 'I' for Inactive)
REMARK    1  A    between atoms: C5_5  and  C6_6 
REMARK    2  A    between atoms: N2_8  and  C7_9 
REMARK    3  A    between atoms: C7_9  and  C8_10 
REMARK    4  A    between atoms: C8_10  and  C9_11 
REMARK    5  A    between atoms: C10_12  and  C11_13 
REMARK    6  A    between atoms: C12_14  and  O1_15 
REMARK    7  A    between atoms: C15_18  and  C16_19 
ROOT
HETATM    1  C9  UNL     1      24.096  -0.682  53.384  1.00  0.00    -0.024 C 
HETATM    2  C10 UNL     1      23.199   0.254  53.494  1.00  0.00     0.007 C 
ENDROOT
BRANCH   1   3
HETATM    3  C8  UNL     1      25.452  -0.901  53.923  1.00  0.00     0.047 C 
BRANCH   3   4
HETATM    4  C7  UNL     1      26.476  -0.659  52.860  1.00  0.00     0.128 C 
BRANCH   4   5
HETATM    5  N2  UNL     1      27.466   0.327  53.180  1.00  0.00    -0.368 N 
HETATM    6  C2  UNL     1      28.832   0.220  53.572  1.00  0.00     0.021 A 
HETATM    7  C1  UNL     1      29.400  -0.971  53.698  1.00  0.00     0.042 C 
HETATM    8  C3  UNL     1      29.343   1.573  53.764  1.00  0.00     0.027 A 
HETATM    9  C4  UNL     1      28.355   2.416  53.506  1.00  0.00     0.006 A 
HETATM   10  C5  UNL     1      27.105   1.714  53.122  1.00  0.00     0.147 A 
BRANCH  10  11
HETATM   11  C6  UNL     1      26.743   2.155  51.747  1.00  0.00     0.109 C 
HETATM   12  N1  UNL     1      27.151   3.211  51.157  1.00  0.00    -0.314 NA
HETATM   13  H7  UNL     1      27.794   3.889  51.587  1.00  0.00     0.185 HD
ENDBRANCH  10  11
ENDBRANCH   4   5
ENDBRANCH   3   4
ENDBRANCH   1   3
BRANCH   2  14
HETATM   14  C11 UNL     1      21.905   0.296  52.882  1.00  0.00    -0.013 A 
HETATM   15  C12 UNL     1      20.751   0.326  53.530  1.00  0.00     0.072 A 
HETATM   16  C13 UNL     1      19.629   0.365  52.601  1.00  0.00     0.034 A 
HETATM   17  C14 UNL     1      20.181   0.355  51.376  1.00  0.00    -0.009 A 
HETATM   18  C15 UNL     1      21.685   0.310  51.413  1.00  0.00     0.084 A 
BRANCH  15  19
HETATM   19  O1  UNL     1      20.456   0.329  54.886  1.00  0.00    -0.360 OA
HETATM   20  H14 UNL     1      19.551   0.709  55.180  1.00  0.00     0.217 HD
ENDBRANCH  15  19
BRANCH  18  21
HETATM   21  C16 UNL     1      22.234   1.540  50.768  1.00  0.00     0.093 C 
HETATM   22  N3  UNL     1      22.086   1.746  49.510  1.00  0.00    -0.315 NA
HETATM   23  H19 UNL     1      22.491   2.626  49.109  1.00  0.00     0.185 HD
ENDBRANCH  18  21
ENDBRANCH   2  14
TORSDOF 7
ENDMDL
