MODEL 1
REMARK VINA RESULT:      -8.0      0.000      0.000
REMARK  2 active torsions:
REMARK  status: ('A' for Active; 'I' for Inactive)
REMARK    1  A    between atoms: C6_7  and  C7_8 
REMARK    2  A    between atoms: C10_11  and  N2_12 
ROOT
HETATM    1  C7  UNL     1      26.082   1.142  52.608  1.00  0.00     0.042 A 
HETATM    2  C8  UNL     1      24.970   1.371  51.909  1.00  0.00    -0.026 A 
HETATM    3  C9  UNL     1      23.729   0.580  52.016  1.00  0.00     0.048 C 
HETATM    4  C10 UNL     1      25.075   2.529  50.982  1.00  0.00     0.236 A 
HETATM    5  N4  UNL     1      26.420   2.938  51.123  1.00  0.00    -0.331 N 
HETATM    6  C16 UNL     1      27.053   2.146  52.122  1.00  0.00     0.252 A 
HETATM    7  O1  UNL     1      28.268   2.413  52.415  1.00  0.00    -0.268 OA
HETATM    8  H20 UNL     1      26.799   3.713  50.536  1.00  0.00     0.165 HD
ENDROOT
BRANCH   1   9
HETATM    9  C6  UNL     1      26.590   0.222  53.623  1.00  0.00     0.149 A 
HETATM   10  C2  UNL     1      27.400  -0.899  53.119  1.00  0.00    -0.057 A 
HETATM   11  C1  UNL     1      26.721  -1.873  52.197  1.00  0.00     0.046 C 
HETATM   12  C3  UNL     1      28.677  -1.116  53.387  1.00  0.00     0.006 A 
HETATM   13  C4  UNL     1      29.347  -0.196  54.275  1.00  0.00     0.017 A 
HETATM   14  C5  UNL     1      28.765   0.858  54.848  1.00  0.00     0.084 A 
HETATM   15  N1  UNL     1      27.394   1.058  54.546  1.00  0.00    -0.386 N 
HETATM   16  H7  UNL     1      26.891   1.852  54.998  1.00  0.00     0.160 HD
ENDBRANCH   1   9
BRANCH   4  17
HETATM   17  N2  UNL     1      24.049   3.504  51.189  1.00  0.00    -0.270 N 
HETATM   18  N3  UNL     1      23.892   4.020  52.509  1.00  0.00    -0.187 NA
HETATM   19  C11 UNL     1      22.982   4.905  52.769  1.00  0.00     0.138 A 
HETATM   20  C12 UNL     1      22.078   5.418  51.744  1.00  0.00     0.019 A 
HETATM   21  C13 UNL     1      22.276   4.899  50.542  1.00  0.00     0.001 A 
HETATM   22  C14 UNL     1      23.263   3.888  50.080  1.00  0.00     0.126 A 
HETATM   23  C15 UNL     1      22.639   2.845  49.232  1.00  0.00     0.038 C 
ENDBRANCH   4  17
TORSDOF 2
ENDMDL
MODEL 2
REMARK VINA RESULT:      -7.4      2.122      3.319
REMARK  2 active torsions:
REMARK  status: ('A' for Active; 'I' for Inactive)
REMARK    1  A    between atoms: C6_7  and  C7_8 
REMARK    2  A    between atoms: C10_11  and  N2_12 
ROOT
HETATM    1  C7  UNL     1      25.968   2.456  51.575  1.00  0.00     0.042 A 
HETATM    2  C8  UNL     1      25.926   3.339  50.577  1.00  0.00    -0.026 A 
HETATM    3  C9  UNL     1      26.846   3.354  49.423  1.00  0.00     0.048 C 
HETATM    4  C10 UNL     1      24.836   4.343  50.713  1.00  0.00     0.236 A 
HETATM    5  N4  UNL     1      24.263   4.033  51.966  1.00  0.00    -0.331 N 
HETATM    6  C16 UNL     1      24.897   2.876  52.503  1.00  0.00     0.252 A 
HETATM    7  O1  UNL     1      24.468   2.423  53.618  1.00  0.00    -0.268 OA
HETATM    8  H20 UNL     1      23.496   4.623  52.356  1.00  0.00     0.165 HD
ENDROOT
BRANCH   1   9
HETATM    9  C6  UNL     1      26.743   1.292  51.999  1.00  0.00     0.149 A 
HETATM   10  C2  UNL     1      27.454   1.433  53.280  1.00  0.00    -0.057 A 
HETATM   11  C1  UNL     1      28.512   2.497  53.360  1.00  0.00     0.046 C 
HETATM   12  C3  UNL     1      27.232   0.721  54.373  1.00  0.00     0.006 A 
HETATM   13  C4  UNL     1      26.224  -0.309  54.315  1.00  0.00     0.017 A 
HETATM   14  C5  UNL     1      25.501  -0.597  53.232  1.00  0.00     0.084 A 
HETATM   15  N1  UNL     1      25.769   0.178  52.076  1.00  0.00    -0.386 N 
HETATM   16  H7  UNL     1      25.248  -0.036  51.197  1.00  0.00     0.160 HD
ENDBRANCH   1   9
BRANCH   4  17
HETATM   17  N2  UNL     1      23.976   4.392  49.572  1.00  0.00    -0.270 N 
HETATM   18  N3  UNL     1      23.350   3.175  49.170  1.00  0.00    -0.187 NA
HETATM   19  C11 UNL     1      22.559   3.146  48.145  1.00  0.00     0.138 A 
HETATM   20  C12 UNL     1      22.266   4.336  47.352  1.00  0.00     0.019 A 
HETATM   21  C13 UNL     1      22.878   5.431  47.776  1.00  0.00     0.001 A 
HETATM   22  C14 UNL     1      23.806   5.634  48.920  1.00  0.00     0.126 A 
HETATM   23  C15 UNL     1      24.997   6.428  48.539  1.00  0.00     0.038 C 
ENDBRANCH   4  17
TORSDOF 2
ENDMDL
MODEL 3
REMARK VINA RESULT:      -7.2      2.201      6.042
REMARK  2 active torsions:
REMARK  status: ('A' for Active; 'I' for Inactive)
REMARK    1  A    between atoms: C6_7  and  C7_8 
REMARK    2  A    between atoms: C10_11  and  N2_12 
ROOT
HETATM    1  C7  UNL     1      22.977   2.747  51.990  1.00  0.00     0.042 A 
HETATM    2  C8  UNL     1      23.466   1.814  52.806  1.00  0.00    -0.026 A 
HETATM    3  C9  UNL     1      22.946   0.438  52.921  1.00  0.00     0.048 C 
HETATM    4  C10 UNL     1      24.622   2.277  53.620  1.00  0.00     0.236 A 
HETATM    5  N4  UNL     1      24.735   3.642  53.276  1.00  0.00    -0.331 N 
HETATM    6  C16 UNL     1      23.781   3.957  52.267  1.00  0.00     0.252 A 
HETATM    7  O1  UNL     1      23.775   5.146  51.800  1.00  0.00    -0.268 OA
HETATM    8  H20 UNL     1      25.443   4.248  53.746  1.00  0.00     0.165 HD
ENDROOT
BRANCH   1   9
HETATM    9  C6  UNL     1      21.923   2.912  50.992  1.00  0.00     0.149 A 
HETATM   10  C2  UNL     1      22.119   2.181  49.730  1.00  0.00    -0.057 A 
HETATM   11  C1  UNL     1      23.321   2.549  48.907  1.00  0.00     0.046 C 
HETATM   12  C3  UNL     1      21.344   1.214  49.265  1.00  0.00     0.006 A 
HETATM   13  C4  UNL     1      20.182   0.849  50.038  1.00  0.00     0.017 A 
HETATM   14  C5  UNL     1      19.831   1.423  51.189  1.00  0.00     0.084 A 
HETATM   15  N1  UNL     1      20.677   2.460  51.656  1.00  0.00    -0.386 N 
HETATM   16  H7  UNL     1      20.422   2.958  52.537  1.00  0.00     0.160 HD
ENDBRANCH   1   9
BRANCH   4  17
HETATM   17  N2  UNL     1      25.777   1.447  53.472  1.00  0.00    -0.270 N 
HETATM   18  N3  UNL     1      26.418   0.998  54.665  1.00  0.00    -0.187 NA
HETATM   19  C11 UNL     1      27.470   0.243  54.605  1.00  0.00     0.138 A 
HETATM   20  C12 UNL     1      28.052  -0.185  53.338  1.00  0.00     0.019 A 
HETATM   21  C13 UNL     1      27.411   0.266  52.270  1.00  0.00     0.001 A 
HETATM   22  C14 UNL     1      26.206   1.130  52.164  1.00  0.00     0.126 A 
HETATM   23  C15 UNL     1      26.381   2.215  51.171  1.00  0.00     0.038 C 
ENDBRANCH   4  17
TORSDOF 2
ENDMDL
MODEL 4
REMARK VINA RESULT:      -7.2      3.540      6.017
REMARK  2 active torsions:
REMARK  status: ('A' for Active; 'I' for Inactive)
REMARK    1  A    between atoms: C6_7  and  C7_8 
REMARK    2  A    between atoms: C10_11  and  N2_12 
ROOT
HETATM    1  C7  UNL     1      22.960   2.933  50.311  1.00  0.00     0.042 A 
HETATM    2  C8  UNL     1      22.059   2.007  50.639  1.00  0.00    -0.026 A 
HETATM    3  C9  UNL     1      21.611   0.915  49.754  1.00  0.00     0.048 C 
HETATM    4  C10 UNL     1      21.521   2.159  52.018  1.00  0.00     0.236 A 
HETATM    5  N4  UNL     1      22.132   3.347  52.476  1.00  0.00    -0.331 N 
HETATM    6  C16 UNL     1      23.035   3.827  51.486  1.00  0.00     0.252 A 
HETATM    7  O1  UNL     1      23.715   4.876  51.755  1.00  0.00    -0.268 OA
HETATM    8  H20 UNL     1      21.891   3.736  53.414  1.00  0.00     0.165 HD
ENDROOT
BRANCH   1   9
HETATM    9  C6  UNL     1      23.810   3.309  49.184  1.00  0.00     0.149 A 
HETATM   10  C2  UNL     1      23.556   4.640  48.610  1.00  0.00    -0.057 A 
HETATM   11  C1  UNL     1      22.199   4.877  48.008  1.00  0.00     0.046 C 
HETATM   12  C3  UNL     1      24.406   5.654  48.595  1.00  0.00     0.006 A 
HETATM   13  C4  UNL     1      25.716   5.446  49.164  1.00  0.00     0.017 A 
HETATM   14  C5  UNL     1      26.131   4.299  49.702  1.00  0.00     0.084 A 
HETATM   15  N1  UNL     1      25.199   3.230  49.695  1.00  0.00    -0.386 N 
HETATM   16  H7  UNL     1      25.494   2.304  50.076  1.00  0.00     0.160 HD
ENDBRANCH   1   9
BRANCH   4  17
HETATM   17  N2  UNL     1      21.671   0.976  52.808  1.00  0.00    -0.270 N 
HETATM   18  N3  UNL     1      22.994   0.478  52.998  1.00  0.00    -0.187 NA
HETATM   19  C11 UNL     1      23.203  -0.590  53.702  1.00  0.00     0.138 A 
HETATM   20  C12 UNL     1      22.118  -1.334  54.331  1.00  0.00     0.019 A 
HETATM   21  C13 UNL     1      20.916  -0.821  54.116  1.00  0.00     0.001 A 
HETATM   22  C14 UNL     1      20.507   0.381  53.343  1.00  0.00     0.126 A 
HETATM   23  C15 UNL     1      19.353   0.108  52.455  1.00  0.00     0.038 C 
ENDBRANCH   4  17
TORSDOF 2
ENDMDL
MODEL 5
REMARK VINA RESULT:      -7.1      1.746      2.228
REMARK  2 active torsions:
REMARK  status: ('A' for Active; 'I' for Inactive)
REMARK    1  A    between atoms: C6_7  and  C7_8 
REMARK    2  A    between atoms: C10_11  and  N2_12 
ROOT
HETATM    1  C7  UNL     1      24.980   2.678  52.240  1.00  0.00     0.042 A 
HETATM    2  C8  UNL     1      23.836   3.208  51.806  1.00  0.00    -0.026 A 
HETATM    3  C9  UNL     1      22.592   3.290  52.594  1.00  0.00     0.048 C 
HETATM    4  C10 UNL     1      23.912   3.735  50.416  1.00  0.00     0.236 A 
HETATM    5  N4  UNL     1      25.218   3.387  50.007  1.00  0.00    -0.331 N 
HETATM    6  C16 UNL     1      25.907   2.777  51.092  1.00  0.00     0.252 A 
HETATM    7  O1  UNL     1      27.127   2.439  50.912  1.00  0.00    -0.268 OA
HETATM    8  H20 UNL     1      25.536   3.587  49.033  1.00  0.00     0.165 HD
ENDROOT
BRANCH   1   9
HETATM    9  C6  UNL     1      25.529   2.040  53.434  1.00  0.00     0.149 A 
HETATM   10  C2  UNL     1      25.725   0.584  53.345  1.00  0.00    -0.057 A 
HETATM   11  C1  UNL     1      24.500  -0.259  53.136  1.00  0.00     0.046 C 
HETATM   12  C3  UNL     1      26.887  -0.048  53.413  1.00  0.00     0.006 A 
HETATM   13  C4  UNL     1      28.075   0.744  53.619  1.00  0.00     0.017 A 
HETATM   14  C5  UNL     1      28.085   2.071  53.751  1.00  0.00     0.084 A 
HETATM   15  N1  UNL     1      26.825   2.716  53.682  1.00  0.00    -0.386 N 
HETATM   16  H7  UNL     1      26.782   3.751  53.812  1.00  0.00     0.160 HD
ENDBRANCH   1   9
BRANCH   4  17
HETATM   17  N2  UNL     1      23.518   5.107  50.319  1.00  0.00    -0.270 N 
HETATM   18  N3  UNL     1      24.249   6.056  51.093  1.00  0.00    -0.187 NA
HETATM   19  C11 UNL     1      23.946   7.315  51.053  1.00  0.00     0.138 A 
HETATM   20  C12 UNL     1      22.857   7.829  50.229  1.00  0.00     0.019 A 
HETATM   21  C13 UNL     1      22.218   6.898  49.537  1.00  0.00     0.001 A 
HETATM   22  C14 UNL     1      22.436   5.429  49.469  1.00  0.00     0.126 A 
HETATM   23  C15 UNL     1      21.169   4.671  49.582  1.00  0.00     0.038 C 
ENDBRANCH   4  17
TORSDOF 2
ENDMDL
MODEL 6
REMARK VINA RESULT:      -7.1      1.951      6.390
REMARK  2 active torsions:
REMARK  status: ('A' for Active; 'I' for Inactive)
REMARK    1  A    between atoms: C6_7  and  C7_8 
REMARK    2  A    between atoms: C10_11  and  N2_12 
ROOT
HETATM    1  C7  UNL     1      24.918   3.687  51.005  1.00  0.00     0.042 A 
HETATM    2  C8  UNL     1      25.621   2.554  51.024  1.00  0.00    -0.026 A 
HETATM    3  C9  UNL     1      26.522   2.101  49.947  1.00  0.00     0.048 C 
HETATM    4  C10 UNL     1      25.428   1.752  52.263  1.00  0.00     0.236 A 
HETATM    5  N4  UNL     1      24.447   2.481  52.972  1.00  0.00    -0.331 N 
HETATM    6  C16 UNL     1      24.139   3.675  52.261  1.00  0.00     0.252 A 
HETATM    7  O1  UNL     1      23.299   4.483  52.786  1.00  0.00    -0.268 OA
HETATM    8  H20 UNL     1      24.068   2.116  53.872  1.00  0.00     0.165 HD
ENDROOT
BRANCH   1   9
HETATM    9  C6  UNL     1      24.689   4.840  50.138  1.00  0.00     0.149 A 
HETATM   10  C2  UNL     1      23.352   4.924  49.529  1.00  0.00    -0.057 A 
HETATM   11  C1  UNL     1      22.953   3.813  48.600  1.00  0.00     0.046 C 
HETATM   12  C3  UNL     1      22.461   5.880  49.742  1.00  0.00     0.006 A 
HETATM   13  C4  UNL     1      22.827   6.959  50.627  1.00  0.00     0.017 A 
HETATM   14  C5  UNL     1      24.005   7.063  51.244  1.00  0.00     0.084 A 
HETATM   15  N1  UNL     1      24.939   6.028  50.988  1.00  0.00    -0.386 N 
HETATM   16  H7  UNL     1      25.886   6.087  51.425  1.00  0.00     0.160 HD
ENDBRANCH   1   9
BRANCH   4  17
HETATM   17  N2  UNL     1      26.657   1.450  52.929  1.00  0.00    -0.270 N 
HETATM   18  N3  UNL     1      27.576   2.522  53.127  1.00  0.00    -0.187 NA
HETATM   19  C11 UNL     1      28.709   2.320  53.723  1.00  0.00     0.138 A 
HETATM   20  C12 UNL     1      29.106   1.006  54.217  1.00  0.00     0.019 A 
HETATM   21  C13 UNL     1      28.209   0.055  54.002  1.00  0.00     0.001 A 
HETATM   22  C14 UNL     1      26.879   0.118  53.343  1.00  0.00     0.126 A 
HETATM   23  C15 UNL     1      26.681  -0.989  52.378  1.00  0.00     0.038 C 
ENDBRANCH   4  17
TORSDOF 2
ENDMDL
MODEL 7
REMARK VINA RESULT:      -7.1      3.496      5.308
REMARK  2 active torsions:
REMARK  status: ('A' for Active; 'I' for Inactive)
REMARK    1  A    between atoms: C6_7  and  C7_8 
REMARK    2  A    between atoms: C10_11  and  N2_12 
ROOT
HETATM    1  C7  UNL     1      22.322   1.594  50.750  1.00  0.00     0.042 A 
HETATM    2  C8  UNL     1      22.838   2.807  50.949  1.00  0.00    -0.026 A 
HETATM    3  C9  UNL     1      23.260   3.339  52.259  1.00  0.00     0.048 C 
HETATM    4  C10 UNL     1      22.967   3.614  49.706  1.00  0.00     0.236 A 
HETATM    5  N4  UNL     1      22.383   2.787  48.720  1.00  0.00    -0.331 N 
HETATM    6  C16 UNL     1      22.012   1.544  49.305  1.00  0.00     0.252 A 
HETATM    7  O1  UNL     1      21.509   0.650  48.541  1.00  0.00    -0.268 OA
HETATM    8  H20 UNL     1      22.282   3.128  47.739  1.00  0.00     0.165 HD
ENDROOT
BRANCH   1   9
HETATM    9  C6  UNL     1      21.968   0.396  51.508  1.00  0.00     0.149 A 
HETATM   10  C2  UNL     1      22.642   0.242  52.807  1.00  0.00    -0.057 A 
HETATM   11  C1  UNL     1      24.139   0.110  52.789  1.00  0.00     0.046 C 
HETATM   12  C3  UNL     1      22.051   0.230  53.991  1.00  0.00     0.006 A 
HETATM   13  C4  UNL     1      20.614   0.350  54.030  1.00  0.00     0.017 A 
HETATM   14  C5  UNL     1      19.838   0.468  52.952  1.00  0.00     0.084 A 
HETATM   15  N1  UNL     1      20.500   0.470  51.699  1.00  0.00    -0.386 N 
HETATM   16  H7  UNL     1      19.928   0.528  50.828  1.00  0.00     0.160 HD
ENDBRANCH   1   9
BRANCH   4  17
HETATM   17  N2  UNL     1      24.297   4.090  49.485  1.00  0.00    -0.270 N 
HETATM   18  N3  UNL     1      25.358   3.143  49.594  1.00  0.00    -0.187 NA
HETATM   19  C11 UNL     1      26.589   3.505  49.407  1.00  0.00     0.138 A 
HETATM   20  C12 UNL     1      26.956   4.878  49.081  1.00  0.00     0.019 A 
HETATM   21  C13 UNL     1      25.926   5.707  48.995  1.00  0.00     0.001 A 
HETATM   22  C14 UNL     1      24.472   5.457  49.177  1.00  0.00     0.126 A 
HETATM   23  C15 UNL     1      23.832   6.485  50.031  1.00  0.00     0.038 C 
ENDBRANCH   4  17
TORSDOF 2
ENDMDL
MODEL 8
REMARK VINA RESULT:      -7.1      2.330      6.584
REMARK  2 active torsions:
REMARK  status: ('A' for Active; 'I' for Inactive)
REMARK    1  A    between atoms: C6_7  and  C7_8 
REMARK    2  A    between atoms: C10_11  and  N2_12 
ROOT
HETATM    1  C7  UNL     1      22.591   3.140  51.392  1.00  0.00     0.042 A 
HETATM    2  C8  UNL     1      22.771   1.980  52.023  1.00  0.00    -0.026 A 
HETATM    3  C9  UNL     1      22.039   0.734  51.723  1.00  0.00     0.048 C 
HETATM    4  C10 UNL     1      23.810   2.033  53.087  1.00  0.00     0.236 A 
HETATM    5  N4  UNL     1      24.189   3.393  53.104  1.00  0.00    -0.331 N 
HETATM    6  C16 UNL     1      23.500   4.089  52.070  1.00  0.00     0.252 A 
HETATM    7  O1  UNL     1      23.761   5.330  51.908  1.00  0.00    -0.268 OA
HETATM    8  H20 UNL     1      24.877   3.740  53.807  1.00  0.00     0.165 HD
ENDROOT
BRANCH   1   9
HETATM    9  C6  UNL     1      21.780   3.710  50.318  1.00  0.00     0.149 A 
HETATM   10  C2  UNL     1      21.753   2.940  49.064  1.00  0.00    -0.057 A 
HETATM   11  C1  UNL     1      23.060   2.763  48.343  1.00  0.00     0.046 C 
HETATM   12  C3  UNL     1      20.686   2.373  48.525  1.00  0.00     0.006 A 
HETATM   13  C4  UNL     1      19.421   2.536  49.199  1.00  0.00     0.017 A 
HETATM   14  C5  UNL     1      19.251   3.224  50.329  1.00  0.00     0.084 A 
HETATM   15  N1  UNL     1      20.412   3.826  50.876  1.00  0.00    -0.386 N 
HETATM   16  H7  UNL     1      20.319   4.401  51.743  1.00  0.00     0.160 HD
ENDBRANCH   1   9
BRANCH   4  17
HETATM   17  N2  UNL     1      24.834   1.049  52.917  1.00  0.00    -0.270 N 
HETATM   18  N3  UNL     1      25.706   1.198  51.798  1.00  0.00    -0.187 NA
HETATM   19  C11 UNL     1      26.656   0.343  51.583  1.00  0.00     0.138 A 
HETATM   20  C12 UNL     1      26.886  -0.803  52.456  1.00  0.00     0.019 A 
HETATM   21  C13 UNL     1      26.043  -0.884  53.474  1.00  0.00     0.001 A 
HETATM   22  C14 UNL     1      24.913   0.001  53.861  1.00  0.00     0.126 A 
HETATM   23  C15 UNL     1      23.693  -0.767  54.202  1.00  0.00     0.038 C 
ENDBRANCH   4  17
TORSDOF 2
ENDMDL
MODEL 9
REMARK VINA RESULT:      -6.9      7.999      8.808
REMARK  2 active torsions:
REMARK  status: ('A' for Active; 'I' for Inactive)
REMARK    1  A    between atoms: C6_7  and  C7_8 
REMARK    2  A    between atoms: C10_11  and  N2_12 
ROOT
HETATM    1  C7  UNL     1      31.574   5.595  47.528  1.00  0.00     0.042 A 
HETATM    2  C8  UNL     1      30.350   6.123  47.529  1.00  0.00    -0.026 A 
HETATM    3  C9  UNL     1      29.196   5.578  48.269  1.00  0.00     0.048 C 
HETATM    4  C10 UNL     1      30.230   7.354  46.701  1.00  0.00     0.236 A 
HETATM    5  N4  UNL     1      31.508   7.475  46.112  1.00  0.00    -0.331 N 
HETATM    6  C16 UNL     1      32.360   6.451  46.614  1.00  0.00     0.252 A 
HETATM    7  O1  UNL     1      33.576   6.439  46.221  1.00  0.00    -0.268 OA
HETATM    8  H20 UNL     1      31.700   8.235  45.423  1.00  0.00     0.165 HD
ENDROOT
BRANCH   1   9
HETATM    9  C6  UNL     1      32.300   4.468  48.108  1.00  0.00     0.149 A 
HETATM   10  C2  UNL     1      32.679   3.402  47.167  1.00  0.00    -0.057 A 
HETATM   11  C1  UNL     1      31.561   2.669  46.479  1.00  0.00     0.046 C 
HETATM   12  C3  UNL     1      33.915   3.044  46.856  1.00  0.00     0.006 A 
HETATM   13  C4  UNL     1      35.002   3.731  47.510  1.00  0.00     0.017 A 
HETATM   14  C5  UNL     1      34.847   4.702  48.411  1.00  0.00     0.084 A 
HETATM   15  N1  UNL     1      33.512   5.056  48.727  1.00  0.00    -0.386 N 
HETATM   16  H7  UNL     1      33.345   5.789  49.452  1.00  0.00     0.160 HD
ENDBRANCH   1   9
BRANCH   4  17
HETATM   17  N2  UNL     1      29.716   8.470  47.432  1.00  0.00    -0.270 N 
HETATM   18  N3  UNL     1      30.405   8.848  48.622  1.00  0.00    -0.187 NA
HETATM   19  C11 UNL     1      29.994   9.849  49.335  1.00  0.00     0.138 A 
HETATM   20  C12 UNL     1      28.821  10.636  48.969  1.00  0.00     0.019 A 
HETATM   21  C13 UNL     1      28.227  10.234  47.856  1.00  0.00     0.001 A 
HETATM   22  C14 UNL     1      28.565   9.120  46.933  1.00  0.00     0.126 A 
HETATM   23  C15 UNL     1      27.375   8.317  46.567  1.00  0.00     0.038 C 
ENDBRANCH   4  17
TORSDOF 2
ENDMDL
