MODEL 1
REMARK VINA RESULT:      -9.0      0.000      0.000
REMARK  7 active torsions:
REMARK  status: ('A' for Active; 'I' for Inactive)
REMARK    1  A    between atoms: O1_1  and  C1_2 
REMARK    2  A    between atoms: C1_2  and  C2_3 
REMARK    3  A    between atoms: C2_3  and  C3_4 
REMARK    4  A    between atoms: C3_4  and  N1_5 
REMARK    5  A    between atoms: N1_5  and  C4_6 
REMARK    6  A    between atoms: C9_13  and  N4_14 
REMARK    7  A    between atoms: N4_14  and  C10_15 
ROOT
HETATM    1  C4  UNL     1      22.710   0.261  52.437  1.00  0.00     0.022 A 
HETATM    2  C5  UNL     1      21.456  -0.185  52.682  1.00  0.00     0.028 A 
HETATM    3  C6  UNL     1      21.285  -0.882  53.957  1.00  0.00     0.030 A 
HETATM    4  C7  UNL     1      22.502  -0.834  54.476  1.00  0.00     0.053 A 
HETATM    5  N2  UNL     1      23.060  -1.327  55.679  1.00  0.00    -0.245 NA
HETATM    6  C8  UNL     1      24.362  -1.402  55.823  1.00  0.00     0.235 C 
HETATM    7  N3  UNL     1      25.155  -0.962  54.767  1.00  0.00    -0.227 NA
HETATM    8  C9  UNL     1      24.825  -0.449  53.646  1.00  0.00     0.121 C 
HETATM    9  C16 UNL     1      23.429  -0.068  53.642  1.00  0.00     0.157 A 
ENDROOT
BRANCH   1  10
HETATM   10  N1  UNL     1      22.975   0.951  51.196  1.00  0.00    -0.392 N 
HETATM   11  H6  UNL     1      22.876   0.415  50.284  1.00  0.00     0.159 HD
BRANCH  10  12
HETATM   12  C3  UNL     1      23.353   2.341  51.424  1.00  0.00     0.123 C 
BRANCH  12  13
HETATM   13  C2  UNL     1      23.964   2.916  50.197  1.00  0.00     0.063 C 
BRANCH  13  14
HETATM   14  C1  UNL     1      25.180   3.777  50.504  1.00  0.00     0.092 A 
HETATM   15  C17 UNL     1      26.395   3.334  49.780  1.00  0.00     0.070 A 
HETATM   16  C18 UNL     1      27.124   4.342  49.001  1.00  0.00    -0.023 A 
HETATM   17  C19 UNL     1      27.122   5.616  48.656  1.00  0.00    -0.003 A 
HETATM   18  C20 UNL     1      26.016   6.339  49.226  1.00  0.00     0.014 A 
HETATM   19  P1  UNL     1      24.924   5.571  50.191  1.00  0.00    -0.022 P 
BRANCH  14  20
HETATM   20  O1  UNL     1      25.359   3.673  51.901  1.00  0.00    -0.384 OA
HETATM   21  H1  UNL     1      24.729   2.961  52.226  1.00  0.00     0.211 HD
ENDBRANCH  14  20
ENDBRANCH  13  14
ENDBRANCH  12  13
ENDBRANCH  10  12
ENDBRANCH   1  10
BRANCH   8  22
HETATM   22  N4  UNL     1      25.748  -0.064  52.647  1.00  0.00    -0.344 N 
HETATM   23  H10 UNL     1      25.326   0.371  51.792  1.00  0.00     0.167 HD
BRANCH  22  24
HETATM   24  C10 UNL     1      27.132  -0.347  52.987  1.00  0.00     0.033 A 
HETATM   25  C11 UNL     1      27.886   0.701  53.501  1.00  0.00     0.029 A 
HETATM   26  C12 UNL     1      29.220   0.582  53.868  1.00  0.00     0.002 A 
HETATM   27  C13 UNL     1      29.782  -0.663  53.695  1.00  0.00     0.000 A 
HETATM   28  C14 UNL     1      29.047  -1.711  53.187  1.00  0.00     0.002 A 
HETATM   29  C15 UNL     1      27.702  -1.577  52.820  1.00  0.00     0.029 A 
ENDBRANCH  22  24
ENDBRANCH   8  22
TORSDOF 7
ENDMDL
MODEL 2
REMARK VINA RESULT:      -8.7      2.477      6.225
REMARK  7 active torsions:
REMARK  status: ('A' for Active; 'I' for Inactive)
REMARK    1  A    between atoms: O1_1  and  C1_2 
REMARK    2  A    between atoms: C1_2  and  C2_3 
REMARK    3  A    between atoms: C2_3  and  C3_4 
REMARK    4  A    between atoms: C3_4  and  N1_5 
REMARK    5  A    between atoms: N1_5  and  C4_6 
REMARK    6  A    between atoms: C9_13  and  N4_14 
REMARK    7  A    between atoms: N4_14  and  C10_15 
ROOT
HETATM    1  C4  UNL     1      23.253   1.420  51.966  1.00  0.00     0.022 A 
HETATM    2  C5  UNL     1      22.298   0.470  52.103  1.00  0.00     0.028 A 
HETATM    3  C6  UNL     1      21.420   0.305  50.945  1.00  0.00     0.030 A 
HETATM    4  C7  UNL     1      21.893   1.203  50.095  1.00  0.00     0.053 A 
HETATM    5  N2  UNL     1      21.509   1.596  48.790  1.00  0.00    -0.245 NA
HETATM    6  C8  UNL     1      21.960   2.716  48.277  1.00  0.00     0.235 C 
HETATM    7  N3  UNL     1      22.834   3.475  49.050  1.00  0.00    -0.227 NA
HETATM    8  C9  UNL     1      23.318   3.250  50.210  1.00  0.00     0.121 C 
HETATM    9  C16 UNL     1      23.083   1.879  50.611  1.00  0.00     0.157 A 
ENDROOT
BRANCH   1  10
HETATM   10  N1  UNL     1      24.159   1.660  53.065  1.00  0.00    -0.392 N 
HETATM   11  H6  UNL     1      23.753   1.893  54.019  1.00  0.00     0.159 HD
BRANCH  10  12
HETATM   12  C3  UNL     1      25.552   1.536  52.650  1.00  0.00     0.123 C 
BRANCH  12  13
HETATM   13  C2  UNL     1      25.853   0.129  52.273  1.00  0.00     0.063 C 
BRANCH  13  14
HETATM   14  C1  UNL     1      26.665  -0.595  53.337  1.00  0.00     0.092 A 
HETATM   15  C17 UNL     1      27.364  -1.790  52.812  1.00  0.00     0.070 A 
HETATM   16  C18 UNL     1      28.807  -1.896  53.063  1.00  0.00    -0.023 A 
HETATM   17  C19 UNL     1      29.828  -1.282  53.630  1.00  0.00    -0.003 A 
HETATM   18  C20 UNL     1      29.449  -0.039  54.249  1.00  0.00     0.014 A 
HETATM   19  P1  UNL     1      27.886   0.476  54.201  1.00  0.00    -0.022 P 
BRANCH  14  20
HETATM   20  O1  UNL     1      25.728  -0.954  54.331  1.00  0.00    -0.384 OA
HETATM   21  H1  UNL     1      24.815  -0.852  53.925  1.00  0.00     0.211 HD
ENDBRANCH  14  20
ENDBRANCH  13  14
ENDBRANCH  12  13
ENDBRANCH  10  12
ENDBRANCH   1  10
BRANCH   8  22
HETATM   22  N4  UNL     1      24.187   4.131  50.892  1.00  0.00    -0.344 N 
HETATM   23  H10 UNL     1      23.921   4.343  51.883  1.00  0.00     0.167 HD
BRANCH  22  24
HETATM   24  C10 UNL     1      25.306   4.591  50.087  1.00  0.00     0.033 A 
HETATM   25  C11 UNL     1      25.331   5.938  49.745  1.00  0.00     0.029 A 
HETATM   26  C12 UNL     1      26.334   6.520  48.980  1.00  0.00     0.002 A 
HETATM   27  C13 UNL     1      27.336   5.674  48.561  1.00  0.00     0.000 A 
HETATM   28  C14 UNL     1      27.325   4.338  48.892  1.00  0.00     0.002 A 
HETATM   29  C15 UNL     1      26.307   3.764  49.664  1.00  0.00     0.029 A 
ENDBRANCH  22  24
ENDBRANCH   8  22
TORSDOF 7
ENDMDL
MODEL 3
REMARK VINA RESULT:      -8.4      1.314      1.546
REMARK  7 active torsions:
REMARK  status: ('A' for Active; 'I' for Inactive)
REMARK    1  A    between atoms: O1_1  and  C1_2 
REMARK    2  A    between atoms: C1_2  and  C2_3 
REMARK    3  A    between atoms: C2_3  and  C3_4 
REMARK    4  A    between atoms: C3_4  and  N1_5 
REMARK    5  A    between atoms: N1_5  and  C4_6 
REMARK    6  A    between atoms: C9_13  and  N4_14 
REMARK    7  A    between atoms: N4_14  and  C10_15 
ROOT
HETATM    1  C4  UNL     1      22.775   0.449  52.547  1.00  0.00     0.022 A 
HETATM    2  C5  UNL     1      21.534  -0.084  52.647  1.00  0.00     0.028 A 
HETATM    3  C6  UNL     1      21.319  -0.935  53.816  1.00  0.00     0.030 A 
HETATM    4  C7  UNL     1      22.494  -0.889  54.425  1.00  0.00     0.053 A 
HETATM    5  N2  UNL     1      22.998  -1.493  55.602  1.00  0.00    -0.245 NA
HETATM    6  C8  UNL     1      24.289  -1.520  55.831  1.00  0.00     0.235 C 
HETATM    7  N3  UNL     1      25.124  -0.919  54.893  1.00  0.00    -0.227 NA
HETATM    8  C9  UNL     1      24.841  -0.293  53.817  1.00  0.00     0.121 C 
HETATM    9  C16 UNL     1      23.429   0.015  53.755  1.00  0.00     0.157 A 
ENDROOT
BRANCH   1  10
HETATM   10  N1  UNL     1      23.081   1.294  51.416  1.00  0.00    -0.392 N 
HETATM   11  H6  UNL     1      23.530   0.855  50.559  1.00  0.00     0.159 HD
BRANCH  10  12
HETATM   12  C3  UNL     1      22.699   2.680  51.662  1.00  0.00     0.123 C 
BRANCH  12  13
HETATM   13  C2  UNL     1      23.899   3.492  51.996  1.00  0.00     0.063 C 
BRANCH  13  14
HETATM   14  C1  UNL     1      23.889   4.850  51.309  1.00  0.00     0.092 A 
HETATM   15  C17 UNL     1      24.974   4.996  50.310  1.00  0.00     0.070 A 
HETATM   16  C18 UNL     1      24.597   5.425  48.958  1.00  0.00    -0.023 A 
HETATM   17  C19 UNL     1      23.567   5.765  48.207  1.00  0.00    -0.003 A 
HETATM   18  C20 UNL     1      22.321   5.716  48.925  1.00  0.00     0.014 A 
HETATM   19  P1  UNL     1      22.287   5.271  50.510  1.00  0.00    -0.022 P 
BRANCH  14  20
HETATM   20  O1  UNL     1      24.034   5.790  52.353  1.00  0.00    -0.384 OA
HETATM   21  H1  UNL     1      23.390   6.539  52.165  1.00  0.00     0.211 HD
ENDBRANCH  14  20
ENDBRANCH  13  14
ENDBRANCH  12  13
ENDBRANCH  10  12
ENDBRANCH   1  10
BRANCH   8  22
HETATM   22  N4  UNL     1      25.805   0.252  52.940  1.00  0.00    -0.344 N 
HETATM   23  H10 UNL     1      25.441   0.966  52.264  1.00  0.00     0.167 HD
BRANCH  22  24
HETATM   24  C10 UNL     1      27.142  -0.281  53.132  1.00  0.00     0.033 A 
HETATM   25  C11 UNL     1      28.105   0.584  53.637  1.00  0.00     0.029 A 
HETATM   26  C12 UNL     1      29.424   0.216  53.871  1.00  0.00     0.002 A 
HETATM   27  C13 UNL     1      29.746  -1.087  53.570  1.00  0.00     0.000 A 
HETATM   28  C14 UNL     1      28.803  -1.956  53.069  1.00  0.00     0.002 A 
HETATM   29  C15 UNL     1      27.476  -1.573  52.837  1.00  0.00     0.029 A 
ENDBRANCH  22  24
ENDBRANCH   8  22
TORSDOF 7
ENDMDL
MODEL 4
REMARK VINA RESULT:      -8.3      1.924      2.967
REMARK  7 active torsions:
REMARK  status: ('A' for Active; 'I' for Inactive)
REMARK    1  A    between atoms: O1_1  and  C1_2 
REMARK    2  A    between atoms: C1_2  and  C2_3 
REMARK    3  A    between atoms: C2_3  and  C3_4 
REMARK    4  A    between atoms: C3_4  and  N1_5 
REMARK    5  A    between atoms: N1_5  and  C4_6 
REMARK    6  A    between atoms: C9_13  and  N4_14 
REMARK    7  A    between atoms: N4_14  and  C10_15 
ROOT
HETATM    1  C4  UNL     1      23.033   2.292  50.372  1.00  0.00     0.022 A 
HETATM    2  C5  UNL     1      22.309   1.742  49.369  1.00  0.00     0.028 A 
HETATM    3  C6  UNL     1      21.283   0.791  49.795  1.00  0.00     0.030 A 
HETATM    4  C7  UNL     1      21.419   0.793  51.112  1.00  0.00     0.053 A 
HETATM    5  N2  UNL     1      20.764   0.092  52.153  1.00  0.00    -0.245 NA
HETATM    6  C8  UNL     1      21.285   0.056  53.356  1.00  0.00     0.235 C 
HETATM    7  N3  UNL     1      22.478   0.743  53.565  1.00  0.00    -0.227 NA
HETATM    8  C9  UNL     1      23.169   1.458  52.764  1.00  0.00     0.121 C 
HETATM    9  C16 UNL     1      22.420   1.759  51.563  1.00  0.00     0.157 A 
ENDROOT
BRANCH   1  10
HETATM   10  N1  UNL     1      24.076   3.235  50.043  1.00  0.00    -0.392 N 
HETATM   11  H6  UNL     1      25.085   2.900  50.048  1.00  0.00     0.159 HD
BRANCH  10  12
HETATM   12  C3  UNL     1      23.533   4.555  49.745  1.00  0.00     0.123 C 
BRANCH  12  13
HETATM   13  C2  UNL     1      24.419   5.272  48.790  1.00  0.00     0.063 C 
BRANCH  13  14
HETATM   14  C1  UNL     1      25.777   5.599  49.394  1.00  0.00     0.092 A 
HETATM   15  C17 UNL     1      26.816   4.600  49.048  1.00  0.00     0.070 A 
HETATM   16  C18 UNL     1      28.069   5.099  48.468  1.00  0.00    -0.023 A 
HETATM   17  C19 UNL     1      28.697   6.198  48.097  1.00  0.00    -0.003 A 
HETATM   18  C20 UNL     1      27.910   7.383  48.316  1.00  0.00     0.014 A 
HETATM   19  P1  UNL     1      26.401   7.276  48.966  1.00  0.00    -0.022 P 
BRANCH  14  20
HETATM   20  O1  UNL     1      25.559   5.637  50.789  1.00  0.00    -0.384 OA
HETATM   21  H1  UNL     1      25.900   4.770  51.163  1.00  0.00     0.211 HD
ENDBRANCH  14  20
ENDBRANCH  13  14
ENDBRANCH  12  13
ENDBRANCH  10  12
ENDBRANCH   1  10
BRANCH   8  22
HETATM   22  N4  UNL     1      24.387   2.086  53.111  1.00  0.00    -0.344 N 
HETATM   23  H10 UNL     1      24.338   3.127  53.221  1.00  0.00     0.167 HD
BRANCH  22  24
HETATM   24  C10 UNL     1      25.502   1.165  53.252  1.00  0.00     0.033 A 
HETATM   25  C11 UNL     1      25.812   0.370  52.155  1.00  0.00     0.029 A 
HETATM   26  C12 UNL     1      26.847  -0.556  52.143  1.00  0.00     0.002 A 
HETATM   27  C13 UNL     1      27.578  -0.654  53.306  1.00  0.00     0.000 A 
HETATM   28  C14 UNL     1      27.282   0.127  54.401  1.00  0.00     0.002 A 
HETATM   29  C15 UNL     1      26.235   1.056  54.399  1.00  0.00     0.029 A 
ENDBRANCH  22  24
ENDBRANCH   8  22
TORSDOF 7
ENDMDL
MODEL 5
REMARK VINA RESULT:      -8.3      2.773      6.174
REMARK  7 active torsions:
REMARK  status: ('A' for Active; 'I' for Inactive)
REMARK    1  A    between atoms: O1_1  and  C1_2 
REMARK    2  A    between atoms: C1_2  and  C2_3 
REMARK    3  A    between atoms: C2_3  and  C3_4 
REMARK    4  A    between atoms: C3_4  and  N1_5 
REMARK    5  A    between atoms: N1_5  and  C4_6 
REMARK    6  A    between atoms: C9_13  and  N4_14 
REMARK    7  A    between atoms: N4_14  and  C10_15 
ROOT
HETATM    1  C4  UNL     1      23.720   3.664  52.398  1.00  0.00     0.022 A 
HETATM    2  C5  UNL     1      23.826   5.005  52.250  1.00  0.00     0.028 A 
HETATM    3  C6  UNL     1      22.666   5.654  51.639  1.00  0.00     0.030 A 
HETATM    4  C7  UNL     1      21.847   4.635  51.425  1.00  0.00     0.053 A 
HETATM    5  N2  UNL     1      20.559   4.535  50.847  1.00  0.00    -0.245 NA
HETATM    6  C8  UNL     1      20.085   3.366  50.486  1.00  0.00     0.235 C 
HETATM    7  N3  UNL     1      20.882   2.248  50.712  1.00  0.00    -0.227 NA
HETATM    8  C9  UNL     1      22.031   2.151  51.260  1.00  0.00     0.121 C 
HETATM    9  C16 UNL     1      22.383   3.377  51.944  1.00  0.00     0.157 A 
ENDROOT
BRANCH   1  10
HETATM   10  N1  UNL     1      24.824   2.938  52.982  1.00  0.00    -0.392 N 
HETATM   11  H6  UNL     1      24.882   2.864  54.040  1.00  0.00     0.159 HD
BRANCH  10  12
HETATM   12  C3  UNL     1      25.717   2.404  51.959  1.00  0.00     0.123 C 
BRANCH  12  13
HETATM   13  C2  UNL     1      27.106   2.322  52.482  1.00  0.00     0.063 C 
BRANCH  13  14
HETATM   14  C1  UNL     1      27.300   1.148  53.431  1.00  0.00     0.092 A 
HETATM   15  C17 UNL     1      26.791  -0.128  52.878  1.00  0.00     0.070 A 
HETATM   16  C18 UNL     1      27.707  -1.276  52.870  1.00  0.00    -0.023 A 
HETATM   17  C19 UNL     1      28.928  -1.654  53.194  1.00  0.00    -0.003 A 
HETATM   18  C20 UNL     1      29.699  -0.588  53.777  1.00  0.00     0.014 A 
HETATM   19  P1  UNL     1      29.039   0.908  53.977  1.00  0.00    -0.022 P 
BRANCH  14  20
HETATM   20  O1  UNL     1      26.597   1.506  54.603  1.00  0.00    -0.384 OA
HETATM   21  H1  UNL     1      25.887   2.163  54.331  1.00  0.00     0.211 HD
ENDBRANCH  14  20
ENDBRANCH  13  14
ENDBRANCH  12  13
ENDBRANCH  10  12
ENDBRANCH   1  10
BRANCH   8  22
HETATM   22  N4  UNL     1      22.741   0.938  51.404  1.00  0.00    -0.344 N 
HETATM   23  H10 UNL     1      23.441   0.737  50.650  1.00  0.00     0.167 HD
BRANCH  22  24
HETATM   24  C10 UNL     1      22.370   0.177  52.584  1.00  0.00     0.033 A 
HETATM   25  C11 UNL     1      21.028  -0.153  52.731  1.00  0.00     0.029 A 
HETATM   26  C12 UNL     1      20.525  -0.873  53.807  1.00  0.00     0.002 A 
HETATM   27  C13 UNL     1      21.446  -1.260  54.753  1.00  0.00     0.000 A 
HETATM   28  C14 UNL     1      22.779  -0.942  54.622  1.00  0.00     0.002 A 
HETATM   29  C15 UNL     1      23.273  -0.214  53.532  1.00  0.00     0.029 A 
ENDBRANCH  22  24
ENDBRANCH   8  22
TORSDOF 7
ENDMDL
MODEL 6
REMARK VINA RESULT:      -8.3      2.222      4.945
REMARK  7 active torsions:
REMARK  status: ('A' for Active; 'I' for Inactive)
REMARK    1  A    between atoms: O1_1  and  C1_2 
REMARK    2  A    between atoms: C1_2  and  C2_3 
REMARK    3  A    between atoms: C2_3  and  C3_4 
REMARK    4  A    between atoms: C3_4  and  N1_5 
REMARK    5  A    between atoms: N1_5  and  C4_6 
REMARK    6  A    between atoms: C9_13  and  N4_14 
REMARK    7  A    between atoms: N4_14  and  C10_15 
ROOT
HETATM    1  C4  UNL     1      27.413   1.883  52.981  1.00  0.00     0.022 A 
HETATM    2  C5  UNL     1      28.352   2.514  53.725  1.00  0.00     0.028 A 
HETATM    3  C6  UNL     1      29.436   1.659  54.208  1.00  0.00     0.030 A 
HETATM    4  C7  UNL     1      29.108   0.474  53.717  1.00  0.00     0.053 A 
HETATM    5  N2  UNL     1      29.700  -0.809  53.807  1.00  0.00    -0.245 NA
HETATM    6  C8  UNL     1      29.018  -1.878  53.472  1.00  0.00     0.235 C 
HETATM    7  N3  UNL     1      27.717  -1.696  53.010  1.00  0.00    -0.227 NA
HETATM    8  C9  UNL     1      27.052  -0.623  52.820  1.00  0.00     0.121 C 
HETATM    9  C16 UNL     1      27.916   0.537  52.871  1.00  0.00     0.157 A 
ENDROOT
BRANCH   1  10
HETATM   10  N1  UNL     1      26.298   2.647  52.472  1.00  0.00    -0.392 N 
HETATM   11  H6  UNL     1      26.330   2.984  51.464  1.00  0.00     0.159 HD
BRANCH  10  12
HETATM   12  C3  UNL     1      25.267   2.834  53.486  1.00  0.00     0.123 C 
BRANCH  12  13
HETATM   13  C2  UNL     1      23.920   2.617  52.895  1.00  0.00     0.063 C 
BRANCH  13  14
HETATM   14  C1  UNL     1      23.588   3.640  51.818  1.00  0.00     0.092 A 
HETATM   15  C17 UNL     1      23.772   3.111  50.447  1.00  0.00     0.070 A 
HETATM   16  C18 UNL     1      22.647   3.245  49.513  1.00  0.00    -0.023 A 
HETATM   17  C19 UNL     1      21.412   3.696  49.404  1.00  0.00    -0.003 A 
HETATM   18  C20 UNL     1      20.933   4.289  50.625  1.00  0.00     0.014 A 
HETATM   19  P1  UNL     1      21.898   4.351  51.959  1.00  0.00    -0.022 P 
BRANCH  14  20
HETATM   20  O1  UNL     1      24.460   4.724  52.062  1.00  0.00    -0.384 OA
HETATM   21  H1  UNL     1      25.386   4.343  52.149  1.00  0.00     0.211 HD
ENDBRANCH  14  20
ENDBRANCH  13  14
ENDBRANCH  12  13
ENDBRANCH  10  12
ENDBRANCH   1  10
BRANCH   8  22
HETATM   22  N4  UNL     1      25.715  -0.590  52.363  1.00  0.00    -0.344 N 
HETATM   23  H10 UNL     1      25.598  -0.418  51.336  1.00  0.00     0.167 HD
BRANCH  22  24
HETATM   24  C10 UNL     1      24.732  -0.800  53.411  1.00  0.00     0.033 A 
HETATM   25  C11 UNL     1      23.399  -0.878  53.025  1.00  0.00     0.029 A 
HETATM   26  C12 UNL     1      22.350  -1.075  53.914  1.00  0.00     0.002 A 
HETATM   27  C13 UNL     1      22.701  -1.192  55.240  1.00  0.00     0.000 A 
HETATM   28  C14 UNL     1      24.017  -1.118  55.637  1.00  0.00     0.002 A 
HETATM   29  C15 UNL     1      25.065  -0.919  54.730  1.00  0.00     0.029 A 
ENDBRANCH  22  24
ENDBRANCH   8  22
TORSDOF 7
ENDMDL
MODEL 7
REMARK VINA RESULT:      -7.9      1.957      3.151
REMARK  7 active torsions:
REMARK  status: ('A' for Active; 'I' for Inactive)
REMARK    1  A    between atoms: O1_1  and  C1_2 
REMARK    2  A    between atoms: C1_2  and  C2_3 
REMARK    3  A    between atoms: C2_3  and  C3_4 
REMARK    4  A    between atoms: C3_4  and  N1_5 
REMARK    5  A    between atoms: N1_5  and  C4_6 
REMARK    6  A    between atoms: C9_13  and  N4_14 
REMARK    7  A    between atoms: N4_14  and  C10_15 
ROOT
HETATM    1  C4  UNL     1      23.828   0.897  52.331  1.00  0.00     0.022 A 
HETATM    2  C5  UNL     1      22.627   0.384  51.972  1.00  0.00     0.028 A 
HETATM    3  C6  UNL     1      22.047  -0.559  52.928  1.00  0.00     0.030 A 
HETATM    4  C7  UNL     1      22.959  -0.592  53.888  1.00  0.00     0.053 A 
HETATM    5  N2  UNL     1      23.055  -1.307  55.106  1.00  0.00    -0.245 NA
HETATM    6  C8  UNL     1      24.201  -1.381  55.741  1.00  0.00     0.235 C 
HETATM    7  N3  UNL     1      25.292  -0.721  55.184  1.00  0.00    -0.227 NA
HETATM    8  C9  UNL     1      25.371   0.002  54.134  1.00  0.00     0.121 C 
HETATM    9  C16 UNL     1      24.054   0.346  53.643  1.00  0.00     0.157 A 
ENDROOT
BRANCH   1  10
HETATM   10  N1  UNL     1      24.481   1.829  51.441  1.00  0.00    -0.392 N 
HETATM   11  H6  UNL     1      25.313   1.493  50.872  1.00  0.00     0.159 HD
BRANCH  10  12
HETATM   12  C3  UNL     1      23.849   3.143  51.482  1.00  0.00     0.123 C 
BRANCH  12  13
HETATM   13  C2  UNL     1      23.960   3.808  50.157  1.00  0.00     0.063 C 
BRANCH  13  14
HETATM   14  C1  UNL     1      22.692   3.664  49.328  1.00  0.00     0.092 A 
HETATM   15  C17 UNL     1      22.702   2.458  48.468  1.00  0.00     0.070 A 
HETATM   16  C18 UNL     1      21.550   1.552  48.558  1.00  0.00    -0.023 A 
HETATM   17  C19 UNL     1      20.393   1.373  49.167  1.00  0.00    -0.003 A 
HETATM   18  C20 UNL     1      20.094   2.423  50.103  1.00  0.00     0.014 A 
HETATM   19  P1  UNL     1      21.145   3.673  50.322  1.00  0.00    -0.022 P 
BRANCH  14  20
HETATM   20  O1  UNL     1      22.630   4.840  48.548  1.00  0.00    -0.384 OA
HETATM   21  H1  UNL     1      22.956   4.600  47.628  1.00  0.00     0.211 HD
ENDBRANCH  14  20
ENDBRANCH  13  14
ENDBRANCH  12  13
ENDBRANCH  10  12
ENDBRANCH   1  10
BRANCH   8  22
HETATM   22  N4  UNL     1      26.565   0.599  53.671  1.00  0.00    -0.344 N 
HETATM   23  H10 UNL     1      26.503   1.627  53.473  1.00  0.00     0.167 HD
BRANCH  22  24
HETATM   24  C10 UNL     1      27.676  -0.328  53.549  1.00  0.00     0.033 A 
HETATM   25  C11 UNL     1      27.402  -1.583  53.019  1.00  0.00     0.029 A 
HETATM   26  C12 UNL     1      28.361  -2.572  52.845  1.00  0.00     0.002 A 
HETATM   27  C13 UNL     1      29.640  -2.244  53.234  1.00  0.00     0.000 A 
HETATM   28  C14 UNL     1      29.927  -1.004  53.761  1.00  0.00     0.002 A 
HETATM   29  C15 UNL     1      28.950  -0.016  53.931  1.00  0.00     0.029 A 
ENDBRANCH  22  24
ENDBRANCH   8  22
TORSDOF 7
ENDMDL
MODEL 8
REMARK VINA RESULT:      -7.9      3.217      7.067
REMARK  7 active torsions:
REMARK  status: ('A' for Active; 'I' for Inactive)
REMARK    1  A    between atoms: O1_1  and  C1_2 
REMARK    2  A    between atoms: C1_2  and  C2_3 
REMARK    3  A    between atoms: C2_3  and  C3_4 
REMARK    4  A    between atoms: C3_4  and  N1_5 
REMARK    5  A    between atoms: N1_5  and  C4_6 
REMARK    6  A    between atoms: C9_13  and  N4_14 
REMARK    7  A    between atoms: N4_14  and  C10_15 
ROOT
HETATM    1  C4  UNL     1      24.446   2.899  51.424  1.00  0.00     0.022 A 
HETATM    2  C5  UNL     1      24.116   1.586  51.470  1.00  0.00     0.028 A 
HETATM    3  C6  UNL     1      22.683   1.305  51.398  1.00  0.00     0.030 A 
HETATM    4  C7  UNL     1      22.157   2.517  51.303  1.00  0.00     0.053 A 
HETATM    5  N2  UNL     1      20.826   2.990  51.216  1.00  0.00    -0.245 NA
HETATM    6  C8  UNL     1      20.558   4.256  51.426  1.00  0.00     0.235 C 
HETATM    7  N3  UNL     1      21.625   5.103  51.713  1.00  0.00    -0.227 NA
HETATM    8  C9  UNL     1      22.877   4.860  51.780  1.00  0.00     0.121 C 
HETATM    9  C16 UNL     1      23.181   3.559  51.224  1.00  0.00     0.157 A 
ENDROOT
BRANCH   1  10
HETATM   10  N1  UNL     1      25.839   3.270  51.501  1.00  0.00    -0.392 N 
HETATM   11  H6  UNL     1      26.091   4.302  51.531  1.00  0.00     0.159 HD
BRANCH  10  12
HETATM   12  C3  UNL     1      26.707   2.098  51.525  1.00  0.00     0.123 C 
BRANCH  12  13
HETATM   13  C2  UNL     1      27.613   2.153  52.703  1.00  0.00     0.063 C 
BRANCH  13  14
HETATM   14  C1  UNL     1      27.572   0.873  53.525  1.00  0.00     0.092 A 
HETATM   15  C17 UNL     1      26.767  -0.195  52.887  1.00  0.00     0.070 A 
HETATM   16  C18 UNL     1      27.399  -1.509  52.716  1.00  0.00    -0.023 A 
HETATM   17  C19 UNL     1      28.515  -2.180  52.928  1.00  0.00    -0.003 A 
HETATM   18  C20 UNL     1      29.528  -1.377  53.560  1.00  0.00     0.014 A 
HETATM   19  P1  UNL     1      29.232   0.198  53.939  1.00  0.00    -0.022 P 
BRANCH  14  20
HETATM   20  O1  UNL     1      27.014   1.252  54.766  1.00  0.00    -0.384 OA
HETATM   21  H1  UNL     1      26.648   2.181  54.651  1.00  0.00     0.211 HD
ENDBRANCH  14  20
ENDBRANCH  13  14
ENDBRANCH  12  13
ENDBRANCH  10  12
ENDBRANCH   1  10
BRANCH   8  22
HETATM   22  N4  UNL     1      23.856   5.825  52.107  1.00  0.00    -0.344 N 
HETATM   23  H10 UNL     1      24.285   5.722  53.058  1.00  0.00     0.167 HD
BRANCH  22  24
HETATM   24  C10 UNL     1      24.094   6.798  51.055  1.00  0.00     0.033 A 
HETATM   25  C11 UNL     1      25.359   6.814  50.479  1.00  0.00     0.029 A 
HETATM   26  C12 UNL     1      25.733   7.688  49.467  1.00  0.00     0.002 A 
HETATM   27  C13 UNL     1      24.762   8.569  49.045  1.00  0.00     0.000 A 
HETATM   28  C14 UNL     1      23.505   8.565  49.606  1.00  0.00     0.002 A 
HETATM   29  C15 UNL     1      23.141   7.678  50.627  1.00  0.00     0.029 A 
ENDBRANCH  22  24
ENDBRANCH   8  22
TORSDOF 7
ENDMDL
MODEL 9
REMARK VINA RESULT:      -7.8      1.717      2.560
REMARK  7 active torsions:
REMARK  status: ('A' for Active; 'I' for Inactive)
REMARK    1  A    between atoms: O1_1  and  C1_2 
REMARK    2  A    between atoms: C1_2  and  C2_3 
REMARK    3  A    between atoms: C2_3  and  C3_4 
REMARK    4  A    between atoms: C3_4  and  N1_5 
REMARK    5  A    between atoms: N1_5  and  C4_6 
REMARK    6  A    between atoms: C9_13  and  N4_14 
REMARK    7  A    between atoms: N4_14  and  C10_15 
ROOT
HETATM    1  C4  UNL     1      24.117   2.064  51.119  1.00  0.00     0.022 A 
HETATM    2  C5  UNL     1      22.810   2.360  50.925  1.00  0.00     0.028 A 
HETATM    3  C6  UNL     1      21.885   1.726  51.864  1.00  0.00     0.030 A 
HETATM    4  C7  UNL     1      22.699   1.029  52.642  1.00  0.00     0.053 A 
HETATM    5  N2  UNL     1      22.482   0.167  53.744  1.00  0.00    -0.245 NA
HETATM    6  C8  UNL     1      23.437  -0.632  54.157  1.00  0.00     0.235 C 
HETATM    7  N3  UNL     1      24.657  -0.579  53.490  1.00  0.00    -0.227 NA
HETATM    8  C9  UNL     1      25.038   0.163  52.523  1.00  0.00     0.121 C 
HETATM    9  C16 UNL     1      24.107   1.249  52.307  1.00  0.00     0.157 A 
ENDROOT
BRANCH   1  10
HETATM   10  N1  UNL     1      25.100   2.637  50.231  1.00  0.00    -0.392 N 
HETATM   11  H6  UNL     1      25.534   2.019  49.483  1.00  0.00     0.159 HD
BRANCH  10  12
HETATM   12  C3  UNL     1      25.341   4.044  50.532  1.00  0.00     0.123 C 
BRANCH  12  13
HETATM   13  C2  UNL     1      26.191   4.658  49.477  1.00  0.00     0.063 C 
BRANCH  13  14
HETATM   14  C1  UNL     1      25.938   6.150  49.325  1.00  0.00     0.092 A 
HETATM   15  C17 UNL     1      27.035   6.850  48.617  1.00  0.00     0.070 A 
HETATM   16  C18 UNL     1      26.674   7.686  47.466  1.00  0.00    -0.023 A 
HETATM   17  C19 UNL     1      25.652   8.101  46.741  1.00  0.00    -0.003 A 
HETATM   18  C20 UNL     1      24.397   7.568  47.202  1.00  0.00     0.014 A 
HETATM   19  P1  UNL     1      24.345   6.557  48.501  1.00  0.00    -0.022 P 
BRANCH  14  20
HETATM   20  O1  UNL     1      25.799   6.634  50.645  1.00  0.00    -0.384 OA
HETATM   21  H1  UNL     1      24.848   6.941  50.746  1.00  0.00     0.211 HD
ENDBRANCH  14  20
ENDBRANCH  13  14
ENDBRANCH  12  13
ENDBRANCH  10  12
ENDBRANCH   1  10
BRANCH   8  22
HETATM   22  N4  UNL     1      26.315   0.090  51.923  1.00  0.00    -0.344 N 
HETATM   23  H10 UNL     1      26.327  -0.269  50.939  1.00  0.00     0.167 HD
BRANCH  22  24
HETATM   24  C10 UNL     1      27.396   0.531  52.788  1.00  0.00     0.033 A 
HETATM   25  C11 UNL     1      27.636   1.898  52.858  1.00  0.00     0.029 A 
HETATM   26  C12 UNL     1      28.635   2.465  53.640  1.00  0.00     0.002 A 
HETATM   27  C13 UNL     1      29.402   1.584  54.366  1.00  0.00     0.000 A 
HETATM   28  C14 UNL     1      29.176   0.227  54.307  1.00  0.00     0.002 A 
HETATM   29  C15 UNL     1      28.166  -0.332  53.514  1.00  0.00     0.029 A 
ENDBRANCH  22  24
ENDBRANCH   8  22
TORSDOF 7
ENDMDL
