MODEL 1
REMARK VINA RESULT:      -6.8      0.000      0.000
REMARK  8 active torsions:
REMARK  status: ('A' for Active; 'I' for Inactive)
REMARK    1  A    between atoms: C2_2  and  N1_3 
REMARK    2  A    between atoms: C4_5  and  C5_6 
REMARK    3  A    between atoms: C9_13  and  C10_14 
REMARK    4  A    between atoms: C10_14  and  N4_15 
REMARK    5  A    between atoms: N4_15  and  C12_17 
REMARK    6  A    between atoms: C12_17  and  C13_18 
REMARK    7  A    between atoms: C13_18  and  C14_19 
REMARK    8  A    between atoms: C15_20  and  N5_21 
ROOT
HETATM    1  C5  UNL     1      24.791   1.171  52.024  1.00  0.00     0.167 C 
HETATM    2  C6  UNL     1      25.357   2.634  52.095  1.00  0.00     0.202 C 
HETATM    3  O1  UNL     1      24.406   3.353  51.359  1.00  0.00    -0.366 OA
HETATM    4  C7  UNL     1      24.366   3.126  50.018  1.00  0.00     0.340 C 
HETATM    5  N2  UNL     1      23.033   3.545  49.587  1.00  0.00    -0.172 NA
HETATM    6  N3  UNL     1      22.088   2.701  49.778  1.00  0.00    -0.190 NA
HETATM    7  C8  UNL     1      22.292   1.438  50.375  1.00  0.00     0.229 C 
HETATM    8  C9  UNL     1      22.434   1.375  51.840  1.00  0.00     0.046 C 
HETATM    9  N6  UNL     1      23.498   1.256  52.593  1.00  0.00    -0.283 NA
ENDROOT
BRANCH   8  10
HETATM   10  C10 UNL     1      21.203   1.630  52.614  1.00  0.00     0.177 C 
BRANCH  10  11
HETATM   11  N4  UNL     1      20.313   0.513  52.811  1.00  0.00    -0.389 N 
HETATM   12  C11 UNL     1      19.211   0.088  51.956  1.00  0.00     0.149 C 
BRANCH  11  13
HETATM   13  C12 UNL     1      20.456  -0.343  53.967  1.00  0.00     0.085 C 
BRANCH  13  14
HETATM   14  C13 UNL     1      21.443  -0.998  54.501  1.00  0.00     0.018 C 
BRANCH  14  15
HETATM   15  C14 UNL     1      22.576  -1.666  55.066  1.00  0.00     0.018 C 
HETATM   16  C15 UNL     1      23.643  -0.980  55.461  1.00  0.00     0.080 C 
BRANCH  16  17
HETATM   17  N5  UNL     1      24.746  -1.662  56.017  1.00  0.00    -0.408 N 
HETATM   18  H23 UNL     1      25.317  -1.293  56.820  1.00  0.00     0.155 HD
HETATM   19  H24 UNL     1      24.938  -2.576  55.534  1.00  0.00     0.155 HD
ENDBRANCH  16  17
ENDBRANCH  14  15
ENDBRANCH  13  14
ENDBRANCH  11  13
ENDBRANCH  10  11
ENDBRANCH   8  10
BRANCH   1  20
HETATM   20  C4  UNL     1      25.725   0.198  52.604  1.00  0.00     0.005 A 
HETATM   21  C3  UNL     1      26.892   0.687  53.217  1.00  0.00     0.123 A 
HETATM   22  N1  UNL     1      27.662  -0.325  53.677  1.00  0.00    -0.281 N 
HETATM   23  N7  UNL     1      27.037  -1.463  53.381  1.00  0.00    -0.185 NA
HETATM   24  C16 UNL     1      25.877  -1.153  52.739  1.00  0.00     0.149 A 
BRANCH  22  25
HETATM   25  C2  UNL     1      28.915  -0.076  54.356  1.00  0.00     0.146 C 
HETATM   26  C1  UNL     1      30.069  -0.828  53.758  1.00  0.00     0.028 C 
ENDBRANCH  22  25
ENDBRANCH   1  20
TORSDOF 8
ENDMDL
MODEL 2
REMARK VINA RESULT:      -6.5      1.982      4.923
REMARK  8 active torsions:
REMARK  status: ('A' for Active; 'I' for Inactive)
REMARK    1  A    between atoms: C2_2  and  N1_3 
REMARK    2  A    between atoms: C4_5  and  C5_6 
REMARK    3  A    between atoms: C9_13  and  C10_14 
REMARK    4  A    between atoms: C10_14  and  N4_15 
REMARK    5  A    between atoms: N4_15  and  C12_17 
REMARK    6  A    between atoms: C12_17  and  C13_18 
REMARK    7  A    between atoms: C13_18  and  C14_19 
REMARK    8  A    between atoms: C15_20  and  N5_21 
ROOT
HETATM    1  C5  UNL     1      24.029   0.844  53.251  1.00  0.00     0.167 C 
HETATM    2  C6  UNL     1      23.783  -0.663  53.617  1.00  0.00     0.202 C 
HETATM    3  O1  UNL     1      22.402  -0.791  53.425  1.00  0.00    -0.366 OA
HETATM    4  C7  UNL     1      21.596  -0.147  54.311  1.00  0.00     0.340 C 
HETATM    5  N2  UNL     1      20.310   0.011  53.632  1.00  0.00    -0.172 NA
HETATM    6  N3  UNL     1      20.224   0.991  52.810  1.00  0.00    -0.190 NA
HETATM    7  C8  UNL     1      21.294   1.876  52.550  1.00  0.00     0.229 C 
HETATM    8  C9  UNL     1      22.371   1.422  51.654  1.00  0.00     0.046 C 
HETATM    9  N6  UNL     1      23.571   0.971  51.918  1.00  0.00    -0.283 NA
ENDROOT
BRANCH   8  10
HETATM   10  C10 UNL     1      22.012   1.311  50.226  1.00  0.00     0.177 C 
BRANCH  10  11
HETATM   11  N4  UNL     1      22.523   2.330  49.344  1.00  0.00    -0.389 N 
HETATM   12  C11 UNL     1      22.631   2.280  47.891  1.00  0.00     0.149 C 
BRANCH  11  13
HETATM   13  C12 UNL     1      23.009   3.584  49.876  1.00  0.00     0.085 C 
BRANCH  13  14
HETATM   14  C13 UNL     1      24.102   4.271  49.738  1.00  0.00     0.018 C 
BRANCH  14  15
HETATM   15  C14 UNL     1      25.343   4.966  49.568  1.00  0.00     0.018 C 
HETATM   16  C15 UNL     1      26.470   4.300  49.344  1.00  0.00     0.080 C 
BRANCH  16  17
HETATM   17  N5  UNL     1      27.679   5.008  49.178  1.00  0.00    -0.408 N 
HETATM   18  H23 UNL     1      28.419   4.744  48.478  1.00  0.00     0.155 HD
HETATM   19  H24 UNL     1      27.760   5.823  49.836  1.00  0.00     0.155 HD
ENDBRANCH  16  17
ENDBRANCH  14  15
ENDBRANCH  13  14
ENDBRANCH  11  13
ENDBRANCH  10  11
ENDBRANCH   8  10
BRANCH   1  20
HETATM   20  C4  UNL     1      25.409   1.257  53.536  1.00  0.00     0.005 A 
HETATM   21  C3  UNL     1      26.293   0.291  54.048  1.00  0.00     0.123 A 
HETATM   22  N1  UNL     1      27.513   0.825  54.286  1.00  0.00    -0.281 N 
HETATM   23  N7  UNL     1      27.454   2.111  53.949  1.00  0.00    -0.185 NA
HETATM   24  C16 UNL     1      26.195   2.373  53.499  1.00  0.00     0.149 A 
BRANCH  22  25
HETATM   25  C2  UNL     1      28.601   0.027  54.809  1.00  0.00     0.146 C 
HETATM   26  C1  UNL     1      29.332  -0.740  53.745  1.00  0.00     0.028 C 
ENDBRANCH  22  25
ENDBRANCH   1  20
TORSDOF 8
ENDMDL
MODEL 3
REMARK VINA RESULT:      -6.4      1.689      2.712
REMARK  8 active torsions:
REMARK  status: ('A' for Active; 'I' for Inactive)
REMARK    1  A    between atoms: C2_2  and  N1_3 
REMARK    2  A    between atoms: C4_5  and  C5_6 
REMARK    3  A    between atoms: C9_13  and  C10_14 
REMARK    4  A    between atoms: C10_14  and  N4_15 
REMARK    5  A    between atoms: N4_15  and  C12_17 
REMARK    6  A    between atoms: C12_17  and  C13_18 
REMARK    7  A    between atoms: C13_18  and  C14_19 
REMARK    8  A    between atoms: C15_20  and  N5_21 
ROOT
HETATM    1  C5  UNL     1      24.634   1.463  52.233  1.00  0.00     0.167 C 
HETATM    2  C6  UNL     1      24.413   2.670  53.212  1.00  0.00     0.202 C 
HETATM    3  O1  UNL     1      23.556   3.496  52.472  1.00  0.00    -0.366 OA
HETATM    4  C7  UNL     1      24.086   4.108  51.378  1.00  0.00     0.340 C 
HETATM    5  N2  UNL     1      22.946   4.447  50.526  1.00  0.00    -0.172 NA
HETATM    6  N3  UNL     1      22.486   3.498  49.798  1.00  0.00    -0.190 NA
HETATM    7  C8  UNL     1      23.022   2.192  49.804  1.00  0.00     0.229 C 
HETATM    8  C9  UNL     1      22.665   1.299  50.919  1.00  0.00     0.046 C 
HETATM    9  N6  UNL     1      23.337   0.954  51.989  1.00  0.00    -0.283 NA
ENDROOT
BRANCH   8  10
HETATM   10  C10 UNL     1      21.271   0.812  50.930  1.00  0.00     0.177 C 
BRANCH  10  11
HETATM   11  N4  UNL     1      20.457   1.189  52.058  1.00  0.00    -0.389 N 
HETATM   12  C11 UNL     1      20.019   2.527  52.436  1.00  0.00     0.149 C 
BRANCH  11  13
HETATM   13  C12 UNL     1      19.969   0.185  52.977  1.00  0.00     0.085 C 
BRANCH  13  14
HETATM   14  C13 UNL     1      18.919  -0.579  53.022  1.00  0.00     0.018 C 
BRANCH  14  15
HETATM   15  C14 UNL     1      17.787  -1.455  53.010  1.00  0.00     0.018 C 
HETATM   16  C15 UNL     1      17.815  -2.611  53.662  1.00  0.00     0.080 C 
BRANCH  16  17
HETATM   17  N5  UNL     1      16.685  -3.456  53.637  1.00  0.00    -0.408 N 
HETATM   18  H23 UNL     1      15.801  -3.233  53.112  1.00  0.00     0.155 HD
HETATM   19  H24 UNL     1      16.823  -4.328  54.208  1.00  0.00     0.155 HD
ENDBRANCH  16  17
ENDBRANCH  14  15
ENDBRANCH  13  14
ENDBRANCH  11  13
ENDBRANCH  10  11
ENDBRANCH   8  10
BRANCH   1  20
HETATM   20  C4  UNL     1      25.645   0.528  52.742  1.00  0.00     0.005 A 
HETATM   21  C3  UNL     1      26.934   1.026  53.002  1.00  0.00     0.123 A 
HETATM   22  N1  UNL     1      27.758   0.045  53.436  1.00  0.00    -0.281 N 
HETATM   23  N7  UNL     1      27.049  -1.081  53.466  1.00  0.00    -0.185 NA
HETATM   24  C16 UNL     1      25.783  -0.796  53.051  1.00  0.00     0.149 A 
BRANCH  22  25
HETATM   25  C2  UNL     1      29.138   0.311  53.778  1.00  0.00     0.146 C 
HETATM   26  C1  UNL     1      30.026  -0.889  53.617  1.00  0.00     0.028 C 
ENDBRANCH  22  25
ENDBRANCH   1  20
TORSDOF 8
ENDMDL
MODEL 4
REMARK VINA RESULT:      -6.4      2.652      5.667
REMARK  8 active torsions:
REMARK  status: ('A' for Active; 'I' for Inactive)
REMARK    1  A    between atoms: C2_2  and  N1_3 
REMARK    2  A    between atoms: C4_5  and  C5_6 
REMARK    3  A    between atoms: C9_13  and  C10_14 
REMARK    4  A    between atoms: C10_14  and  N4_15 
REMARK    5  A    between atoms: N4_15  and  C12_17 
REMARK    6  A    between atoms: C12_17  and  C13_18 
REMARK    7  A    between atoms: C13_18  and  C14_19 
REMARK    8  A    between atoms: C15_20  and  N5_21 
ROOT
HETATM    1  C5  UNL     1      23.499   0.950  52.853  1.00  0.00     0.167 C 
HETATM    2  C6  UNL     1      22.307  -0.058  52.681  1.00  0.00     0.202 C 
HETATM    3  O1  UNL     1      21.307   0.758  52.137  1.00  0.00    -0.366 OA
HETATM    4  C7  UNL     1      20.769   1.701  52.957  1.00  0.00     0.340 C 
HETATM    5  N2  UNL     1      20.188   2.708  52.071  1.00  0.00    -0.172 NA
HETATM    6  N3  UNL     1      21.004   3.568  51.584  1.00  0.00    -0.190 NA
HETATM    7  C8  UNL     1      22.388   3.562  51.864  1.00  0.00     0.229 C 
HETATM    8  C9  UNL     1      23.236   2.588  51.156  1.00  0.00     0.046 C 
HETATM    9  N6  UNL     1      23.741   1.446  51.549  1.00  0.00    -0.283 NA
ENDROOT
BRANCH   8  10
HETATM   10  C10 UNL     1      23.447   2.848  49.718  1.00  0.00     0.177 C 
BRANCH  10  11
HETATM   11  N4  UNL     1      24.332   3.933  49.374  1.00  0.00    -0.389 N 
HETATM   12  C11 UNL     1      23.986   5.201  48.742  1.00  0.00     0.149 C 
BRANCH  11  13
HETATM   13  C12 UNL     1      25.748   3.842  49.653  1.00  0.00     0.085 C 
BRANCH  13  14
HETATM   14  C13 UNL     1      26.814   4.387  49.150  1.00  0.00     0.018 C 
BRANCH  14  15
HETATM   15  C14 UNL     1      27.945   5.033  48.556  1.00  0.00     0.018 C 
HETATM   16  C15 UNL     1      27.888   6.310  48.197  1.00  0.00     0.080 C 
BRANCH  16  17
HETATM   17  N5  UNL     1      29.017   6.925  47.616  1.00  0.00    -0.408 N 
HETATM   18  H23 UNL     1      29.365   6.711  46.646  1.00  0.00     0.155 HD
HETATM   19  H24 UNL     1      29.476   7.615  48.263  1.00  0.00     0.155 HD
ENDBRANCH  16  17
ENDBRANCH  14  15
ENDBRANCH  13  14
ENDBRANCH  11  13
ENDBRANCH  10  11
ENDBRANCH   8  10
BRANCH   1  20
HETATM   20  C4  UNL     1      24.628   0.342  53.568  1.00  0.00     0.005 A 
HETATM   21  C3  UNL     1      25.883   0.970  53.473  1.00  0.00     0.123 A 
HETATM   22  N1  UNL     1      26.825   0.281  54.157  1.00  0.00    -0.281 N 
HETATM   23  N7  UNL     1      26.226  -0.779  54.696  1.00  0.00    -0.185 NA
HETATM   24  C16 UNL     1      24.910  -0.745  54.345  1.00  0.00     0.149 A 
BRANCH  22  25
HETATM   25  C2  UNL     1      28.199   0.732  54.217  1.00  0.00     0.146 C 
HETATM   26  C1  UNL     1      29.190  -0.375  54.001  1.00  0.00     0.028 C 
ENDBRANCH  22  25
ENDBRANCH   1  20
TORSDOF 8
ENDMDL
MODEL 5
REMARK VINA RESULT:      -6.2      1.405      3.305
REMARK  8 active torsions:
REMARK  status: ('A' for Active; 'I' for Inactive)
REMARK    1  A    between atoms: C2_2  and  N1_3 
REMARK    2  A    between atoms: C4_5  and  C5_6 
REMARK    3  A    between atoms: C9_13  and  C10_14 
REMARK    4  A    between atoms: C10_14  and  N4_15 
REMARK    5  A    between atoms: N4_15  and  C12_17 
REMARK    6  A    between atoms: C12_17  and  C13_18 
REMARK    7  A    between atoms: C13_18  and  C14_19 
REMARK    8  A    between atoms: C15_20  and  N5_21 
ROOT
HETATM    1  C5  UNL     1      24.505   1.154  52.488  1.00  0.00     0.167 C 
HETATM    2  C6  UNL     1      24.821   2.681  52.673  1.00  0.00     0.202 C 
HETATM    3  O1  UNL     1      23.727   3.287  52.042  1.00  0.00    -0.366 OA
HETATM    4  C7  UNL     1      23.657   3.171  50.688  1.00  0.00     0.340 C 
HETATM    5  N2  UNL     1      22.252   3.391  50.346  1.00  0.00    -0.172 NA
HETATM    6  N3  UNL     1      21.473   2.384  50.493  1.00  0.00    -0.190 NA
HETATM    7  C8  UNL     1      21.915   1.129  50.963  1.00  0.00     0.229 C 
HETATM    8  C9  UNL     1      22.140   0.967  52.409  1.00  0.00     0.046 C 
HETATM    9  N6  UNL     1      23.247   0.969  53.109  1.00  0.00    -0.283 NA
ENDROOT
BRANCH   8  10
HETATM   10  C10 UNL     1      20.925   0.942  53.248  1.00  0.00     0.177 C 
BRANCH  10  11
HETATM   11  N4  UNL     1      20.418  -0.354  53.623  1.00  0.00    -0.389 N 
HETATM   12  C11 UNL     1      21.049  -1.343  54.489  1.00  0.00     0.149 C 
BRANCH  11  13
HETATM   13  C12 UNL     1      19.138  -0.811  53.130  1.00  0.00     0.085 C 
BRANCH  13  14
HETATM   14  C13 UNL     1      18.332  -0.423  52.188  1.00  0.00     0.018 C 
BRANCH  14  15
HETATM   15  C14 UNL     1      17.498  -0.005  51.102  1.00  0.00     0.018 C 
HETATM   16  C15 UNL     1      18.006   0.668  50.075  1.00  0.00     0.080 C 
BRANCH  16  17
HETATM   17  N5  UNL     1      17.164   1.067  49.016  1.00  0.00    -0.408 N 
HETATM   18  H23 UNL     1      16.821   2.053  48.882  1.00  0.00     0.155 HD
HETATM   19  H24 UNL     1      16.913   0.268  48.380  1.00  0.00     0.155 HD
ENDBRANCH  16  17
ENDBRANCH  14  15
ENDBRANCH  13  14
ENDBRANCH  11  13
ENDBRANCH  10  11
ENDBRANCH   8  10
BRANCH   1  20
HETATM   20  C4  UNL     1      25.616   0.308  52.942  1.00  0.00     0.005 A 
HETATM   21  C3  UNL     1      26.885   0.901  53.071  1.00  0.00     0.123 A 
HETATM   22  N1  UNL     1      27.807  -0.006  53.468  1.00  0.00    -0.281 N 
HETATM   23  N7  UNL     1      27.182  -1.174  53.600  1.00  0.00    -0.185 NA
HETATM   24  C16 UNL     1      25.869  -0.989  53.286  1.00  0.00     0.149 A 
BRANCH  22  25
HETATM   25  C2  UNL     1      29.190   0.363  53.681  1.00  0.00     0.146 C 
HETATM   26  C1  UNL     1      30.127  -0.808  53.620  1.00  0.00     0.028 C 
ENDBRANCH  22  25
ENDBRANCH   1  20
TORSDOF 8
ENDMDL
MODEL 6
REMARK VINA RESULT:      -6.1      1.957      5.353
REMARK  8 active torsions:
REMARK  status: ('A' for Active; 'I' for Inactive)
REMARK    1  A    between atoms: C2_2  and  N1_3 
REMARK    2  A    between atoms: C4_5  and  C5_6 
REMARK    3  A    between atoms: C9_13  and  C10_14 
REMARK    4  A    between atoms: C10_14  and  N4_15 
REMARK    5  A    between atoms: N4_15  and  C12_17 
REMARK    6  A    between atoms: C12_17  and  C13_18 
REMARK    7  A    between atoms: C13_18  and  C14_19 
REMARK    8  A    between atoms: C15_20  and  N5_21 
ROOT
HETATM    1  C5  UNL     1      21.594   2.568  51.863  1.00  0.00     0.167 C 
HETATM    2  C6  UNL     1      20.970   3.156  50.548  1.00  0.00     0.202 C 
HETATM    3  O1  UNL     1      21.710   4.332  50.371  1.00  0.00    -0.366 OA
HETATM    4  C7  UNL     1      21.493   5.335  51.264  1.00  0.00     0.340 C 
HETATM    5  N2  UNL     1      22.685   6.179  51.205  1.00  0.00    -0.172 NA
HETATM    6  N3  UNL     1      23.697   5.772  51.879  1.00  0.00    -0.190 NA
HETATM    7  C8  UNL     1      23.691   4.579  52.633  1.00  0.00     0.229 C 
HETATM    8  C9  UNL     1      23.850   3.302  51.917  1.00  0.00     0.046 C 
HETATM    9  N6  UNL     1      22.968   2.400  51.567  1.00  0.00    -0.283 NA
ENDROOT
BRANCH   8  10
HETATM   10  C10 UNL     1      25.195   3.040  51.366  1.00  0.00     0.177 C 
BRANCH  10  11
HETATM   11  N4  UNL     1      25.991   2.041  52.034  1.00  0.00    -0.389 N 
HETATM   12  C11 UNL     1      27.291   2.214  52.671  1.00  0.00     0.149 C 
BRANCH  11  13
HETATM   13  C12 UNL     1      25.522   0.676  52.133  1.00  0.00     0.085 C 
BRANCH  13  14
HETATM   14  C13 UNL     1      26.076  -0.459  52.435  1.00  0.00     0.018 C 
BRANCH  14  15
HETATM   15  C14 UNL     1      26.714  -1.713  52.700  1.00  0.00     0.018 C 
HETATM   16  C15 UNL     1      28.027  -1.781  52.888  1.00  0.00     0.080 C 
BRANCH  16  17
HETATM   17  N5  UNL     1      28.632  -3.029  53.150  1.00  0.00    -0.408 N 
HETATM   18  H23 UNL     1      29.611  -3.138  53.520  1.00  0.00     0.155 HD
HETATM   19  H24 UNL     1      27.998  -3.837  52.926  1.00  0.00     0.155 HD
ENDBRANCH  16  17
ENDBRANCH  14  15
ENDBRANCH  13  14
ENDBRANCH  11  13
ENDBRANCH  10  11
ENDBRANCH   8  10
BRANCH   1  20
HETATM   20  C4  UNL     1      20.855   1.392  52.339  1.00  0.00     0.005 A 
HETATM   21  C3  UNL     1      21.506   0.520  53.230  1.00  0.00     0.123 A 
HETATM   22  N1  UNL     1      20.713  -0.526  53.555  1.00  0.00    -0.281 N 
HETATM   23  N7  UNL     1      19.563  -0.368  52.903  1.00  0.00    -0.185 NA
HETATM   24  C16 UNL     1      19.645   0.781  52.174  1.00  0.00     0.149 A 
BRANCH  22  25
HETATM   25  C2  UNL     1      21.156  -1.559  54.466  1.00  0.00     0.146 C 
HETATM   26  C1  UNL     1      22.578  -1.380  54.911  1.00  0.00     0.028 C 
ENDBRANCH  22  25
ENDBRANCH   1  20
TORSDOF 8
ENDMDL
MODEL 7
REMARK VINA RESULT:      -6.0      2.221      4.987
REMARK  8 active torsions:
REMARK  status: ('A' for Active; 'I' for Inactive)
REMARK    1  A    between atoms: C2_2  and  N1_3 
REMARK    2  A    between atoms: C4_5  and  C5_6 
REMARK    3  A    between atoms: C9_13  and  C10_14 
REMARK    4  A    between atoms: C10_14  and  N4_15 
REMARK    5  A    between atoms: N4_15  and  C12_17 
REMARK    6  A    between atoms: C12_17  and  C13_18 
REMARK    7  A    between atoms: C13_18  and  C14_19 
REMARK    8  A    between atoms: C15_20  and  N5_21 
ROOT
HETATM    1  C5  UNL     1      21.146   1.073  52.605  1.00  0.00     0.167 C 
HETATM    2  C6  UNL     1      19.917   0.701  51.702  1.00  0.00     0.202 C 
HETATM    3  O1  UNL     1      19.711   1.885  50.983  1.00  0.00    -0.366 OA
HETATM    4  C7  UNL     1      19.241   2.954  51.681  1.00  0.00     0.340 C 
HETATM    5  N2  UNL     1      19.604   4.130  50.891  1.00  0.00    -0.172 NA
HETATM    6  N3  UNL     1      20.809   4.547  51.024  1.00  0.00    -0.190 NA
HETATM    7  C8  UNL     1      21.752   3.923  51.868  1.00  0.00     0.229 C 
HETATM    8  C9  UNL     1      22.398   2.686  51.396  1.00  0.00     0.046 C 
HETATM    9  N6  UNL     1      22.167   1.432  51.693  1.00  0.00    -0.283 NA
ENDROOT
BRANCH   8  10
HETATM   10  C10 UNL     1      23.371   2.851  50.298  1.00  0.00     0.177 C 
BRANCH  10  11
HETATM   11  N4  UNL     1      24.765   2.898  50.663  1.00  0.00    -0.389 N 
HETATM   12  C11 UNL     1      25.772   3.856  50.221  1.00  0.00     0.149 C 
BRANCH  11  13
HETATM   13  C12 UNL     1      25.318   1.918  51.571  1.00  0.00     0.085 C 
BRANCH  13  14
HETATM   14  C13 UNL     1      26.483   1.735  52.117  1.00  0.00     0.018 C 
BRANCH  14  15
HETATM   15  C14 UNL     1      27.736   1.548  52.784  1.00  0.00     0.018 C 
HETATM   16  C15 UNL     1      28.163   2.424  53.686  1.00  0.00     0.080 C 
BRANCH  16  17
HETATM   17  N5  UNL     1      29.400   2.216  54.331  1.00  0.00    -0.408 N 
HETATM   18  H23 UNL     1      29.514   2.173  55.376  1.00  0.00     0.155 HD
HETATM   19  H24 UNL     1      30.195   2.116  53.651  1.00  0.00     0.155 HD
ENDBRANCH  16  17
ENDBRANCH  14  15
ENDBRANCH  13  14
ENDBRANCH  11  13
ENDBRANCH  10  11
ENDBRANCH   8  10
BRANCH   1  20
HETATM   20  C4  UNL     1      21.449   0.015  53.578  1.00  0.00     0.005 A 
HETATM   21  C3  UNL     1      22.774  -0.104  54.032  1.00  0.00     0.123 A 
HETATM   22  N1  UNL     1      22.902  -1.136  54.897  1.00  0.00    -0.281 N 
HETATM   23  N7  UNL     1      21.702  -1.698  55.022  1.00  0.00    -0.185 NA
HETATM   24  C16 UNL     1      20.829  -1.011  54.233  1.00  0.00     0.149 A 
BRANCH  22  25
HETATM   25  C2  UNL     1      24.172  -1.458  55.511  1.00  0.00     0.146 C 
HETATM   26  C1  UNL     1      25.326  -0.720  54.895  1.00  0.00     0.028 C 
ENDBRANCH  22  25
ENDBRANCH   1  20
TORSDOF 8
ENDMDL
MODEL 8
REMARK VINA RESULT:      -5.8      3.979      6.976
REMARK  8 active torsions:
REMARK  status: ('A' for Active; 'I' for Inactive)
REMARK    1  A    between atoms: C2_2  and  N1_3 
REMARK    2  A    between atoms: C4_5  and  C5_6 
REMARK    3  A    between atoms: C9_13  and  C10_14 
REMARK    4  A    between atoms: C10_14  and  N4_15 
REMARK    5  A    between atoms: N4_15  and  C12_17 
REMARK    6  A    between atoms: C12_17  and  C13_18 
REMARK    7  A    between atoms: C13_18  and  C14_19 
REMARK    8  A    between atoms: C15_20  and  N5_21 
ROOT
HETATM    1  C5  UNL     1      24.112   3.280  51.460  1.00  0.00     0.167 C 
HETATM    2  C6  UNL     1      22.668   2.882  50.992  1.00  0.00     0.202 C 
HETATM    3  O1  UNL     1      22.115   4.124  50.654  1.00  0.00    -0.366 OA
HETATM    4  C7  UNL     1      21.858   4.982  51.678  1.00  0.00     0.340 C 
HETATM    5  N2  UNL     1      21.806   6.313  51.073  1.00  0.00    -0.172 NA
HETATM    6  N3  UNL     1      22.936   6.877  50.857  1.00  0.00    -0.190 NA
HETATM    7  C8  UNL     1      24.173   6.271  51.166  1.00  0.00     0.229 C 
HETATM    8  C9  UNL     1      24.690   5.238  50.251  1.00  0.00     0.046 C 
HETATM    9  N6  UNL     1      24.686   3.933  50.343  1.00  0.00    -0.283 NA
ENDROOT
BRANCH   8  10
HETATM   10  C10 UNL     1      25.166   5.725  48.941  1.00  0.00     0.177 C 
BRANCH  10  11
HETATM   11  N4  UNL     1      26.510   6.243  48.886  1.00  0.00    -0.389 N 
HETATM   12  C11 UNL     1      26.950   7.610  49.139  1.00  0.00     0.149 C 
BRANCH  11  13
HETATM   13  C12 UNL     1      27.617   5.377  48.548  1.00  0.00     0.085 C 
BRANCH  13  14
HETATM   14  C13 UNL     1      28.875   5.564  48.285  1.00  0.00     0.018 C 
BRANCH  14  15
HETATM   15  C14 UNL     1      30.263   5.822  48.048  1.00  0.00     0.018 C 
HETATM   16  C15 UNL     1      31.069   4.860  47.612  1.00  0.00     0.080 C 
BRANCH  16  17
HETATM   17  N5  UNL     1      32.433   5.141  47.384  1.00  0.00    -0.408 N 
HETATM   18  H23 UNL     1      32.782   5.739  46.591  1.00  0.00     0.155 HD
HETATM   19  H24 UNL     1      33.061   4.680  48.089  1.00  0.00     0.155 HD
ENDBRANCH  16  17
ENDBRANCH  14  15
ENDBRANCH  13  14
ENDBRANCH  11  13
ENDBRANCH  10  11
ENDBRANCH   8  10
BRANCH   1  20
HETATM   20  C4  UNL     1      24.838   2.134  52.023  1.00  0.00     0.005 A 
HETATM   21  C3  UNL     1      26.197   2.306  52.340  1.00  0.00     0.123 A 
HETATM   22  N1  UNL     1      26.735   1.161  52.819  1.00  0.00    -0.281 N 
HETATM   23  N7  UNL     1      25.770   0.243  52.823  1.00  0.00    -0.185 NA
HETATM   24  C16 UNL     1      24.632   0.823  52.347  1.00  0.00     0.149 A 
BRANCH  22  25
HETATM   25  C2  UNL     1      28.121   1.085  53.224  1.00  0.00     0.146 C 
HETATM   26  C1  UNL     1      28.691   2.417  53.620  1.00  0.00     0.028 C 
ENDBRANCH  22  25
ENDBRANCH   1  20
TORSDOF 8
ENDMDL
MODEL 9
REMARK VINA RESULT:      -5.7      2.039      3.492
REMARK  8 active torsions:
REMARK  status: ('A' for Active; 'I' for Inactive)
REMARK    1  A    between atoms: C2_2  and  N1_3 
REMARK    2  A    between atoms: C4_5  and  C5_6 
REMARK    3  A    between atoms: C9_13  and  C10_14 
REMARK    4  A    between atoms: C10_14  and  N4_15 
REMARK    5  A    between atoms: N4_15  and  C12_17 
REMARK    6  A    between atoms: C12_17  and  C13_18 
REMARK    7  A    between atoms: C13_18  and  C14_19 
REMARK    8  A    between atoms: C15_20  and  N5_21 
ROOT
HETATM    1  C5  UNL     1      23.269   1.969  51.546  1.00  0.00     0.167 C 
HETATM    2  C6  UNL     1      22.727   3.274  52.230  1.00  0.00     0.202 C 
HETATM    3  O1  UNL     1      22.409   4.075  51.126  1.00  0.00    -0.366 OA
HETATM    4  C7  UNL     1      23.450   4.549  50.390  1.00  0.00     0.340 C 
HETATM    5  N2  UNL     1      22.890   4.873  49.079  1.00  0.00    -0.172 NA
HETATM    6  N3  UNL     1      22.740   3.888  48.271  1.00  0.00    -0.190 NA
HETATM    7  C8  UNL     1      23.080   2.559  48.605  1.00  0.00     0.229 C 
HETATM    8  C9  UNL     1      22.153   1.797  49.459  1.00  0.00     0.046 C 
HETATM    9  N6  UNL     1      22.200   1.516  50.736  1.00  0.00    -0.283 NA
ENDROOT
BRANCH   8  10
HETATM   10  C10 UNL     1      20.881   1.397  48.825  1.00  0.00     0.177 C 
BRANCH  10  11
HETATM   11  N4  UNL     1      19.668   1.908  49.414  1.00  0.00    -0.389 N 
HETATM   12  C11 UNL     1      19.241   3.299  49.511  1.00  0.00     0.149 C 
BRANCH  11  13
HETATM   13  C12 UNL     1      18.702   1.007  50.001  1.00  0.00     0.085 C 
BRANCH  13  14
HETATM   14  C13 UNL     1      18.642   0.327  51.107  1.00  0.00     0.018 C 
BRANCH  14  15
HETATM   15  C14 UNL     1      18.647  -0.405  52.337  1.00  0.00     0.018 C 
HETATM   16  C15 UNL     1      17.570  -1.073  52.734  1.00  0.00     0.080 C 
BRANCH  16  17
HETATM   17  N5  UNL     1      17.601  -1.789  53.950  1.00  0.00    -0.408 N 
HETATM   18  H23 UNL     1      17.705  -2.835  54.010  1.00  0.00     0.155 HD
HETATM   19  H24 UNL     1      17.501  -1.162  54.787  1.00  0.00     0.155 HD
ENDBRANCH  16  17
ENDBRANCH  14  15
ENDBRANCH  13  14
ENDBRANCH  11  13
ENDBRANCH  10  11
ENDBRANCH   8  10
BRANCH   1  20
HETATM   20  C4  UNL     1      23.821   1.027  52.528  1.00  0.00     0.005 A 
HETATM   21  C3  UNL     1      25.164   1.190  52.915  1.00  0.00     0.123 A 
HETATM   22  N1  UNL     1      25.536   0.235  53.798  1.00  0.00    -0.281 N 
HETATM   23  N7  UNL     1      24.479  -0.549  54.000  1.00  0.00    -0.185 NA
HETATM   24  C16 UNL     1      23.451  -0.078  53.241  1.00  0.00     0.149 A 
BRANCH  22  25
HETATM   25  C2  UNL     1      26.872   0.194  54.352  1.00  0.00     0.146 C 
HETATM   26  C1  UNL     1      27.748   1.309  53.857  1.00  0.00     0.028 C 
ENDBRANCH  22  25
ENDBRANCH   1  20
TORSDOF 8
ENDMDL
