MODEL 1
REMARK VINA RESULT:      -9.5      0.000      0.000
REMARK  4 active torsions:
REMARK  status: ('A' for Active; 'I' for Inactive)
REMARK    1  A    between atoms: C6_7  and  N2_8 
REMARK    2  A    between atoms: N2_8  and  C7_9 
REMARK    3  A    between atoms: C11_15  and  O1_16 
REMARK    4  A    between atoms: O1_16  and  C12_17 
ROOT
HETATM    1  C1  UNL     1      29.402  -1.230  53.394  1.00  0.00     0.028 C 
HETATM    2  C2  UNL     1      28.290  -0.486  53.382  1.00  0.00     0.016 A 
HETATM    3  C3  UNL     1      28.127   0.877  53.902  1.00  0.00     0.059 A 
HETATM    4  C4  UNL     1      29.135   1.682  54.528  1.00  0.00     0.100 C 
HETATM    5  N1  UNL     1      29.938   2.333  55.048  1.00  0.00    -0.191 NA
HETATM    6  C5  UNL     1      26.861   1.177  53.664  1.00  0.00     0.056 A 
HETATM    7  C6  UNL     1      26.136   0.098  53.006  1.00  0.00     0.075 A 
HETATM    8  C20 UNL     1      26.990  -0.871  52.849  1.00  0.00     0.154 A 
HETATM    9  F1  UNL     1      26.656  -2.054  52.260  1.00  0.00    -0.203 F 
ENDROOT
BRANCH   7  10
HETATM   10  N2  UNL     1      24.763   0.236  52.674  1.00  0.00    -0.338 N 
HETATM   11  H4  UNL     1      24.538   0.756  51.781  1.00  0.00     0.167 HD
BRANCH  10  12
HETATM   12  C7  UNL     1      23.718  -0.285  53.481  1.00  0.00     0.145 A 
HETATM   13  N3  UNL     1      23.992  -0.961  54.615  1.00  0.00    -0.223 NA
HETATM   14  C8  UNL     1      23.053  -1.486  55.426  1.00  0.00     0.236 A 
HETATM   15  N4  UNL     1      21.758  -1.323  55.081  1.00  0.00    -0.241 NA
HETATM   16  C9  UNL     1      21.385  -0.665  53.970  1.00  0.00     0.077 A 
HETATM   17  C10 UNL     1      20.074  -0.487  53.588  1.00  0.00     0.072 A 
HETATM   18  C17 UNL     1      22.382  -0.146  53.172  1.00  0.00     0.075 A 
HETATM   19  C11 UNL     1      19.668   0.179  52.454  1.00  0.00     0.107 A 
HETATM   20  C15 UNL     1      20.689   0.697  51.659  1.00  0.00     0.136 A 
HETATM   21  C16 UNL     1      22.007   0.526  52.029  1.00  0.00     0.121 A 
HETATM   22  O3  UNL     1      20.356   1.378  50.505  1.00  0.00    -0.344 OA
HETATM   23  O2  UNL     1      22.963   1.065  51.194  1.00  0.00    -0.345 OA
HETATM   24  C18 UNL     1      22.699   1.870  50.089  1.00  0.00     0.202 C 
HETATM   25  C19 UNL     1      21.306   1.815  49.560  1.00  0.00     0.202 C 
BRANCH  19  26
HETATM   26  O1  UNL     1      18.376   0.374  52.045  1.00  0.00    -0.344 OA
BRANCH  26  27
HETATM   27  C12 UNL     1      17.475  -0.552  51.541  1.00  0.00     0.121 C 
HETATM   28  C13 UNL     1      16.294  -0.729  52.472  1.00  0.00     0.040 C 
HETATM   29  C14 UNL     1      16.980  -0.202  50.151  1.00  0.00     0.040 C 
ENDBRANCH  26  27
ENDBRANCH  19  26
ENDBRANCH  10  12
ENDBRANCH   7  10
TORSDOF 4
ENDMDL
MODEL 2
REMARK VINA RESULT:      -8.7      3.076      7.861
REMARK  4 active torsions:
REMARK  status: ('A' for Active; 'I' for Inactive)
REMARK    1  A    between atoms: C6_7  and  N2_8 
REMARK    2  A    between atoms: N2_8  and  C7_9 
REMARK    3  A    between atoms: C11_15  and  O1_16 
REMARK    4  A    between atoms: O1_16  and  C12_17 
ROOT
HETATM    1  C1  UNL     1      17.839   1.394  49.608  1.00  0.00     0.028 C 
HETATM    2  C2  UNL     1      18.703   1.896  50.498  1.00  0.00     0.016 A 
HETATM    3  C3  UNL     1      18.469   2.996  51.440  1.00  0.00     0.059 A 
HETATM    4  C4  UNL     1      17.260   3.753  51.592  1.00  0.00     0.100 C 
HETATM    5  N1  UNL     1      16.294   4.378  51.710  1.00  0.00    -0.191 NA
HETATM    6  C5  UNL     1      19.610   3.122  52.099  1.00  0.00     0.056 A 
HETATM    7  C6  UNL     1      20.622   2.168  51.666  1.00  0.00     0.075 A 
HETATM    8  C20 UNL     1      20.074   1.456  50.726  1.00  0.00     0.154 A 
HETATM    9  F1  UNL     1      20.737   0.454  50.082  1.00  0.00    -0.203 F 
ENDROOT
BRANCH   7  10
HETATM   10  N2  UNL     1      21.913   2.155  52.256  1.00  0.00    -0.338 N 
HETATM   11  H4  UNL     1      22.526   2.999  52.081  1.00  0.00     0.167 HD
BRANCH  10  12
HETATM   12  C7  UNL     1      22.390   1.076  53.046  1.00  0.00     0.145 A 
HETATM   13  N3  UNL     1      21.553   0.382  53.843  1.00  0.00    -0.223 NA
HETATM   14  C8  UNL     1      21.936  -0.649  54.621  1.00  0.00     0.236 A 
HETATM   15  N4  UNL     1      23.237  -1.009  54.600  1.00  0.00    -0.241 NA
HETATM   16  C9  UNL     1      24.147  -0.376  53.838  1.00  0.00     0.077 A 
HETATM   17  C10 UNL     1      25.481  -0.715  53.798  1.00  0.00     0.072 A 
HETATM   18  C17 UNL     1      23.707   0.672  53.059  1.00  0.00     0.075 A 
HETATM   19  C11 UNL     1      26.431  -0.081  53.030  1.00  0.00     0.107 A 
HETATM   20  C15 UNL     1      25.969   0.977  52.248  1.00  0.00     0.136 A 
HETATM   21  C16 UNL     1      24.635   1.328  52.278  1.00  0.00     0.121 A 
HETATM   22  O3  UNL     1      26.867   1.659  51.452  1.00  0.00    -0.344 OA
HETATM   23  O2  UNL     1      24.251   2.384  51.480  1.00  0.00    -0.345 OA
HETATM   24  C18 UNL     1      25.071   3.032  50.560  1.00  0.00     0.202 C 
HETATM   25  C19 UNL     1      26.537   2.829  50.736  1.00  0.00     0.202 C 
BRANCH  19  26
HETATM   26  O1  UNL     1      27.763  -0.390  52.966  1.00  0.00    -0.344 OA
BRANCH  26  27
HETATM   27  C12 UNL     1      28.729  -0.281  53.955  1.00  0.00     0.121 C 
HETATM   28  C13 UNL     1      29.945  -1.124  53.630  1.00  0.00     0.040 C 
HETATM   29  C14 UNL     1      29.157   1.151  54.212  1.00  0.00     0.040 C 
ENDBRANCH  26  27
ENDBRANCH  19  26
ENDBRANCH  10  12
ENDBRANCH   7  10
TORSDOF 4
ENDMDL
MODEL 3
REMARK VINA RESULT:      -8.5      4.484      5.775
REMARK  4 active torsions:
REMARK  status: ('A' for Active; 'I' for Inactive)
REMARK    1  A    between atoms: C6_7  and  N2_8 
REMARK    2  A    between atoms: N2_8  and  C7_9 
REMARK    3  A    between atoms: C11_15  and  O1_16 
REMARK    4  A    between atoms: O1_16  and  C12_17 
ROOT
HETATM    1  C1  UNL     1      28.719   7.266  48.129  1.00  0.00     0.028 C 
HETATM    2  C2  UNL     1      27.647   6.650  48.641  1.00  0.00     0.016 A 
HETATM    3  C3  UNL     1      26.496   7.274  49.305  1.00  0.00     0.059 A 
HETATM    4  C4  UNL     1      26.294   8.674  49.534  1.00  0.00     0.100 C 
HETATM    5  N1  UNL     1      26.130   9.801  49.737  1.00  0.00    -0.191 NA
HETATM    6  C5  UNL     1      25.710   6.261  49.633  1.00  0.00     0.056 A 
HETATM    7  C6  UNL     1      26.252   4.970  49.234  1.00  0.00     0.075 A 
HETATM    8  C20 UNL     1      27.390   5.216  48.653  1.00  0.00     0.154 A 
HETATM    9  F1  UNL     1      28.184   4.230  48.147  1.00  0.00    -0.203 F 
ENDROOT
BRANCH   7  10
HETATM   10  N2  UNL     1      25.551   3.766  49.507  1.00  0.00    -0.338 N 
HETATM   11  H4  UNL     1      24.842   3.454  48.786  1.00  0.00     0.167 HD
BRANCH  10  12
HETATM   12  C7  UNL     1      25.764   2.997  50.681  1.00  0.00     0.145 A 
HETATM   13  N3  UNL     1      27.011   2.781  51.147  1.00  0.00    -0.223 NA
HETATM   14  C8  UNL     1      27.288   2.059  52.250  1.00  0.00     0.236 A 
HETATM   15  N4  UNL     1      26.253   1.521  52.931  1.00  0.00    -0.241 NA
HETATM   16  C9  UNL     1      24.975   1.681  52.543  1.00  0.00     0.077 A 
HETATM   17  C10 UNL     1      23.900   1.142  53.212  1.00  0.00     0.072 A 
HETATM   18  C17 UNL     1      24.743   2.427  51.408  1.00  0.00     0.075 A 
HETATM   19  C11 UNL     1      22.584   1.288  52.833  1.00  0.00     0.107 A 
HETATM   20  C15 UNL     1      22.367   2.045  51.684  1.00  0.00     0.136 A 
HETATM   21  C16 UNL     1      23.435   2.592  51.004  1.00  0.00     0.121 A 
HETATM   22  O3  UNL     1      21.071   2.234  51.245  1.00  0.00    -0.344 OA
HETATM   23  O2  UNL     1      23.144   3.329  49.875  1.00  0.00    -0.345 OA
HETATM   24  C18 UNL     1      21.862   3.667  49.448  1.00  0.00     0.202 C 
HETATM   25  C19 UNL     1      20.749   2.858  50.022  1.00  0.00     0.202 C 
BRANCH  19  26
HETATM   26  O1  UNL     1      21.492   0.765  53.473  1.00  0.00    -0.344 OA
BRANCH  26  27
HETATM   27  C12 UNL     1      20.990  -0.526  53.422  1.00  0.00     0.121 C 
HETATM   28  C13 UNL     1      21.415  -1.328  54.634  1.00  0.00     0.040 C 
HETATM   29  C14 UNL     1      19.480  -0.571  53.286  1.00  0.00     0.040 C 
ENDBRANCH  26  27
ENDBRANCH  19  26
ENDBRANCH  10  12
ENDBRANCH   7  10
TORSDOF 4
ENDMDL
MODEL 4
REMARK VINA RESULT:      -8.4      1.580      3.000
REMARK  4 active torsions:
REMARK  status: ('A' for Active; 'I' for Inactive)
REMARK    1  A    between atoms: C6_7  and  N2_8 
REMARK    2  A    between atoms: N2_8  and  C7_9 
REMARK    3  A    between atoms: C11_15  and  O1_16 
REMARK    4  A    between atoms: O1_16  and  C12_17 
ROOT
HETATM    1  C1  UNL     1      29.811  -1.172  53.564  1.00  0.00     0.028 C 
HETATM    2  C2  UNL     1      28.641  -0.523  53.553  1.00  0.00     0.016 A 
HETATM    3  C3  UNL     1      28.360   0.809  54.100  1.00  0.00     0.059 A 
HETATM    4  C4  UNL     1      29.290   1.681  54.757  1.00  0.00     0.100 C 
HETATM    5  N1  UNL     1      30.031   2.383  55.301  1.00  0.00    -0.191 NA
HETATM    6  C5  UNL     1      27.076   1.010  53.852  1.00  0.00     0.056 A 
HETATM    7  C6  UNL     1      26.451  -0.110  53.161  1.00  0.00     0.075 A 
HETATM    8  C20 UNL     1      27.383  -1.001  52.994  1.00  0.00     0.154 A 
HETATM    9  F1  UNL     1      27.156  -2.195  52.375  1.00  0.00    -0.203 F 
ENDROOT
BRANCH   7  10
HETATM   10  N2  UNL     1      25.075  -0.079  52.814  1.00  0.00    -0.338 N 
HETATM   11  H4  UNL     1      24.485  -0.898  53.130  1.00  0.00     0.167 HD
BRANCH  10  12
HETATM   12  C7  UNL     1      24.488   0.984  52.078  1.00  0.00     0.145 A 
HETATM   13  N3  UNL     1      25.256   1.863  51.403  1.00  0.00    -0.223 NA
HETATM   14  C8  UNL     1      24.769   2.895  50.688  1.00  0.00     0.236 A 
HETATM   15  N4  UNL     1      23.429   3.059  50.645  1.00  0.00    -0.241 NA
HETATM   16  C9  UNL     1      22.582   2.234  51.286  1.00  0.00     0.077 A 
HETATM   17  C10 UNL     1      21.213   2.377  51.267  1.00  0.00     0.072 A 
HETATM   18  C17 UNL     1      23.129   1.193  52.005  1.00  0.00     0.075 A 
HETATM   19  C11 UNL     1      20.326   1.550  51.917  1.00  0.00     0.107 A 
HETATM   20  C15 UNL     1      20.895   0.502  52.639  1.00  0.00     0.136 A 
HETATM   21  C16 UNL     1      22.266   0.346  52.668  1.00  0.00     0.121 A 
HETATM   22  O3  UNL     1      20.065  -0.368  53.317  1.00  0.00    -0.344 OA
HETATM   23  O2  UNL     1      22.757  -0.712  53.402  1.00  0.00    -0.345 OA
HETATM   24  C18 UNL     1      21.980  -1.699  54.002  1.00  0.00     0.202 C 
HETATM   25  C19 UNL     1      20.538  -1.371  54.189  1.00  0.00     0.202 C 
BRANCH  19  26
HETATM   26  O1  UNL     1      18.962   1.663  51.920  1.00  0.00    -0.344 OA
BRANCH  26  27
HETATM   27  C12 UNL     1      18.076   1.532  50.861  1.00  0.00     0.121 C 
HETATM   28  C13 UNL     1      17.590   0.105  50.725  1.00  0.00     0.040 C 
HETATM   29  C14 UNL     1      16.886   2.468  50.963  1.00  0.00     0.040 C 
ENDBRANCH  26  27
ENDBRANCH  19  26
ENDBRANCH  10  12
ENDBRANCH   7  10
TORSDOF 4
ENDMDL
MODEL 5
REMARK VINA RESULT:      -8.3      4.259      5.767
REMARK  4 active torsions:
REMARK  status: ('A' for Active; 'I' for Inactive)
REMARK    1  A    between atoms: C6_7  and  N2_8 
REMARK    2  A    between atoms: N2_8  and  C7_9 
REMARK    3  A    between atoms: C11_15  and  O1_16 
REMARK    4  A    between atoms: O1_16  and  C12_17 
ROOT
HETATM    1  C1  UNL     1      25.662   8.100  49.756  1.00  0.00     0.028 C 
HETATM    2  C2  UNL     1      26.092   6.861  49.492  1.00  0.00     0.016 A 
HETATM    3  C3  UNL     1      27.200   6.474  48.610  1.00  0.00     0.059 A 
HETATM    4  C4  UNL     1      28.042   7.354  47.855  1.00  0.00     0.100 C 
HETATM    5  N1  UNL     1      28.716   8.057  47.230  1.00  0.00    -0.191 NA
HETATM    6  C5  UNL     1      27.234   5.153  48.675  1.00  0.00     0.056 A 
HETATM    7  C6  UNL     1      26.212   4.602  49.554  1.00  0.00     0.075 A 
HETATM    8  C20 UNL     1      25.550   5.618  50.026  1.00  0.00     0.154 A 
HETATM    9  F1  UNL     1      24.507   5.477  50.893  1.00  0.00    -0.203 F 
ENDROOT
BRANCH   7  10
HETATM   10  N2  UNL     1      26.091   3.201  49.746  1.00  0.00    -0.338 N 
HETATM   11  H4  UNL     1      25.913   2.615  48.883  1.00  0.00     0.167 HD
BRANCH  10  12
HETATM   12  C7  UNL     1      26.196   2.584  51.021  1.00  0.00     0.145 A 
HETATM   13  N3  UNL     1      27.381   2.517  51.660  1.00  0.00    -0.223 NA
HETATM   14  C8  UNL     1      27.555   1.945  52.867  1.00  0.00     0.236 A 
HETATM   15  N4  UNL     1      26.475   1.407  53.473  1.00  0.00    -0.241 NA
HETATM   16  C9  UNL     1      25.252   1.424  52.915  1.00  0.00     0.077 A 
HETATM   17  C10 UNL     1      24.133   0.880  53.504  1.00  0.00     0.072 A 
HETATM   18  C17 UNL     1      25.125   2.021  51.679  1.00  0.00     0.075 A 
HETATM   19  C11 UNL     1      22.873   0.882  52.952  1.00  0.00     0.107 A 
HETATM   20  C15 UNL     1      22.761   1.489  51.702  1.00  0.00     0.136 A 
HETATM   21  C16 UNL     1      23.874   2.038  51.099  1.00  0.00     0.121 A 
HETATM   22  O3  UNL     1      21.526   1.527  51.087  1.00  0.00    -0.344 OA
HETATM   23  O2  UNL     1      23.689   2.621  49.864  1.00  0.00    -0.345 OA
HETATM   24  C18 UNL     1      22.456   2.810  49.244  1.00  0.00     0.202 C 
HETATM   25  C19 UNL     1      21.329   1.987  49.768  1.00  0.00     0.202 C 
BRANCH  19  26
HETATM   26  O1  UNL     1      21.740   0.350  53.509  1.00  0.00    -0.344 OA
BRANCH  26  27
HETATM   27  C12 UNL     1      21.384  -0.983  53.650  1.00  0.00     0.121 C 
HETATM   28  C13 UNL     1      22.006  -1.588  54.891  1.00  0.00     0.040 C 
HETATM   29  C14 UNL     1      19.883  -1.196  53.677  1.00  0.00     0.040 C 
ENDBRANCH  26  27
ENDBRANCH  19  26
ENDBRANCH  10  12
ENDBRANCH   7  10
TORSDOF 4
ENDMDL
MODEL 6
REMARK VINA RESULT:      -8.1      4.935      6.760
REMARK  4 active torsions:
REMARK  status: ('A' for Active; 'I' for Inactive)
REMARK    1  A    between atoms: C6_7  and  N2_8 
REMARK    2  A    between atoms: N2_8  and  C7_9 
REMARK    3  A    between atoms: C11_15  and  O1_16 
REMARK    4  A    between atoms: O1_16  and  C12_17 
ROOT
HETATM    1  C1  UNL     1      28.544   7.611  47.356  1.00  0.00     0.028 C 
HETATM    2  C2  UNL     1      27.683   7.079  48.232  1.00  0.00     0.016 A 
HETATM    3  C3  UNL     1      26.687   7.791  49.041  1.00  0.00     0.059 A 
HETATM    4  C4  UNL     1      26.439   9.203  49.051  1.00  0.00     0.100 C 
HETATM    5  N1  UNL     1      26.244  10.343  49.076  1.00  0.00    -0.191 NA
HETATM    6  C5  UNL     1      26.087   6.843  49.744  1.00  0.00     0.056 A 
HETATM    7  C6  UNL     1      26.613   5.513  49.466  1.00  0.00     0.075 A 
HETATM    8  C20 UNL     1      27.549   5.670  48.577  1.00  0.00     0.154 A 
HETATM    9  F1  UNL     1      28.268   4.625  48.075  1.00  0.00    -0.203 F 
ENDROOT
BRANCH   7  10
HETATM   10  N2  UNL     1      26.096   4.369  50.129  1.00  0.00    -0.338 N 
HETATM   11  H4  UNL     1      26.738   3.886  50.817  1.00  0.00     0.167 HD
BRANCH  10  12
HETATM   12  C7  UNL     1      24.786   3.871  49.901  1.00  0.00     0.145 A 
HETATM   13  N3  UNL     1      24.001   4.405  48.943  1.00  0.00    -0.223 NA
HETATM   14  C8  UNL     1      22.750   3.985  48.675  1.00  0.00     0.236 A 
HETATM   15  N4  UNL     1      22.252   2.968  49.410  1.00  0.00    -0.241 NA
HETATM   16  C9  UNL     1      22.958   2.373  50.387  1.00  0.00     0.077 A 
HETATM   17  C10 UNL     1      22.478   1.338  51.158  1.00  0.00     0.072 A 
HETATM   18  C17 UNL     1      24.234   2.837  50.624  1.00  0.00     0.075 A 
HETATM   19  C11 UNL     1      23.179   0.715  52.165  1.00  0.00     0.107 A 
HETATM   20  C15 UNL     1      24.467   1.197  52.392  1.00  0.00     0.136 A 
HETATM   21  C16 UNL     1      24.962   2.234  51.628  1.00  0.00     0.121 A 
HETATM   22  O3  UNL     1      25.229   0.620  53.388  1.00  0.00    -0.344 OA
HETATM   23  O2  UNL     1      26.243   2.658  51.909  1.00  0.00    -0.345 OA
HETATM   24  C18 UNL     1      27.112   2.042  52.806  1.00  0.00     0.202 C 
HETATM   25  C19 UNL     1      26.483   1.120  53.794  1.00  0.00     0.202 C 
BRANCH  19  26
HETATM   26  O1  UNL     1      22.732  -0.314  52.950  1.00  0.00    -0.344 OA
BRANCH  26  27
HETATM   27  C12 UNL     1      22.033  -0.256  54.146  1.00  0.00     0.121 C 
HETATM   28  C13 UNL     1      20.541  -0.168  53.904  1.00  0.00     0.040 C 
HETATM   29  C14 UNL     1      22.332  -1.424  55.066  1.00  0.00     0.040 C 
ENDBRANCH  26  27
ENDBRANCH  19  26
ENDBRANCH  10  12
ENDBRANCH   7  10
TORSDOF 4
ENDMDL
MODEL 7
REMARK VINA RESULT:      -7.9      3.422      8.370
REMARK  4 active torsions:
REMARK  status: ('A' for Active; 'I' for Inactive)
REMARK    1  A    between atoms: C6_7  and  N2_8 
REMARK    2  A    between atoms: N2_8  and  C7_9 
REMARK    3  A    between atoms: C11_15  and  O1_16 
REMARK    4  A    between atoms: O1_16  and  C12_17 
ROOT
HETATM    1  C1  UNL     1      16.615   0.468  50.318  1.00  0.00     0.028 C 
HETATM    2  C2  UNL     1      17.453   1.363  50.855  1.00  0.00     0.016 A 
HETATM    3  C3  UNL     1      17.278   2.819  50.916  1.00  0.00     0.059 A 
HETATM    4  C4  UNL     1      16.168   3.571  50.408  1.00  0.00     0.100 C 
HETATM    5  N1  UNL     1      15.284   4.187  49.987  1.00  0.00    -0.191 NA
HETATM    6  C5  UNL     1      18.361   3.261  51.534  1.00  0.00     0.056 A 
HETATM    7  C6  UNL     1      19.278   2.192  51.906  1.00  0.00     0.075 A 
HETATM    8  C20 UNL     1      18.729   1.084  51.500  1.00  0.00     0.154 A 
HETATM    9  F1  UNL     1      19.314  -0.134  51.681  1.00  0.00    -0.203 F 
ENDROOT
BRANCH   7  10
HETATM   10  N2  UNL     1      20.498   2.475  52.573  1.00  0.00    -0.338 N 
HETATM   11  H4  UNL     1      20.461   2.534  53.629  1.00  0.00     0.167 HD
BRANCH  10  12
HETATM   12  C7  UNL     1      21.725   2.675  51.888  1.00  0.00     0.145 A 
HETATM   13  N3  UNL     1      21.842   3.635  50.949  1.00  0.00    -0.223 NA
HETATM   14  C8  UNL     1      22.972   3.879  50.258  1.00  0.00     0.236 A 
HETATM   15  N4  UNL     1      24.053   3.115  50.523  1.00  0.00    -0.241 NA
HETATM   16  C9  UNL     1      24.034   2.133  51.442  1.00  0.00     0.077 A 
HETATM   17  C10 UNL     1      25.116   1.334  51.732  1.00  0.00     0.072 A 
HETATM   18  C17 UNL     1      22.854   1.922  52.123  1.00  0.00     0.075 A 
HETATM   19  C11 UNL     1      25.120   0.322  52.664  1.00  0.00     0.107 A 
HETATM   20  C15 UNL     1      23.919   0.121  53.343  1.00  0.00     0.136 A 
HETATM   21  C16 UNL     1      22.826   0.914  53.063  1.00  0.00     0.121 A 
HETATM   22  O3  UNL     1      23.850  -0.878  54.293  1.00  0.00    -0.344 OA
HETATM   23  O2  UNL     1      21.673   0.659  53.774  1.00  0.00    -0.345 OA
HETATM   24  C18 UNL     1      21.567  -0.242  54.831  1.00  0.00     0.202 C 
HETATM   25  C19 UNL     1      22.652  -1.258  54.934  1.00  0.00     0.202 C 
BRANCH  19  26
HETATM   26  O1  UNL     1      26.177  -0.492  52.976  1.00  0.00    -0.344 OA
BRANCH  26  27
HETATM   27  C12 UNL     1      27.437  -0.142  53.438  1.00  0.00     0.121 C 
HETATM   28  C13 UNL     1      27.395   0.258  54.897  1.00  0.00     0.040 C 
HETATM   29  C14 UNL     1      28.467  -1.237  53.239  1.00  0.00     0.040 C 
ENDBRANCH  26  27
ENDBRANCH  19  26
ENDBRANCH  10  12
ENDBRANCH   7  10
TORSDOF 4
ENDMDL
MODEL 8
REMARK VINA RESULT:      -7.5      4.908      7.640
REMARK  4 active torsions:
REMARK  status: ('A' for Active; 'I' for Inactive)
REMARK    1  A    between atoms: C6_7  and  N2_8 
REMARK    2  A    between atoms: N2_8  and  C7_9 
REMARK    3  A    between atoms: C11_15  and  O1_16 
REMARK    4  A    between atoms: O1_16  and  C12_17 
ROOT
HETATM    1  C1  UNL     1      22.323  -1.043  53.776  1.00  0.00     0.028 C 
HETATM    2  C2  UNL     1      22.962  -0.121  53.045  1.00  0.00     0.016 A 
HETATM    3  C3  UNL     1      24.356   0.313  53.185  1.00  0.00     0.059 A 
HETATM    4  C4  UNL     1      25.313  -0.168  54.139  1.00  0.00     0.100 C 
HETATM    5  N1  UNL     1      26.086  -0.539  54.915  1.00  0.00    -0.191 NA
HETATM    6  C5  UNL     1      24.516   1.233  52.247  1.00  0.00     0.056 A 
HETATM    7  C6  UNL     1      23.309   1.459  51.464  1.00  0.00     0.075 A 
HETATM    8  C20 UNL     1      22.406   0.656  51.945  1.00  0.00     0.154 A 
HETATM    9  F1  UNL     1      21.138   0.596  51.449  1.00  0.00    -0.203 F 
ENDROOT
BRANCH   7  10
HETATM   10  N2  UNL     1      23.288   2.414  50.414  1.00  0.00    -0.338 N 
HETATM   11  H4  UNL     1      23.744   2.130  49.502  1.00  0.00     0.167 HD
BRANCH  10  12
HETATM   12  C7  UNL     1      22.694   3.696  50.548  1.00  0.00     0.145 A 
HETATM   13  N3  UNL     1      21.412   3.826  50.945  1.00  0.00    -0.223 NA
HETATM   14  C8  UNL     1      20.784   5.008  51.091  1.00  0.00     0.236 A 
HETATM   15  N4  UNL     1      21.482   6.133  50.823  1.00  0.00    -0.241 NA
HETATM   16  C9  UNL     1      22.765   6.105  50.422  1.00  0.00     0.077 A 
HETATM   17  C10 UNL     1      23.502   7.232  50.137  1.00  0.00     0.072 A 
HETATM   18  C17 UNL     1      23.364   4.871  50.287  1.00  0.00     0.075 A 
HETATM   19  C11 UNL     1      24.814   7.230  49.720  1.00  0.00     0.107 A 
HETATM   20  C15 UNL     1      25.405   5.974  49.590  1.00  0.00     0.136 A 
HETATM   21  C16 UNL     1      24.678   4.836  49.871  1.00  0.00     0.121 A 
HETATM   22  O3  UNL     1      26.720   5.896  49.176  1.00  0.00    -0.344 OA
HETATM   23  O2  UNL     1      25.327   3.630  49.720  1.00  0.00    -0.345 OA
HETATM   24  C18 UNL     1      26.682   3.480  49.432  1.00  0.00     0.202 C 
HETATM   25  C19 UNL     1      27.367   4.680  48.874  1.00  0.00     0.202 C 
BRANCH  19  26
HETATM   26  O1  UNL     1      25.576   8.330  49.428  1.00  0.00    -0.344 OA
BRANCH  26  27
HETATM   27  C12 UNL     1      25.953   8.822  48.187  1.00  0.00     0.121 C 
HETATM   28  C13 UNL     1      25.059   9.964  47.755  1.00  0.00     0.040 C 
HETATM   29  C14 UNL     1      27.404   9.264  48.141  1.00  0.00     0.040 C 
ENDBRANCH  26  27
ENDBRANCH  19  26
ENDBRANCH  10  12
ENDBRANCH   7  10
TORSDOF 4
ENDMDL
MODEL 9
REMARK VINA RESULT:      -7.5      3.762      8.490
REMARK  4 active torsions:
REMARK  status: ('A' for Active; 'I' for Inactive)
REMARK    1  A    between atoms: C6_7  and  N2_8 
REMARK    2  A    between atoms: N2_8  and  C7_9 
REMARK    3  A    between atoms: C11_15  and  O1_16 
REMARK    4  A    between atoms: O1_16  and  C12_17 
ROOT
HETATM    1  C1  UNL     1      19.668   6.473  49.334  1.00  0.00     0.028 C 
HETATM    2  C2  UNL     1      20.368   5.336  49.413  1.00  0.00     0.016 A 
HETATM    3  C3  UNL     1      20.396   4.241  48.437  1.00  0.00     0.059 A 
HETATM    4  C4  UNL     1      19.675   4.175  47.200  1.00  0.00     0.100 C 
HETATM    5  N1  UNL     1      19.084   4.107  46.208  1.00  0.00    -0.191 NA
HETATM    6  C5  UNL     1      21.224   3.349  48.958  1.00  0.00     0.056 A 
HETATM    7  C6  UNL     1      21.772   3.767  50.241  1.00  0.00     0.075 A 
HETATM    8  C20 UNL     1      21.259   4.935  50.494  1.00  0.00     0.154 A 
HETATM    9  F1  UNL     1      21.553   5.636  51.626  1.00  0.00    -0.203 F 
ENDROOT
BRANCH   7  10
HETATM   10  N2  UNL     1      22.677   2.937  50.954  1.00  0.00    -0.338 N 
HETATM   11  H4  UNL     1      22.253   2.236  51.625  1.00  0.00     0.167 HD
BRANCH  10  12
HETATM   12  C7  UNL     1      24.085   3.019  50.800  1.00  0.00     0.145 A 
HETATM   13  N3  UNL     1      24.638   3.941  49.986  1.00  0.00    -0.223 NA
HETATM   14  C8  UNL     1      25.964   4.074  49.789  1.00  0.00     0.236 A 
HETATM   15  N4  UNL     1      26.789   3.232  50.449  1.00  0.00    -0.241 NA
HETATM   16  C9  UNL     1      26.332   2.281  51.282  1.00  0.00     0.077 A 
HETATM   17  C10 UNL     1      27.146   1.405  51.964  1.00  0.00     0.072 A 
HETATM   18  C17 UNL     1      24.968   2.184  51.450  1.00  0.00     0.075 A 
HETATM   19  C11 UNL     1      26.702   0.421  52.818  1.00  0.00     0.107 A 
HETATM   20  C15 UNL     1      25.320   0.337  52.977  1.00  0.00     0.136 A 
HETATM   21  C16 UNL     1      24.492   1.208  52.299  1.00  0.00     0.121 A 
HETATM   22  O3  UNL     1      24.803  -0.627  53.819  1.00  0.00    -0.344 OA
HETATM   23  O2  UNL     1      23.136   1.065  52.505  1.00  0.00    -0.345 OA
HETATM   24  C18 UNL     1      22.553   0.206  53.433  1.00  0.00     0.202 C 
HETATM   25  C19 UNL     1      23.423  -0.892  53.942  1.00  0.00     0.202 C 
BRANCH  19  26
HETATM   26  O1  UNL     1      27.482  -0.466  53.511  1.00  0.00    -0.344 OA
BRANCH  26  27
HETATM   27  C12 UNL     1      28.560  -1.214  53.060  1.00  0.00     0.121 C 
HETATM   28  C13 UNL     1      29.811  -0.905  53.854  1.00  0.00     0.040 C 
HETATM   29  C14 UNL     1      28.297  -2.707  53.083  1.00  0.00     0.040 C 
ENDBRANCH  26  27
ENDBRANCH  19  26
ENDBRANCH  10  12
ENDBRANCH   7  10
TORSDOF 4
ENDMDL
