MODEL 1
REMARK VINA RESULT:      -8.4      0.000      0.000
REMARK  2 active torsions:
REMARK  status: ('A' for Active; 'I' for Inactive)
REMARK    1  A    between atoms: C6_6  and  N1_7 
REMARK    2  A    between atoms: N1_7  and  C7_8 
ROOT
HETATM    1  C1  UNL     1      22.696   2.219  49.263  1.00  0.00     0.027 C 
HETATM    2  C2  UNL     1      22.907   3.042  50.268  1.00  0.00     0.026 C 
HETATM    3  C3  UNL     1      22.624   3.705  51.551  1.00  0.00     0.080 C 
HETATM    4  C4  UNL     1      23.511   3.325  52.515  1.00  0.00     0.053 C 
HETATM    5  C5  UNL     1      24.697   3.323  51.608  1.00  0.00     0.051 C 
HETATM    6  C6  UNL     1      25.944   2.921  51.918  1.00  0.00     0.141 C 
HETATM    7  N2  UNL     1      26.861   2.894  50.834  1.00  0.00    -0.226 NA
HETATM    8  C13 UNL     1      26.426   3.241  49.653  1.00  0.00     0.207 C 
HETATM    9  N3  UNL     1      25.096   3.647  49.327  1.00  0.00    -0.345 N 
HETATM   10  C14 UNL     1      24.121   3.944  50.388  1.00  0.00     0.198 C 
HETATM   11  O1  UNL     1      23.793   5.204  50.302  1.00  0.00    -0.350 OA
HETATM   12  C15 UNL     1      23.206   6.086  51.064  1.00  0.00     0.198 C 
HETATM   13  C16 UNL     1      21.657   6.010  51.175  1.00  0.00     0.202 C 
HETATM   14  O2  UNL     1      21.542   4.650  51.766  1.00  0.00    -0.348 OA
HETATM   15  H9  UNL     1      24.933   3.696  48.297  1.00  0.00     0.164 HD
ENDROOT
BRANCH   6  16
HETATM   16  N1  UNL     1      26.238   2.448  53.225  1.00  0.00    -0.340 N 
HETATM   17  H4  UNL     1      25.766   2.843  54.036  1.00  0.00     0.167 HD
BRANCH  16  18
HETATM   18  C7  UNL     1      27.200   1.430  53.312  1.00  0.00     0.035 A 
HETATM   19  C8  UNL     1      28.492   1.677  53.748  1.00  0.00     0.032 A 
HETATM   20  C9  UNL     1      29.377   0.604  53.797  1.00  0.00     0.046 A 
HETATM   21  C10 UNL     1      28.943  -0.658  53.412  1.00  0.00     0.138 A 
HETATM   22  F1  UNL     1      29.870  -1.647  53.489  1.00  0.00    -0.204 F 
HETATM   23  C11 UNL     1      27.659  -0.894  52.981  1.00  0.00     0.074 A 
HETATM   24 CL1  UNL     1      27.183  -2.528  52.507  1.00  0.00    -0.081 Cl
HETATM   25  C12 UNL     1      26.767   0.171  52.929  1.00  0.00     0.056 A 
ENDBRANCH  16  18
ENDBRANCH   6  16
TORSDOF 2
ENDMDL
MODEL 2
REMARK VINA RESULT:      -8.4      4.014      6.457
REMARK  2 active torsions:
REMARK  status: ('A' for Active; 'I' for Inactive)
REMARK    1  A    between atoms: C6_6  and  N1_7 
REMARK    2  A    between atoms: N1_7  and  C7_8 
ROOT
HETATM    1  C1  UNL     1      24.702  -0.038  53.726  1.00  0.00     0.027 C 
HETATM    2  C2  UNL     1      25.727   0.582  53.179  1.00  0.00     0.026 C 
HETATM    3  C3  UNL     1      26.984   0.702  52.424  1.00  0.00     0.080 C 
HETATM    4  C4  UNL     1      26.789   1.333  51.230  1.00  0.00     0.053 C 
HETATM    5  C5  UNL     1      25.823   2.335  51.767  1.00  0.00     0.051 C 
HETATM    6  C6  UNL     1      25.130   3.245  51.055  1.00  0.00     0.141 C 
HETATM    7  N2  UNL     1      24.174   3.993  51.791  1.00  0.00    -0.226 NA
HETATM    8  C13 UNL     1      24.039   3.734  53.064  1.00  0.00     0.207 C 
HETATM    9  N3  UNL     1      24.762   2.753  53.809  1.00  0.00    -0.345 N 
HETATM   10  C14 UNL     1      25.935   2.084  53.226  1.00  0.00     0.198 C 
HETATM   11  O1  UNL     1      26.982   2.401  53.937  1.00  0.00    -0.350 OA
HETATM   12  C15 UNL     1      28.279   2.341  53.797  1.00  0.00     0.198 C 
HETATM   13  C16 UNL     1      28.951   0.953  53.991  1.00  0.00     0.202 C 
HETATM   14  O2  UNL     1      28.272   0.219  52.890  1.00  0.00    -0.348 OA
HETATM   15  H9  UNL     1      24.359   2.595  54.759  1.00  0.00     0.164 HD
ENDROOT
BRANCH   6  16
HETATM   16  N1  UNL     1      25.294   3.324  49.646  1.00  0.00    -0.340 N 
HETATM   17  H4  UNL     1      24.974   2.567  49.045  1.00  0.00     0.167 HD
BRANCH  16  18
HETATM   18  C7  UNL     1      25.912   4.487  49.161  1.00  0.00     0.035 A 
HETATM   19  C8  UNL     1      25.200   5.651  48.924  1.00  0.00     0.032 A 
HETATM   20  C9  UNL     1      25.899   6.753  48.439  1.00  0.00     0.046 A 
HETATM   21  C10 UNL     1      27.265   6.649  48.212  1.00  0.00     0.138 A 
HETATM   22  F1  UNL     1      27.869   7.770  47.737  1.00  0.00    -0.204 F 
HETATM   23  C11 UNL     1      27.964   5.490  48.450  1.00  0.00     0.074 A 
HETATM   24 CL1  UNL     1      29.702   5.437  48.136  1.00  0.00    -0.081 Cl
HETATM   25  C12 UNL     1      27.275   4.384  48.935  1.00  0.00     0.056 A 
ENDBRANCH  16  18
ENDBRANCH   6  16
TORSDOF 2
ENDMDL
MODEL 3
REMARK VINA RESULT:      -7.9      2.388      3.276
REMARK  2 active torsions:
REMARK  status: ('A' for Active; 'I' for Inactive)
REMARK    1  A    between atoms: C6_6  and  N1_7 
REMARK    2  A    between atoms: N1_7  and  C7_8 
ROOT
HETATM    1  C1  UNL     1      20.777   3.646  52.317  1.00  0.00     0.027 C 
HETATM    2  C2  UNL     1      22.060   3.448  52.098  1.00  0.00     0.026 C 
HETATM    3  C3  UNL     1      23.497   3.761  52.126  1.00  0.00     0.080 C 
HETATM    4  C4  UNL     1      24.171   2.931  52.973  1.00  0.00     0.053 C 
HETATM    5  C5  UNL     1      23.401   1.708  52.598  1.00  0.00     0.051 C 
HETATM    6  C6  UNL     1      23.500   0.491  53.167  1.00  0.00     0.141 C 
HETATM    7  N2  UNL     1      22.559  -0.469  52.714  1.00  0.00    -0.226 NA
HETATM    8  C13 UNL     1      21.687  -0.099  51.815  1.00  0.00     0.207 C 
HETATM    9  N3  UNL     1      21.574   1.200  51.231  1.00  0.00    -0.345 N 
HETATM   10  C14 UNL     1      22.627   2.207  51.434  1.00  0.00     0.198 C 
HETATM   11  O1  UNL     1      23.158   2.483  50.275  1.00  0.00    -0.350 OA
HETATM   12  C15 UNL     1      24.241   3.069  49.843  1.00  0.00     0.198 C 
HETATM   13  C16 UNL     1      24.271   4.623  49.880  1.00  0.00     0.202 C 
HETATM   14  O2  UNL     1      24.123   4.815  51.347  1.00  0.00    -0.348 OA
HETATM   15  H9  UNL     1      20.695   1.315  50.680  1.00  0.00     0.164 HD
ENDROOT
BRANCH   6  16
HETATM   16  N1  UNL     1      24.418   0.272  54.229  1.00  0.00    -0.340 N 
HETATM   17  H4  UNL     1      24.122   0.379  55.198  1.00  0.00     0.167 HD
BRANCH  16  18
HETATM   18  C7  UNL     1      25.720  -0.091  53.855  1.00  0.00     0.035 A 
HETATM   19  C8  UNL     1      25.973  -1.198  53.060  1.00  0.00     0.032 A 
HETATM   20  C9  UNL     1      27.300  -1.481  52.745  1.00  0.00     0.046 A 
HETATM   21  C10 UNL     1      28.308  -0.658  53.229  1.00  0.00     0.138 A 
HETATM   22  F1  UNL     1      29.572  -1.007  52.875  1.00  0.00    -0.204 F 
HETATM   23  C11 UNL     1      28.048   0.439  54.017  1.00  0.00     0.074 A 
HETATM   24 CL1  UNL     1      29.385   1.436  54.595  1.00  0.00    -0.081 Cl
HETATM   25  C12 UNL     1      26.727   0.730  54.338  1.00  0.00     0.056 A 
ENDBRANCH  16  18
ENDBRANCH   6  16
TORSDOF 2
ENDMDL
MODEL 4
REMARK VINA RESULT:      -7.7      2.122      2.595
REMARK  2 active torsions:
REMARK  status: ('A' for Active; 'I' for Inactive)
REMARK    1  A    between atoms: C6_6  and  N1_7 
REMARK    2  A    between atoms: N1_7  and  C7_8 
ROOT
HETATM    1  C1  UNL     1      21.636   1.111  48.597  1.00  0.00     0.027 C 
HETATM    2  C2  UNL     1      21.457   1.218  49.897  1.00  0.00     0.026 C 
HETATM    3  C3  UNL     1      20.904   0.869  51.216  1.00  0.00     0.080 C 
HETATM    4  C4  UNL     1      21.864   0.359  52.039  1.00  0.00     0.053 C 
HETATM    5  C5  UNL     1      22.931   1.305  51.599  1.00  0.00     0.051 C 
HETATM    6  C6  UNL     1      24.227   1.282  51.967  1.00  0.00     0.141 C 
HETATM    7  N2  UNL     1      25.064   2.214  51.300  1.00  0.00    -0.226 NA
HETATM    8  C13 UNL     1      24.525   2.988  50.397  1.00  0.00     0.207 C 
HETATM    9  N3  UNL     1      23.154   2.993  49.996  1.00  0.00    -0.345 N 
HETATM   10  C14 UNL     1      22.145   2.252  50.768  1.00  0.00     0.198 C 
HETATM   11  O1  UNL     1      21.293   3.110  51.259  1.00  0.00    -0.350 OA
HETATM   12  C15 UNL     1      20.372   3.111  52.184  1.00  0.00     0.198 C 
HETATM   13  C16 UNL     1      19.018   2.432  51.839  1.00  0.00     0.202 C 
HETATM   14  O2  UNL     1      19.514   1.051  51.598  1.00  0.00    -0.348 OA
HETATM   15  H9  UNL     1      22.991   3.559  49.135  1.00  0.00     0.164 HD
ENDROOT
BRANCH   6  16
HETATM   16  N1  UNL     1      24.694   0.293  52.872  1.00  0.00    -0.340 N 
HETATM   17  H4  UNL     1      24.047  -0.373  53.291  1.00  0.00     0.167 HD
BRANCH  16  18
HETATM   18  C7  UNL     1      26.072   0.302  53.140  1.00  0.00     0.035 A 
HETATM   19  C8  UNL     1      26.730   1.451  53.550  1.00  0.00     0.032 A 
HETATM   20  C9  UNL     1      28.100   1.364  53.788  1.00  0.00     0.046 A 
HETATM   21  C10 UNL     1      28.748   0.149  53.609  1.00  0.00     0.138 A 
HETATM   22  F1  UNL     1      30.083   0.153  53.861  1.00  0.00    -0.204 F 
HETATM   23  C11 UNL     1      28.087  -0.986  53.202  1.00  0.00     0.074 A 
HETATM   24 CL1  UNL     1      28.983  -2.493  52.996  1.00  0.00    -0.081 Cl
HETATM   25  C12 UNL     1      26.720  -0.909  52.962  1.00  0.00     0.056 A 
ENDBRANCH  16  18
ENDBRANCH   6  16
TORSDOF 2
ENDMDL
MODEL 5
REMARK VINA RESULT:      -7.6      2.405      3.503
REMARK  2 active torsions:
REMARK  status: ('A' for Active; 'I' for Inactive)
REMARK    1  A    between atoms: C6_6  and  N1_7 
REMARK    2  A    between atoms: N1_7  and  C7_8 
ROOT
HETATM    1  C1  UNL     1      20.962   3.689  52.305  1.00  0.00     0.027 C 
HETATM    2  C2  UNL     1      21.591   3.142  51.287  1.00  0.00     0.026 C 
HETATM    3  C3  UNL     1      22.241   3.101  49.967  1.00  0.00     0.080 C 
HETATM    4  C4  UNL     1      23.585   2.893  50.080  1.00  0.00     0.053 C 
HETATM    5  C5  UNL     1      23.472   1.905  51.192  1.00  0.00     0.051 C 
HETATM    6  C6  UNL     1      24.488   1.349  51.880  1.00  0.00     0.141 C 
HETATM    7  N2  UNL     1      24.106   0.538  52.981  1.00  0.00    -0.226 NA
HETATM    8  C13 UNL     1      22.832   0.412  53.238  1.00  0.00     0.207 C 
HETATM    9  N3  UNL     1      21.759   1.021  52.517  1.00  0.00    -0.345 N 
HETATM   10  C14 UNL     1      22.004   1.683  51.227  1.00  0.00     0.198 C 
HETATM   11  O1  UNL     1      21.347   1.036  50.304  1.00  0.00    -0.350 OA
HETATM   12  C15 UNL     1      21.356   0.973  49.000  1.00  0.00     0.198 C 
HETATM   13  C16 UNL     1      20.680   2.140  48.228  1.00  0.00     0.202 C 
HETATM   14  O2  UNL     1      21.544   3.254  48.702  1.00  0.00    -0.348 OA
HETATM   15  H9  UNL     1      20.844   0.932  53.011  1.00  0.00     0.164 HD
ENDROOT
BRANCH   6  16
HETATM   16  N1  UNL     1      25.832   1.682  51.562  1.00  0.00    -0.340 N 
HETATM   17  H4  UNL     1      26.037   2.377  50.845  1.00  0.00     0.167 HD
BRANCH  16  18
HETATM   18  C7  UNL     1      26.825   1.003  52.284  1.00  0.00     0.035 A 
HETATM   19  C8  UNL     1      26.936  -0.379  52.254  1.00  0.00     0.032 A 
HETATM   20  C9  UNL     1      27.951  -0.964  53.007  1.00  0.00     0.046 A 
HETATM   21  C10 UNL     1      28.802  -0.158  53.750  1.00  0.00     0.138 A 
HETATM   22  F1  UNL     1      29.762  -0.810  54.456  1.00  0.00    -0.204 F 
HETATM   23  C11 UNL     1      28.684   1.212  53.774  1.00  0.00     0.074 A 
HETATM   24 CL1  UNL     1      29.806   2.169  54.745  1.00  0.00    -0.081 Cl
HETATM   25  C12 UNL     1      27.675   1.806  53.026  1.00  0.00     0.056 A 
ENDBRANCH  16  18
ENDBRANCH   6  16
TORSDOF 2
ENDMDL
MODEL 6
REMARK VINA RESULT:      -7.6      1.987      2.583
REMARK  2 active torsions:
REMARK  status: ('A' for Active; 'I' for Inactive)
REMARK    1  A    between atoms: C6_6  and  N1_7 
REMARK    2  A    between atoms: N1_7  and  C7_8 
ROOT
HETATM    1  C1  UNL     1      21.435   0.778  49.340  1.00  0.00     0.027 C 
HETATM    2  C2  UNL     1      21.340   1.642  50.328  1.00  0.00     0.026 C 
HETATM    3  C3  UNL     1      20.944   2.133  51.658  1.00  0.00     0.080 C 
HETATM    4  C4  UNL     1      22.026   2.297  52.471  1.00  0.00     0.053 C 
HETATM    5  C5  UNL     1      22.910   2.848  51.403  1.00  0.00     0.051 C 
HETATM    6  C6  UNL     1      24.220   3.143  51.517  1.00  0.00     0.141 C 
HETATM    7  N2  UNL     1      24.863   3.529  50.312  1.00  0.00    -0.226 NA
HETATM    8  C13 UNL     1      24.152   3.554  49.217  1.00  0.00     0.207 C 
HETATM    9  N3  UNL     1      22.768   3.220  49.099  1.00  0.00    -0.345 N 
HETATM   10  C14 UNL     1      21.937   3.037  50.298  1.00  0.00     0.198 C 
HETATM   11  O1  UNL     1      21.010   3.955  50.298  1.00  0.00    -0.350 OA
HETATM   12  C15 UNL     1      20.171   4.457  51.163  1.00  0.00     0.198 C 
HETATM   13  C16 UNL     1      18.905   3.618  51.494  1.00  0.00     0.202 C 
HETATM   14  O2  UNL     1      19.575   2.414  52.055  1.00  0.00    -0.348 OA
HETATM   15  H9  UNL     1      22.462   3.131  48.105  1.00  0.00     0.164 HD
ENDROOT
BRANCH   6  16
HETATM   16  N1  UNL     1      24.892   2.945  52.753  1.00  0.00    -0.340 N 
HETATM   17  H4  UNL     1      24.710   3.560  53.544  1.00  0.00     0.167 HD
BRANCH  16  18
HETATM   18  C7  UNL     1      25.796   1.874  52.800  1.00  0.00     0.035 A 
HETATM   19  C8  UNL     1      25.531   0.663  52.180  1.00  0.00     0.032 A 
HETATM   20  C9  UNL     1      26.487  -0.344  52.285  1.00  0.00     0.046 A 
HETATM   21  C10 UNL     1      27.655  -0.104  52.996  1.00  0.00     0.138 A 
HETATM   22  F1  UNL     1      28.533  -1.139  53.050  1.00  0.00    -0.204 F 
HETATM   23  C11 UNL     1      27.911   1.101  53.608  1.00  0.00     0.074 A 
HETATM   24 CL1  UNL     1      29.421   1.327  54.495  1.00  0.00    -0.081 Cl
HETATM   25  C12 UNL     1      26.962   2.112  53.509  1.00  0.00     0.056 A 
ENDBRANCH  16  18
ENDBRANCH   6  16
TORSDOF 2
ENDMDL
MODEL 7
REMARK VINA RESULT:      -7.5      3.812      4.766
REMARK  2 active torsions:
REMARK  status: ('A' for Active; 'I' for Inactive)
REMARK    1  A    between atoms: C6_6  and  N1_7 
REMARK    2  A    between atoms: N1_7  and  C7_8 
ROOT
HETATM    1  C1  UNL     1      25.583   6.374  50.011  1.00  0.00     0.027 C 
HETATM    2  C2  UNL     1      24.570   5.585  49.720  1.00  0.00     0.026 C 
HETATM    3  C3  UNL     1      23.751   4.694  48.883  1.00  0.00     0.080 C 
HETATM    4  C4  UNL     1      23.788   3.409  49.338  1.00  0.00     0.053 C 
HETATM    5  C5  UNL     1      23.740   3.780  50.783  1.00  0.00     0.051 C 
HETATM    6  C6  UNL     1      23.852   2.942  51.832  1.00  0.00     0.141 C 
HETATM    7  N2  UNL     1      23.907   3.566  53.105  1.00  0.00    -0.226 NA
HETATM    8  C13 UNL     1      23.859   4.870  53.153  1.00  0.00     0.207 C 
HETATM    9  N3  UNL     1      23.762   5.755  52.035  1.00  0.00    -0.345 N 
HETATM   10  C14 UNL     1      23.459   5.235  50.693  1.00  0.00     0.198 C 
HETATM   11  O1  UNL     1      22.314   5.730  50.311  1.00  0.00    -0.350 OA
HETATM   12  C15 UNL     1      21.429   5.472  49.386  1.00  0.00     0.198 C 
HETATM   13  C16 UNL     1      21.760   5.932  47.939  1.00  0.00     0.202 C 
HETATM   14  O2  UNL     1      22.992   5.127  47.723  1.00  0.00    -0.348 OA
HETATM   15  H9  UNL     1      23.927   6.751  52.298  1.00  0.00     0.164 HD
ENDROOT
BRANCH   6  16
HETATM   16  N1  UNL     1      24.024   1.548  51.617  1.00  0.00    -0.340 N 
HETATM   17  H4  UNL     1      24.693   1.210  50.928  1.00  0.00     0.167 HD
BRANCH  16  18
HETATM   18  C7  UNL     1      23.226   0.700  52.399  1.00  0.00     0.035 A 
HETATM   19  C8  UNL     1      23.757  -0.059  53.431  1.00  0.00     0.032 A 
HETATM   20  C9  UNL     1      22.887  -0.876  54.150  1.00  0.00     0.046 A 
HETATM   21  C10 UNL     1      21.540  -0.902  53.814  1.00  0.00     0.138 A 
HETATM   22  F1  UNL     1      20.763  -1.725  54.564  1.00  0.00    -0.204 F 
HETATM   23  C11 UNL     1      21.022  -0.145  52.789  1.00  0.00     0.074 A 
HETATM   24 CL1  UNL     1      19.297  -0.234  52.422  1.00  0.00    -0.081 Cl
HETATM   25  C12 UNL     1      21.882   0.673  52.065  1.00  0.00     0.056 A 
ENDBRANCH  16  18
ENDBRANCH   6  16
TORSDOF 2
ENDMDL
MODEL 8
REMARK VINA RESULT:      -7.4      3.427      4.415
REMARK  2 active torsions:
REMARK  status: ('A' for Active; 'I' for Inactive)
REMARK    1  A    between atoms: C6_6  and  N1_7 
REMARK    2  A    between atoms: N1_7  and  C7_8 
ROOT
HETATM    1  C1  UNL     1      18.444   0.215  50.864  1.00  0.00     0.027 C 
HETATM    2  C2  UNL     1      18.784   1.475  51.039  1.00  0.00     0.026 C 
HETATM    3  C3  UNL     1      18.882   2.759  51.751  1.00  0.00     0.080 C 
HETATM    4  C4  UNL     1      20.168   3.031  52.115  1.00  0.00     0.053 C 
HETATM    5  C5  UNL     1      20.773   2.517  50.851  1.00  0.00     0.051 C 
HETATM    6  C6  UNL     1      22.087   2.392  50.582  1.00  0.00     0.141 C 
HETATM    7  N2  UNL     1      22.398   1.750  49.355  1.00  0.00    -0.226 NA
HETATM    8  C13 UNL     1      21.409   1.332  48.613  1.00  0.00     0.207 C 
HETATM    9  N3  UNL     1      20.017   1.448  48.913  1.00  0.00    -0.345 N 
HETATM   10  C14 UNL     1      19.559   2.295  50.025  1.00  0.00     0.198 C 
HETATM   11  O1  UNL     1      18.832   3.260  49.532  1.00  0.00    -0.350 OA
HETATM   12  C15 UNL     1      18.377   4.412  49.945  1.00  0.00     0.198 C 
HETATM   13  C16 UNL     1      17.149   4.390  50.898  1.00  0.00     0.202 C 
HETATM   14  O2  UNL     1      17.754   3.633  52.027  1.00  0.00    -0.348 OA
HETATM   15  H9  UNL     1      19.420   0.881  48.271  1.00  0.00     0.164 HD
ENDROOT
BRANCH   6  16
HETATM   16  N1  UNL     1      23.053   2.781  51.548  1.00  0.00    -0.340 N 
HETATM   17  H4  UNL     1      23.172   3.762  51.796  1.00  0.00     0.167 HD
BRANCH  16  18
HETATM   18  C7  UNL     1      23.810   1.744  52.116  1.00  0.00     0.035 A 
HETATM   19  C8  UNL     1      25.137   1.536  51.777  1.00  0.00     0.032 A 
HETATM   20  C9  UNL     1      25.806   0.478  52.390  1.00  0.00     0.046 A 
HETATM   21  C10 UNL     1      25.130  -0.318  53.305  1.00  0.00     0.138 A 
HETATM   22  F1  UNL     1      25.855  -1.326  53.854  1.00  0.00    -0.204 F 
HETATM   23  C11 UNL     1      23.813  -0.103  53.636  1.00  0.00     0.074 A 
HETATM   24 CL1  UNL     1      23.023  -1.160  54.810  1.00  0.00    -0.081 Cl
HETATM   25  C12 UNL     1      23.137   0.950  53.030  1.00  0.00     0.056 A 
ENDBRANCH  16  18
ENDBRANCH   6  16
TORSDOF 2
ENDMDL
MODEL 9
REMARK VINA RESULT:      -7.4      3.648      4.936
REMARK  2 active torsions:
REMARK  status: ('A' for Active; 'I' for Inactive)
REMARK    1  A    between atoms: C6_6  and  N1_7 
REMARK    2  A    between atoms: N1_7  and  C7_8 
ROOT
HETATM    1  C1  UNL     1      24.897   3.454  49.475  1.00  0.00     0.027 C 
HETATM    2  C2  UNL     1      23.678   3.147  49.082  1.00  0.00     0.026 C 
HETATM    3  C3  UNL     1      22.647   2.401  48.344  1.00  0.00     0.080 C 
HETATM    4  C4  UNL     1      21.870   1.660  49.186  1.00  0.00     0.053 C 
HETATM    5  C5  UNL     1      21.808   2.699  50.255  1.00  0.00     0.051 C 
HETATM    6  C6  UNL     1      21.249   2.565  51.473  1.00  0.00     0.141 C 
HETATM    7  N2  UNL     1      21.442   3.662  52.354  1.00  0.00    -0.226 NA
HETATM    8  C13 UNL     1      22.140   4.679  51.925  1.00  0.00     0.207 C 
HETATM    9  N3  UNL     1      22.748   4.806  50.639  1.00  0.00    -0.345 N 
HETATM   10  C14 UNL     1      22.426   3.857  49.562  1.00  0.00     0.198 C 
HETATM   11  O1  UNL     1      21.848   4.516  48.595  1.00  0.00    -0.350 OA
HETATM   12  C15 UNL     1      21.139   4.224  47.538  1.00  0.00     0.198 C 
HETATM   13  C16 UNL     1      21.904   3.684  46.297  1.00  0.00     0.202 C 
HETATM   14  O2  UNL     1      22.471   2.449  46.903  1.00  0.00    -0.348 OA
HETATM   15  H9  UNL     1      23.407   5.613  50.586  1.00  0.00     0.164 HD
ENDROOT
BRANCH   6  16
HETATM   16  N1  UNL     1      20.628   1.343  51.844  1.00  0.00    -0.340 N 
HETATM   17  H4  UNL     1      19.757   1.050  51.402  1.00  0.00     0.167 HD
BRANCH  16  18
HETATM   18  C7  UNL     1      21.280   0.593  52.834  1.00  0.00     0.035 A 
HETATM   19  C8  UNL     1      20.622   0.147  53.969  1.00  0.00     0.032 A 
HETATM   20  C9  UNL     1      21.355  -0.587  54.898  1.00  0.00     0.046 A 
HETATM   21  C10 UNL     1      22.698  -0.842  54.661  1.00  0.00     0.138 A 
HETATM   22  F1  UNL     1      23.338  -1.563  55.618  1.00  0.00    -0.204 F 
HETATM   23  C11 UNL     1      23.344  -0.396  53.531  1.00  0.00     0.074 A 
HETATM   24 CL1  UNL     1      25.056  -0.762  53.301  1.00  0.00    -0.081 Cl
HETATM   25  C12 UNL     1      22.621   0.337  52.597  1.00  0.00     0.056 A 
ENDBRANCH  16  18
ENDBRANCH   6  16
TORSDOF 2
ENDMDL
