MODEL 1
REMARK VINA RESULT:      -8.5      0.000      0.000
REMARK  6 active torsions:
REMARK  status: ('A' for Active; 'I' for Inactive)
REMARK    1  A    between atoms: O1_2  and  C2_3 
REMARK    2  A    between atoms: C2_3  and  C3_4 
REMARK    3  A    between atoms: C4_5  and  C5_6 
REMARK       I    between atoms: C5_6  and  N1_8 
REMARK    4  A    between atoms: N1_8  and  C6_9 
REMARK    5  A    between atoms: C13_17  and  N3_18 
REMARK    6  A    between atoms: N3_18  and  C14_19 
ROOT
HETATM    1  C6  UNL     1      24.382   3.105  49.694  1.00  0.00     0.036 A 
HETATM    2  C7  UNL     1      23.354   2.977  48.781  1.00  0.00     0.032 A 
HETATM    3  C8  UNL     1      22.224   2.199  49.048  1.00  0.00     0.035 A 
HETATM    4  C9  UNL     1      22.212   1.574  50.281  1.00  0.00     0.069 A 
HETATM    5  N2  UNL     1      21.117   0.828  50.524  1.00  0.00    -0.260 NA
HETATM    6  C10 UNL     1      21.033   0.188  51.705  1.00  0.00     0.126 A 
HETATM    7  C11 UNL     1      22.003   0.261  52.660  1.00  0.00    -0.017 A 
HETATM    8  C12 UNL     1      21.892  -0.451  53.955  1.00  0.00     0.052 C 
HETATM    9  C13 UNL     1      23.131   1.021  52.426  1.00  0.00     0.052 A 
HETATM   10  C20 UNL     1      23.222   1.681  51.215  1.00  0.00     0.022 A 
HETATM   11  C21 UNL     1      24.322   2.459  50.913  1.00  0.00     0.045 A 
ENDROOT
BRANCH   1  12
HETATM   12  N1  UNL     1      25.485   3.922  49.317  1.00  0.00    -0.316 N 
HETATM   13  C5  UNL     1      25.802   5.265  48.985  1.00  0.00     0.301 C 
HETATM   14  O2  UNL     1      24.962   6.201  48.960  1.00  0.00    -0.258 OA
HETATM   15  H6  UNL     1      26.203   3.156  49.331  1.00  0.00     0.170 HD
BRANCH  13  16
HETATM   16  C4  UNL     1      27.191   5.507  48.669  1.00  0.00    -0.003 C 
HETATM   17  C3  UNL     1      28.366   5.703  48.382  1.00  0.00    -0.070 C 
BRANCH  17  18
HETATM   18  C2  UNL     1      29.766   5.922  48.020  1.00  0.00     0.261 C 
BRANCH  18  19
HETATM   19  O1  UNL     1      30.583   5.349  48.990  1.00  0.00    -0.384 OA
HETATM   20  C1  UNL     1      31.751   6.098  49.104  1.00  0.00     0.202 C 
ENDBRANCH  18  19
ENDBRANCH  17  18
ENDBRANCH  13  16
ENDBRANCH   1  12
BRANCH   9  21
HETATM   21  N3  UNL     1      24.157   1.115  53.405  1.00  0.00    -0.355 N 
HETATM   22  H13 UNL     1      23.994   1.699  54.252  1.00  0.00     0.166 HD
BRANCH  21  23
HETATM   23  C14 UNL     1      25.436   0.460  53.331  1.00  0.00     0.033 A 
HETATM   24  C15 UNL     1      25.609  -0.823  52.867  1.00  0.00     0.029 A 
HETATM   25  C16 UNL     1      26.876  -1.380  52.827  1.00  0.00     0.004 A 
HETATM   26  C17 UNL     1      27.998  -0.685  53.242  1.00  0.00     0.019 A 
HETATM   27  C18 UNL     1      27.854   0.610  53.714  1.00  0.00     0.013 A 
HETATM   28 BR1  UNL     1      29.369   1.607  54.297  1.00  0.00    -0.051 Br
HETATM   29  C19 UNL     1      26.587   1.140  53.743  1.00  0.00     0.048 A 
ENDBRANCH  21  23
ENDBRANCH   9  21
TORSDOF 6
ENDMDL
MODEL 2
REMARK VINA RESULT:      -8.2      3.642      6.288
REMARK  6 active torsions:
REMARK  status: ('A' for Active; 'I' for Inactive)
REMARK    1  A    between atoms: O1_2  and  C2_3 
REMARK    2  A    between atoms: C2_3  and  C3_4 
REMARK    3  A    between atoms: C4_5  and  C5_6 
REMARK       I    between atoms: C5_6  and  N1_8 
REMARK    4  A    between atoms: N1_8  and  C6_9 
REMARK    5  A    between atoms: C13_17  and  N3_18 
REMARK    6  A    between atoms: N3_18  and  C14_19 
ROOT
HETATM    1  C6  UNL     1      23.075  -0.368  53.815  1.00  0.00     0.036 A 
HETATM    2  C7  UNL     1      22.308  -1.100  54.699  1.00  0.00     0.032 A 
HETATM    3  C8  UNL     1      20.935  -1.279  54.510  1.00  0.00     0.035 A 
HETATM    4  C9  UNL     1      20.407  -0.674  53.385  1.00  0.00     0.069 A 
HETATM    5  N2  UNL     1      19.082  -0.856  53.216  1.00  0.00    -0.260 NA
HETATM    6  C10 UNL     1      18.496  -0.296  52.142  1.00  0.00     0.126 A 
HETATM    7  C11 UNL     1      19.180   0.441  51.222  1.00  0.00    -0.017 A 
HETATM    8  C12 UNL     1      18.515   1.049  50.045  1.00  0.00     0.052 C 
HETATM    9  C13 UNL     1      20.537   0.636  51.381  1.00  0.00     0.052 A 
HETATM   10  C20 UNL     1      21.144   0.064  52.482  1.00  0.00     0.022 A 
HETATM   11  C21 UNL     1      22.499   0.218  52.704  1.00  0.00     0.045 A 
ENDROOT
BRANCH   1  12
HETATM   12  N1  UNL     1      24.464  -0.250  54.105  1.00  0.00    -0.316 N 
HETATM   13  C5  UNL     1      25.417  -0.594  55.098  1.00  0.00     0.301 C 
HETATM   14  O2  UNL     1      25.140  -1.217  56.154  1.00  0.00    -0.258 OA
HETATM   15  H6  UNL     1      24.718   0.272  53.229  1.00  0.00     0.170 HD
BRANCH  13  16
HETATM   16  C4  UNL     1      26.772  -0.177  54.818  1.00  0.00    -0.003 C 
HETATM   17  C3  UNL     1      27.928   0.165  54.596  1.00  0.00    -0.070 C 
BRANCH  17  18
HETATM   18  C2  UNL     1      29.315   0.560  54.353  1.00  0.00     0.261 C 
BRANCH  18  19
HETATM   19  O1  UNL     1      29.434   1.936  54.533  1.00  0.00    -0.384 OA
HETATM   20  C1  UNL     1      28.652   2.590  53.585  1.00  0.00     0.202 C 
ENDBRANCH  18  19
ENDBRANCH  17  18
ENDBRANCH  13  16
ENDBRANCH   1  12
BRANCH   9  21
HETATM   21  N3  UNL     1      21.274   1.401  50.436  1.00  0.00    -0.355 N 
HETATM   22  H13 UNL     1      21.391   1.031  49.469  1.00  0.00     0.166 HD
BRANCH  21  23
HETATM   23  C14 UNL     1      21.891   2.673  50.701  1.00  0.00     0.033 A 
HETATM   24  C15 UNL     1      21.310   3.658  51.465  1.00  0.00     0.029 A 
HETATM   25  C16 UNL     1      21.972   4.856  51.671  1.00  0.00     0.004 A 
HETATM   26  C17 UNL     1      23.221   5.109  51.132  1.00  0.00     0.019 A 
HETATM   27  C18 UNL     1      23.831   4.134  50.358  1.00  0.00     0.013 A 
HETATM   28 BR1  UNL     1      25.550   4.434  49.593  1.00  0.00    -0.051 Br
HETATM   29  C19 UNL     1      23.153   2.954  50.167  1.00  0.00     0.048 A 
ENDBRANCH  21  23
ENDBRANCH   9  21
TORSDOF 6
ENDMDL
MODEL 3
REMARK VINA RESULT:      -8.1      2.525      4.631
REMARK  6 active torsions:
REMARK  status: ('A' for Active; 'I' for Inactive)
REMARK    1  A    between atoms: O1_2  and  C2_3 
REMARK    2  A    between atoms: C2_3  and  C3_4 
REMARK    3  A    between atoms: C4_5  and  C5_6 
REMARK       I    between atoms: C5_6  and  N1_8 
REMARK    4  A    between atoms: N1_8  and  C6_9 
REMARK    5  A    between atoms: C13_17  and  N3_18 
REMARK    6  A    between atoms: N3_18  and  C14_19 
ROOT
HETATM    1  C6  UNL     1      25.936   1.921  51.552  1.00  0.00     0.036 A 
HETATM    2  C7  UNL     1      26.794   1.026  52.158  1.00  0.00     0.032 A 
HETATM    3  C8  UNL     1      26.337   0.066  53.065  1.00  0.00     0.035 A 
HETATM    4  C9  UNL     1      24.975   0.080  53.307  1.00  0.00     0.069 A 
HETATM    5  N2  UNL     1      24.550  -0.852  54.183  1.00  0.00    -0.260 NA
HETATM    6  C10 UNL     1      23.236  -0.900  54.470  1.00  0.00     0.126 A 
HETATM    7  C11 UNL     1      22.323  -0.054  53.916  1.00  0.00    -0.017 A 
HETATM    8  C12 UNL     1      20.879  -0.124  54.245  1.00  0.00     0.052 C 
HETATM    9  C13 UNL     1      22.743   0.905  53.017  1.00  0.00     0.052 A 
HETATM   10  C20 UNL     1      24.091   0.960  52.719  1.00  0.00     0.022 A 
HETATM   11  C21 UNL     1      24.583   1.894  51.828  1.00  0.00     0.045 A 
ENDROOT
BRANCH   1  12
HETATM   12  N1  UNL     1      26.510   2.857  50.645  1.00  0.00    -0.316 N 
HETATM   13  C5  UNL     1      26.150   3.739  49.594  1.00  0.00     0.301 C 
HETATM   14  O2  UNL     1      24.975   3.890  49.172  1.00  0.00    -0.258 OA
HETATM   15  H6  UNL     1      27.499   2.747  50.981  1.00  0.00     0.170 HD
BRANCH  13  16
HETATM   16  C4  UNL     1      27.245   4.482  49.013  1.00  0.00    -0.003 C 
HETATM   17  C3  UNL     1      28.187   5.104  48.536  1.00  0.00    -0.070 C 
BRANCH  17  18
HETATM   18  C2  UNL     1      29.325   5.840  47.988  1.00  0.00     0.261 C 
BRANCH  18  19
HETATM   19  O1  UNL     1      30.475   5.492  48.690  1.00  0.00    -0.384 OA
HETATM   20  C1  UNL     1      31.233   6.636  48.924  1.00  0.00     0.202 C 
ENDBRANCH  18  19
ENDBRANCH  17  18
ENDBRANCH  13  16
ENDBRANCH   1  12
BRANCH   9  21
HETATM   21  N3  UNL     1      21.811   1.800  52.425  1.00  0.00    -0.355 N 
HETATM   22  H13 UNL     1      21.249   2.424  53.041  1.00  0.00     0.166 HD
BRANCH  21  23
HETATM   23  C14 UNL     1      21.566   1.925  51.012  1.00  0.00     0.033 A 
HETATM   24  C15 UNL     1      21.420   0.851  50.166  1.00  0.00     0.029 A 
HETATM   25  C16 UNL     1      21.185   1.058  48.818  1.00  0.00     0.004 A 
HETATM   26  C17 UNL     1      21.087   2.327  48.274  1.00  0.00     0.019 A 
HETATM   27  C18 UNL     1      21.229   3.428  49.104  1.00  0.00     0.013 A 
HETATM   28 BR1  UNL     1      21.102   5.195  48.403  1.00  0.00    -0.051 Br
HETATM   29  C19 UNL     1      21.462   3.196  50.437  1.00  0.00     0.048 A 
ENDBRANCH  21  23
ENDBRANCH   9  21
TORSDOF 6
ENDMDL
MODEL 4
REMARK VINA RESULT:      -8.0      4.306      8.706
REMARK  6 active torsions:
REMARK  status: ('A' for Active; 'I' for Inactive)
REMARK    1  A    between atoms: O1_2  and  C2_3 
REMARK    2  A    between atoms: C2_3  and  C3_4 
REMARK    3  A    between atoms: C4_5  and  C5_6 
REMARK       I    between atoms: C5_6  and  N1_8 
REMARK    4  A    between atoms: N1_8  and  C6_9 
REMARK    5  A    between atoms: C13_17  and  N3_18 
REMARK    6  A    between atoms: N3_18  and  C14_19 
ROOT
HETATM    1  C6  UNL     1      21.485  -0.580  53.665  1.00  0.00     0.036 A 
HETATM    2  C7  UNL     1      21.773  -1.327  54.791  1.00  0.00     0.032 A 
HETATM    3  C8  UNL     1      23.077  -1.447  55.281  1.00  0.00     0.035 A 
HETATM    4  C9  UNL     1      24.046  -0.772  54.562  1.00  0.00     0.069 A 
HETATM    5  N2  UNL     1      25.297  -0.897  55.046  1.00  0.00    -0.260 NA
HETATM    6  C10 UNL     1      26.295  -0.268  54.399  1.00  0.00     0.126 A 
HETATM    7  C11 UNL     1      26.096   0.487  53.282  1.00  0.00    -0.017 A 
HETATM    8  C12 UNL     1      27.209   1.174  52.584  1.00  0.00     0.052 C 
HETATM    9  C13 UNL     1      24.820   0.626  52.774  1.00  0.00     0.052 A 
HETATM   10  C20 UNL     1      23.792  -0.019  53.434  1.00  0.00     0.022 A 
HETATM   11  C21 UNL     1      22.490   0.076  52.982  1.00  0.00     0.045 A 
ENDROOT
BRANCH   1  12
HETATM   12  N1  UNL     1      20.123  -0.527  53.255  1.00  0.00    -0.316 N 
HETATM   13  C5  UNL     1      19.313  -0.107  52.168  1.00  0.00     0.301 C 
HETATM   14  O2  UNL     1      19.762   0.418  51.117  1.00  0.00    -0.258 OA
HETATM   15  H6  UNL     1      19.726  -0.964  54.124  1.00  0.00     0.170 HD
BRANCH  13  16
HETATM   16  C4  UNL     1      17.895  -0.326  52.339  1.00  0.00    -0.003 C 
HETATM   17  C3  UNL     1      16.688  -0.494  52.474  1.00  0.00    -0.070 C 
BRANCH  17  18
HETATM   18  C2  UNL     1      15.245  -0.670  52.626  1.00  0.00     0.261 C 
BRANCH  18  19
HETATM   19  O1  UNL     1      14.734   0.381  53.383  1.00  0.00    -0.384 OA
HETATM   20  C1  UNL     1      14.790   1.553  52.633  1.00  0.00     0.202 C 
ENDBRANCH  18  19
ENDBRANCH  17  18
ENDBRANCH  13  16
ENDBRANCH   1  12
BRANCH   9  21
HETATM   21  N3  UNL     1      24.585   1.408  51.611  1.00  0.00    -0.355 N 
HETATM   22  H13 UNL     1      24.675   0.960  50.675  1.00  0.00     0.166 HD
BRANCH  21  23
HETATM   23  C14 UNL     1      24.227   2.802  51.608  1.00  0.00     0.033 A 
HETATM   24  C15 UNL     1      23.897   3.506  52.743  1.00  0.00     0.029 A 
HETATM   25  C16 UNL     1      23.564   4.846  52.653  1.00  0.00     0.004 A 
HETATM   26  C17 UNL     1      23.549   5.522  51.446  1.00  0.00     0.019 A 
HETATM   27  C18 UNL     1      23.878   4.838  50.287  1.00  0.00     0.013 A 
HETATM   28 BR1  UNL     1      23.873   5.724  48.600  1.00  0.00    -0.051 Br
HETATM   29  C19 UNL     1      24.205   3.509  50.401  1.00  0.00     0.048 A 
ENDBRANCH  21  23
ENDBRANCH   9  21
TORSDOF 6
ENDMDL
MODEL 5
REMARK VINA RESULT:      -7.9      2.988      5.110
REMARK  6 active torsions:
REMARK  status: ('A' for Active; 'I' for Inactive)
REMARK    1  A    between atoms: O1_2  and  C2_3 
REMARK    2  A    between atoms: C2_3  and  C3_4 
REMARK    3  A    between atoms: C4_5  and  C5_6 
REMARK       I    between atoms: C5_6  and  N1_8 
REMARK    4  A    between atoms: N1_8  and  C6_9 
REMARK    5  A    between atoms: C13_17  and  N3_18 
REMARK    6  A    between atoms: N3_18  and  C14_19 
ROOT
HETATM    1  C6  UNL     1      26.326   2.013  52.024  1.00  0.00     0.036 A 
HETATM    2  C7  UNL     1      27.221   1.797  53.052  1.00  0.00     0.032 A 
HETATM    3  C8  UNL     1      26.926   0.944  54.120  1.00  0.00     0.035 A 
HETATM    4  C9  UNL     1      25.683   0.340  54.069  1.00  0.00     0.069 A 
HETATM    5  N2  UNL     1      25.413  -0.480  55.104  1.00  0.00    -0.260 NA
HETATM    6  C10 UNL     1      24.221  -1.105  55.126  1.00  0.00     0.126 A 
HETATM    7  C11 UNL     1      23.282  -0.946  54.151  1.00  0.00    -0.017 A 
HETATM    8  C12 UNL     1      21.975  -1.645  54.193  1.00  0.00     0.052 C 
HETATM    9  C13 UNL     1      23.544  -0.111  53.085  1.00  0.00     0.052 A 
HETATM   10  C20 UNL     1      24.766   0.534  53.058  1.00  0.00     0.022 A 
HETATM   11  C21 UNL     1      25.096   1.385  52.021  1.00  0.00     0.045 A 
ENDROOT
BRANCH   1  12
HETATM   12  N1  UNL     1      26.731   2.903  50.989  1.00  0.00    -0.316 N 
HETATM   13  C5  UNL     1      26.242   3.514  49.805  1.00  0.00     0.301 C 
HETATM   14  O2  UNL     1      25.083   3.339  49.349  1.00  0.00    -0.258 OA
HETATM   15  H6  UNL     1      27.703   3.063  51.352  1.00  0.00     0.170 HD
BRANCH  13  16
HETATM   16  C4  UNL     1      27.181   4.381  49.130  1.00  0.00    -0.003 C 
HETATM   17  C3  UNL     1      27.981   5.126  48.576  1.00  0.00    -0.070 C 
BRANCH  17  18
HETATM   18  C2  UNL     1      28.935   6.029  47.936  1.00  0.00     0.261 C 
BRANCH  18  19
HETATM   19  O1  UNL     1      30.162   5.933  48.587  1.00  0.00    -0.384 OA
HETATM   20  C1  UNL     1      31.116   5.448  47.696  1.00  0.00     0.202 C 
ENDBRANCH  18  19
ENDBRANCH  17  18
ENDBRANCH  13  16
ENDBRANCH   1  12
BRANCH   9  21
HETATM   21  N3  UNL     1      22.582   0.072  52.055  1.00  0.00    -0.355 N 
HETATM   22  H13 UNL     1      22.626  -0.535  51.209  1.00  0.00     0.166 HD
BRANCH  21  23
HETATM   23  C14 UNL     1      21.523   1.047  52.073  1.00  0.00     0.033 A 
HETATM   24  C15 UNL     1      21.716   2.375  52.376  1.00  0.00     0.029 A 
HETATM   25  C16 UNL     1      20.643   3.249  52.370  1.00  0.00     0.004 A 
HETATM   26  C17 UNL     1      19.358   2.835  52.064  1.00  0.00     0.019 A 
HETATM   27  C18 UNL     1      19.135   1.503  51.754  1.00  0.00     0.013 A 
HETATM   28 BR1  UNL     1      17.385   0.885  51.326  1.00  0.00    -0.051 Br
HETATM   29  C19 UNL     1      20.216   0.656  51.767  1.00  0.00     0.048 A 
ENDBRANCH  21  23
ENDBRANCH   9  21
TORSDOF 6
ENDMDL
MODEL 6
REMARK VINA RESULT:      -7.8      1.866      2.438
REMARK  6 active torsions:
REMARK  status: ('A' for Active; 'I' for Inactive)
REMARK    1  A    between atoms: O1_2  and  C2_3 
REMARK    2  A    between atoms: C2_3  and  C3_4 
REMARK    3  A    between atoms: C4_5  and  C5_6 
REMARK       I    between atoms: C5_6  and  N1_8 
REMARK    4  A    between atoms: N1_8  and  C6_9 
REMARK    5  A    between atoms: C13_17  and  N3_18 
REMARK    6  A    between atoms: N3_18  and  C14_19 
ROOT
HETATM    1  C6  UNL     1      25.439   5.222  49.976  1.00  0.00     0.036 A 
HETATM    2  C7  UNL     1      24.670   6.363  50.089  1.00  0.00     0.032 A 
HETATM    3  C8  UNL     1      23.402   6.341  50.678  1.00  0.00     0.035 A 
HETATM    4  C9  UNL     1      22.980   5.104  51.132  1.00  0.00     0.069 A 
HETATM    5  N2  UNL     1      21.756   5.099  51.696  1.00  0.00    -0.260 NA
HETATM    6  C10 UNL     1      21.277   3.931  52.162  1.00  0.00     0.126 A 
HETATM    7  C11 UNL     1      21.972   2.760  52.088  1.00  0.00    -0.017 A 
HETATM    8  C12 UNL     1      21.426   1.484  52.608  1.00  0.00     0.052 C 
HETATM    9  C13 UNL     1      23.226   2.750  51.513  1.00  0.00     0.052 A 
HETATM   10  C20 UNL     1      23.723   3.947  51.033  1.00  0.00     0.022 A 
HETATM   11  C21 UNL     1      24.972   4.010  50.445  1.00  0.00     0.045 A 
ENDROOT
BRANCH   1  12
HETATM   12  N1  UNL     1      26.715   5.360  49.359  1.00  0.00    -0.316 N 
HETATM   13  C5  UNL     1      27.404   6.167  48.417  1.00  0.00     0.301 C 
HETATM   14  O2  UNL     1      26.888   7.142  47.813  1.00  0.00    -0.258 OA
HETATM   15  H6  UNL     1      27.167   4.550  49.852  1.00  0.00     0.170 HD
BRANCH  13  16
HETATM   16  C4  UNL     1      28.781   5.797  48.183  1.00  0.00    -0.003 C 
HETATM   17  C3  UNL     1      29.943   5.468  47.971  1.00  0.00    -0.070 C 
BRANCH  17  18
HETATM   18  C2  UNL     1      31.320   5.057  47.703  1.00  0.00     0.261 C 
BRANCH  18  19
HETATM   19  O1  UNL     1      32.029   5.031  48.900  1.00  0.00    -0.384 OA
HETATM   20  C1  UNL     1      33.195   5.778  48.757  1.00  0.00     0.202 C 
ENDBRANCH  18  19
ENDBRANCH  17  18
ENDBRANCH  13  16
ENDBRANCH   1  12
BRANCH   9  21
HETATM   21  N3  UNL     1      23.972   1.543  51.424  1.00  0.00    -0.355 N 
HETATM   22  H13 UNL     1      23.867   0.946  50.577  1.00  0.00     0.166 HD
BRANCH  21  23
HETATM   23  C14 UNL     1      24.882   1.056  52.427  1.00  0.00     0.033 A 
HETATM   24  C15 UNL     1      24.622  -0.032  53.228  1.00  0.00     0.029 A 
HETATM   25  C16 UNL     1      25.553  -0.437  54.169  1.00  0.00     0.004 A 
HETATM   26  C17 UNL     1      26.759   0.219  54.341  1.00  0.00     0.019 A 
HETATM   27  C18 UNL     1      27.047   1.318  53.547  1.00  0.00     0.013 A 
HETATM   28 BR1  UNL     1      28.694   2.255  53.746  1.00  0.00    -0.051 Br
HETATM   29  C19 UNL     1      26.108   1.700  52.621  1.00  0.00     0.048 A 
ENDBRANCH  21  23
ENDBRANCH   9  21
TORSDOF 6
ENDMDL
MODEL 7
REMARK VINA RESULT:      -7.5      2.240      2.863
REMARK  6 active torsions:
REMARK  status: ('A' for Active; 'I' for Inactive)
REMARK    1  A    between atoms: O1_2  and  C2_3 
REMARK    2  A    between atoms: C2_3  and  C3_4 
REMARK    3  A    between atoms: C4_5  and  C5_6 
REMARK       I    between atoms: C5_6  and  N1_8 
REMARK    4  A    between atoms: N1_8  and  C6_9 
REMARK    5  A    between atoms: C13_17  and  N3_18 
REMARK    6  A    between atoms: N3_18  and  C14_19 
ROOT
HETATM    1  C6  UNL     1      25.363   5.258  50.048  1.00  0.00     0.036 A 
HETATM    2  C7  UNL     1      24.228   5.993  50.326  1.00  0.00     0.032 A 
HETATM    3  C8  UNL     1      23.170   5.461  51.070  1.00  0.00     0.035 A 
HETATM    4  C9  UNL     1      23.345   4.158  51.502  1.00  0.00     0.069 A 
HETATM    5  N2  UNL     1      22.318   3.660  52.218  1.00  0.00    -0.260 NA
HETATM    6  C10 UNL     1      22.414   2.397  52.672  1.00  0.00     0.126 A 
HETATM    7  C11 UNL     1      23.499   1.605  52.441  1.00  0.00    -0.017 A 
HETATM    8  C12 UNL     1      23.586   0.216  52.951  1.00  0.00     0.052 C 
HETATM    9  C13 UNL     1      24.559   2.102  51.710  1.00  0.00     0.052 A 
HETATM   10  C20 UNL     1      24.465   3.398  51.241  1.00  0.00     0.022 A 
HETATM   11  C21 UNL     1      25.488   3.960  50.501  1.00  0.00     0.045 A 
ENDROOT
BRANCH   1  12
HETATM   12  N1  UNL     1      26.378   5.899  49.281  1.00  0.00    -0.316 N 
HETATM   13  C5  UNL     1      27.587   5.617  48.595  1.00  0.00     0.301 C 
HETATM   14  O2  UNL     1      28.104   4.473  48.521  1.00  0.00    -0.258 OA
HETATM   15  H6  UNL     1      25.963   6.864  49.330  1.00  0.00     0.170 HD
BRANCH  13  16
HETATM   16  C4  UNL     1      28.212   6.755  47.961  1.00  0.00    -0.003 C 
HETATM   17  C3  UNL     1      28.744   7.729  47.442  1.00  0.00    -0.070 C 
BRANCH  17  18
HETATM   18  C2  UNL     1      29.377   8.905  46.845  1.00  0.00     0.261 C 
BRANCH  18  19
HETATM   19  O1  UNL     1      30.606   9.123  47.462  1.00  0.00    -0.384 OA
HETATM   20  C1  UNL     1      30.537  10.290  48.217  1.00  0.00     0.202 C 
ENDBRANCH  18  19
ENDBRANCH  17  18
ENDBRANCH  13  16
ENDBRANCH   1  12
BRANCH   9  21
HETATM   21  N3  UNL     1      25.703   1.297  51.456  1.00  0.00    -0.355 N 
HETATM   22  H13 UNL     1      25.723   0.705  50.599  1.00  0.00     0.166 HD
BRANCH  21  23
HETATM   23  C14 UNL     1      26.867   1.222  52.298  1.00  0.00     0.033 A 
HETATM   24  C15 UNL     1      27.409   2.307  52.947  1.00  0.00     0.029 A 
HETATM   25  C16 UNL     1      28.532   2.148  53.741  1.00  0.00     0.004 A 
HETATM   26  C17 UNL     1      29.144   0.920  53.914  1.00  0.00     0.019 A 
HETATM   27  C18 UNL     1      28.619  -0.191  53.272  1.00  0.00     0.013 A 
HETATM   28 BR1  UNL     1      29.426  -1.905  53.477  1.00  0.00    -0.051 Br
HETATM   29  C19 UNL     1      27.505  -0.008  52.490  1.00  0.00     0.048 A 
ENDBRANCH  21  23
ENDBRANCH   9  21
TORSDOF 6
ENDMDL
MODEL 8
REMARK VINA RESULT:      -7.4      2.073      2.386
REMARK  6 active torsions:
REMARK  status: ('A' for Active; 'I' for Inactive)
REMARK    1  A    between atoms: O1_2  and  C2_3 
REMARK    2  A    between atoms: C2_3  and  C3_4 
REMARK    3  A    between atoms: C4_5  and  C5_6 
REMARK       I    between atoms: C5_6  and  N1_8 
REMARK    4  A    between atoms: N1_8  and  C6_9 
REMARK    5  A    between atoms: C13_17  and  N3_18 
REMARK    6  A    between atoms: N3_18  and  C14_19 
ROOT
HETATM    1  C6  UNL     1      23.648   4.356  50.630  1.00  0.00     0.036 A 
HETATM    2  C7  UNL     1      22.582   5.225  50.749  1.00  0.00     0.032 A 
HETATM    3  C8  UNL     1      21.391   4.848  51.378  1.00  0.00     0.035 A 
HETATM    4  C9  UNL     1      21.362   3.555  51.866  1.00  0.00     0.069 A 
HETATM    5  N2  UNL     1      20.208   3.207  52.470  1.00  0.00    -0.260 NA
HETATM    6  C10 UNL     1      20.103   1.962  52.970  1.00  0.00     0.126 A 
HETATM    7  C11 UNL     1      21.108   1.044  52.894  1.00  0.00    -0.017 A 
HETATM    8  C12 UNL     1      20.973  -0.322  53.453  1.00  0.00     0.052 C 
HETATM    9  C13 UNL     1      22.295   1.386  52.279  1.00  0.00     0.052 A 
HETATM   10  C20 UNL     1      22.408   2.662  51.763  1.00  0.00     0.022 A 
HETATM   11  C21 UNL     1      23.568   3.073  51.135  1.00  0.00     0.045 A 
ENDROOT
BRANCH   1  12
HETATM   12  N1  UNL     1      24.811   4.845  49.971  1.00  0.00    -0.316 N 
HETATM   13  C5  UNL     1      26.072   4.408  49.488  1.00  0.00     0.301 C 
HETATM   14  O2  UNL     1      26.488   3.225  49.575  1.00  0.00    -0.258 OA
HETATM   15  H6  UNL     1      24.484   5.840  49.887  1.00  0.00     0.170 HD
BRANCH  13  16
HETATM   16  C4  UNL     1      26.879   5.433  48.866  1.00  0.00    -0.003 C 
HETATM   17  C3  UNL     1      27.566   6.290  48.322  1.00  0.00    -0.070 C 
BRANCH  17  18
HETATM   18  C2  UNL     1      28.390   7.296  47.653  1.00  0.00     0.261 C 
BRANCH  18  19
HETATM   19  O1  UNL     1      27.565   8.165  46.945  1.00  0.00    -0.384 OA
HETATM   20  C1  UNL     1      27.043   9.114  47.820  1.00  0.00     0.202 C 
ENDBRANCH  18  19
ENDBRANCH  17  18
ENDBRANCH  13  16
ENDBRANCH   1  12
BRANCH   9  21
HETATM   21  N3  UNL     1      23.359   0.447  52.187  1.00  0.00    -0.355 N 
HETATM   22  H13 UNL     1      23.369  -0.228  51.394  1.00  0.00     0.166 HD
BRANCH  21  23
HETATM   23  C14 UNL     1      24.453   0.340  53.117  1.00  0.00     0.033 A 
HETATM   24  C15 UNL     1      24.450  -0.504  54.202  1.00  0.00     0.029 A 
HETATM   25  C16 UNL     1      25.545  -0.547  55.049  1.00  0.00     0.004 A 
HETATM   26  C17 UNL     1      26.665   0.239  54.844  1.00  0.00     0.019 A 
HETATM   27  C18 UNL     1      26.695   1.100  53.757  1.00  0.00     0.013 A 
HETATM   28 BR1  UNL     1      28.214   2.203  53.433  1.00  0.00    -0.051 Br
HETATM   29  C19 UNL     1      25.597   1.124  52.933  1.00  0.00     0.048 A 
ENDBRANCH  21  23
ENDBRANCH   9  21
TORSDOF 6
ENDMDL
MODEL 9
REMARK VINA RESULT:      -7.3      3.598      7.600
REMARK  6 active torsions:
REMARK  status: ('A' for Active; 'I' for Inactive)
REMARK    1  A    between atoms: O1_2  and  C2_3 
REMARK    2  A    between atoms: C2_3  and  C3_4 
REMARK    3  A    between atoms: C4_5  and  C5_6 
REMARK       I    between atoms: C5_6  and  N1_8 
REMARK    4  A    between atoms: N1_8  and  C6_9 
REMARK    5  A    between atoms: C13_17  and  N3_18 
REMARK    6  A    between atoms: N3_18  and  C14_19 
ROOT
HETATM    1  C6  UNL     1      25.211   3.728  49.963  1.00  0.00     0.036 A 
HETATM    2  C7  UNL     1      23.957   3.600  49.399  1.00  0.00     0.032 A 
HETATM    3  C8  UNL     1      23.416   4.591  48.575  1.00  0.00     0.035 A 
HETATM    4  C9  UNL     1      24.221   5.696  48.369  1.00  0.00     0.069 A 
HETATM    5  N2  UNL     1      23.686   6.642  47.572  1.00  0.00    -0.260 NA
HETATM    6  C10 UNL     1      24.410   7.749  47.325  1.00  0.00     0.126 A 
HETATM    7  C11 UNL     1      25.655   7.952  47.842  1.00  0.00    -0.017 A 
HETATM    8  C12 UNL     1      26.438   9.179  47.556  1.00  0.00     0.052 C 
HETATM    9  C13 UNL     1      26.216   6.993  48.659  1.00  0.00     0.052 A 
HETATM   10  C20 UNL     1      25.477   5.855  48.917  1.00  0.00     0.022 A 
HETATM   11  C21 UNL     1      25.976   4.853  49.726  1.00  0.00     0.045 A 
ENDROOT
BRANCH   1  12
HETATM   12  N1  UNL     1      25.663   2.658  50.787  1.00  0.00    -0.316 N 
HETATM   13  C5  UNL     1      25.493   2.119  52.088  1.00  0.00     0.301 C 
HETATM   14  O2  UNL     1      24.727   2.608  52.958  1.00  0.00    -0.258 OA
HETATM   15  H6  UNL     1      26.309   2.233  50.075  1.00  0.00     0.170 HD
BRANCH  13  16
HETATM   16  C4  UNL     1      26.274   0.936  52.370  1.00  0.00    -0.003 C 
HETATM   17  C3  UNL     1      26.927  -0.069  52.626  1.00  0.00    -0.070 C 
BRANCH  17  18
HETATM   18  C2  UNL     1      27.696  -1.267  52.957  1.00  0.00     0.261 C 
BRANCH  18  19
HETATM   19  O1  UNL     1      28.505  -1.001  54.058  1.00  0.00    -0.384 OA
HETATM   20  C1  UNL     1      29.762  -0.597  53.616  1.00  0.00     0.202 C 
ENDBRANCH  18  19
ENDBRANCH  17  18
ENDBRANCH  13  16
ENDBRANCH   1  12
BRANCH   9  21
HETATM   21  N3  UNL     1      27.513   7.180  49.211  1.00  0.00    -0.355 N 
HETATM   22  H13 UNL     1      27.603   7.619  50.152  1.00  0.00     0.166 HD
BRANCH  21  23
HETATM   23  C14 UNL     1      28.748   6.812  48.569  1.00  0.00     0.033 A 
HETATM   24  C15 UNL     1      29.086   5.516  48.256  1.00  0.00     0.029 A 
HETATM   25  C16 UNL     1      30.295   5.247  47.638  1.00  0.00     0.004 A 
HETATM   26  C17 UNL     1      31.195   6.247  47.314  1.00  0.00     0.019 A 
HETATM   27  C18 UNL     1      30.880   7.562  47.618  1.00  0.00     0.013 A 
HETATM   28 BR1  UNL     1      32.086   8.974  47.193  1.00  0.00    -0.051 Br
HETATM   29  C19 UNL     1      29.675   7.803  48.231  1.00  0.00     0.048 A 
ENDBRANCH  21  23
ENDBRANCH   9  21
TORSDOF 6
ENDMDL
