MODEL 1
REMARK VINA RESULT:      -8.4      0.000      0.000
REMARK  4 active torsions:
REMARK  status: ('A' for Active; 'I' for Inactive)
REMARK    1  A    between atoms: O1_2  and  C2_3 
REMARK    2  A    between atoms: C6_7  and  N1_8 
REMARK    3  A    between atoms: N1_8  and  C7_9 
REMARK    4  A    between atoms: N2_17  and  C15_18 
ROOT
HETATM    1  N1  UNL     1      23.740   1.733  53.067  1.00  0.00    -0.340 N 
HETATM    2  H6  UNL     1      23.343   2.422  53.732  1.00  0.00     0.167 HD
ENDROOT
BRANCH   1   3
HETATM    3  C6  UNL     1      22.807   1.504  52.044  1.00  0.00     0.142 A 
HETATM    4  C5  UNL     1      21.636   0.866  52.373  1.00  0.00     0.039 A 
HETATM    5  C4  UNL     1      21.303   0.433  53.637  1.00  0.00     0.020 A 
HETATM    6  C17 UNL     1      20.704   0.628  51.369  1.00  0.00     0.074 A 
HETATM    7  C3  UNL     1      20.104  -0.202  53.889  1.00  0.00     0.038 A 
HETATM    8  C2  UNL     1      19.172  -0.443  52.909  1.00  0.00     0.070 A 
HETATM    9  C18 UNL     1      19.513  -0.008  51.650  1.00  0.00     0.069 A 
HETATM   10  N4  UNL     1      20.975   1.031  50.106  1.00  0.00    -0.241 NA
HETATM   11  C16 UNL     1      22.124   1.653  49.803  1.00  0.00     0.236 A 
HETATM   12  N3  UNL     1      23.016   1.877  50.772  1.00  0.00    -0.224 NA
BRANCH   8  13
HETATM   13  O1  UNL     1      17.989  -1.085  53.222  1.00  0.00    -0.356 OA
HETATM   14  C1  UNL     1      17.843  -2.416  53.600  1.00  0.00     0.210 C 
ENDBRANCH   8  13
ENDBRANCH   1   3
BRANCH   1  15
HETATM   15  C7  UNL     1      25.008   1.112  53.156  1.00  0.00     0.034 A 
HETATM   16  C8  UNL     1      25.069  -0.250  52.968  1.00  0.00     0.032 A 
HETATM   17  C9  UNL     1      26.311  -0.892  53.046  1.00  0.00     0.032 A 
HETATM   18  C10 UNL     1      27.435  -0.112  53.314  1.00  0.00     0.043 A 
HETATM   19  C11 UNL     1      27.375   1.257  53.504  1.00  0.00    -0.028 A 
HETATM   20  N2  UNL     1      28.811  -0.506  53.447  1.00  0.00    -0.324 N 
HETATM   21  C12 UNL     1      26.129   1.868  53.420  1.00  0.00     0.039 A 
HETATM   22  C13 UNL     1      28.718   1.813  53.767  1.00  0.00     0.061 C 
HETATM   23  C14 UNL     1      29.610   0.607  53.931  1.00  0.00     0.136 C 
BRANCH  20  24
HETATM   24  C15 UNL     1      29.343  -1.794  53.153  1.00  0.00     0.355 C 
HETATM   25  O2  UNL     1      28.888  -2.899  53.547  1.00  0.00    -0.283 OA
ENDBRANCH  20  24
ENDBRANCH   1  15
TORSDOF 4
ENDMDL
MODEL 2
REMARK VINA RESULT:      -8.0      4.757      7.234
REMARK  4 active torsions:
REMARK  status: ('A' for Active; 'I' for Inactive)
REMARK    1  A    between atoms: O1_2  and  C2_3 
REMARK    2  A    between atoms: C6_7  and  N1_8 
REMARK    3  A    between atoms: N1_8  and  C7_9 
REMARK    4  A    between atoms: N2_17  and  C15_18 
ROOT
HETATM    1  N1  UNL     1      26.620   2.266  50.736  1.00  0.00    -0.340 N 
HETATM    2  H6  UNL     1      26.629   1.391  50.177  1.00  0.00     0.167 HD
ENDROOT
BRANCH   1   3
HETATM    3  C6  UNL     1      27.098   1.982  52.024  1.00  0.00     0.142 A 
HETATM    4  C5  UNL     1      26.347   1.153  52.821  1.00  0.00     0.039 A 
HETATM    5  C4  UNL     1      25.155   0.571  52.449  1.00  0.00     0.020 A 
HETATM    6  C17 UNL     1      26.805   0.867  54.102  1.00  0.00     0.074 A 
HETATM    7  C3  UNL     1      24.457  -0.254  53.308  1.00  0.00     0.038 A 
HETATM    8  C2  UNL     1      24.897  -0.547  54.576  1.00  0.00     0.070 A 
HETATM    9  C18 UNL     1      26.087   0.039  54.938  1.00  0.00     0.069 A 
HETATM   10  N4  UNL     1      27.971   1.409  54.524  1.00  0.00    -0.241 NA
HETATM   11  C16 UNL     1      28.691   2.217  53.732  1.00  0.00     0.236 A 
HETATM   12  N3  UNL     1      28.245   2.489  52.502  1.00  0.00    -0.224 NA
BRANCH   8  13
HETATM   13  O1  UNL     1      24.154  -1.380  55.391  1.00  0.00    -0.356 OA
HETATM   14  C1  UNL     1      22.768  -1.501  55.408  1.00  0.00     0.210 C 
ENDBRANCH   8  13
ENDBRANCH   1   3
BRANCH   1  15
HETATM   15  C7  UNL     1      26.198   3.541  50.294  1.00  0.00     0.034 A 
HETATM   16  C8  UNL     1      26.956   4.170  49.333  1.00  0.00     0.032 A 
HETATM   17  C9  UNL     1      26.562   5.431  48.871  1.00  0.00     0.032 A 
HETATM   18  C10 UNL     1      25.409   5.994  49.415  1.00  0.00     0.043 A 
HETATM   19  C11 UNL     1      24.645   5.365  50.382  1.00  0.00    -0.028 A 
HETATM   20  N2  UNL     1      24.786   7.258  49.129  1.00  0.00    -0.324 N 
HETATM   21  C12 UNL     1      25.060   4.113  50.821  1.00  0.00     0.039 A 
HETATM   22  C13 UNL     1      23.486   6.197  50.764  1.00  0.00     0.061 C 
HETATM   23  C14 UNL     1      23.719   7.522  50.080  1.00  0.00     0.136 C 
BRANCH  20  24
HETATM   24  C15 UNL     1      25.141   8.145  48.073  1.00  0.00     0.355 C 
HETATM   25  O2  UNL     1      24.764   9.338  47.940  1.00  0.00    -0.283 OA
ENDBRANCH  20  24
ENDBRANCH   1  15
TORSDOF 4
ENDMDL
MODEL 3
REMARK VINA RESULT:      -8.0      5.210      7.754
REMARK  4 active torsions:
REMARK  status: ('A' for Active; 'I' for Inactive)
REMARK    1  A    between atoms: O1_2  and  C2_3 
REMARK    2  A    between atoms: C6_7  and  N1_8 
REMARK    3  A    between atoms: N1_8  and  C7_9 
REMARK    4  A    between atoms: N2_17  and  C15_18 
ROOT
HETATM    1  N1  UNL     1      25.209   3.515  49.717  1.00  0.00    -0.340 N 
HETATM    2  H6  UNL     1      25.045   3.239  48.731  1.00  0.00     0.167 HD
ENDROOT
BRANCH   1   3
HETATM    3  C6  UNL     1      25.276   4.914  49.789  1.00  0.00     0.142 A 
HETATM    4  C5  UNL     1      26.394   5.531  49.283  1.00  0.00     0.039 A 
HETATM    5  C4  UNL     1      27.459   4.879  48.704  1.00  0.00     0.020 A 
HETATM    6  C17 UNL     1      26.476   6.918  49.352  1.00  0.00     0.074 A 
HETATM    7  C3  UNL     1      28.550   5.572  48.217  1.00  0.00     0.038 A 
HETATM    8  C2  UNL     1      28.646   6.940  48.276  1.00  0.00     0.070 A 
HETATM    9  C18 UNL     1      27.578   7.583  48.856  1.00  0.00     0.069 A 
HETATM   10  N4  UNL     1      25.459   7.614  49.910  1.00  0.00    -0.241 NA
HETATM   11  C16 UNL     1      24.375   6.994  50.399  1.00  0.00     0.236 A 
HETATM   12  N3  UNL     1      24.302   5.662  50.331  1.00  0.00    -0.224 NA
BRANCH   8  13
HETATM   13  O1  UNL     1      29.764   7.578  47.772  1.00  0.00    -0.356 OA
HETATM   14  C1  UNL     1      30.817   8.109  48.509  1.00  0.00     0.210 C 
ENDBRANCH   8  13
ENDBRANCH   1   3
BRANCH   1  15
HETATM   15  C7  UNL     1      25.348   2.642  50.822  1.00  0.00     0.034 A 
HETATM   16  C8  UNL     1      24.203   2.099  51.358  1.00  0.00     0.032 A 
HETATM   17  C9  UNL     1      24.309   1.228  52.449  1.00  0.00     0.032 A 
HETATM   18  C10 UNL     1      25.582   0.952  52.944  1.00  0.00     0.043 A 
HETATM   19  C11 UNL     1      26.735   1.497  52.407  1.00  0.00    -0.028 A 
HETATM   20  N2  UNL     1      25.974   0.107  54.038  1.00  0.00    -0.324 N 
HETATM   21  C12 UNL     1      26.600   2.358  51.324  1.00  0.00     0.039 A 
HETATM   22  C13 UNL     1      27.931   1.024  53.133  1.00  0.00     0.061 C 
HETATM   23  C14 UNL     1      27.388   0.279  54.328  1.00  0.00     0.136 C 
BRANCH  20  24
HETATM   24  C15 UNL     1      25.123  -0.783  54.754  1.00  0.00     0.355 C 
HETATM   25  O2  UNL     1      25.271  -1.161  55.945  1.00  0.00    -0.283 OA
ENDBRANCH  20  24
ENDBRANCH   1  15
TORSDOF 4
ENDMDL
MODEL 4
REMARK VINA RESULT:      -8.0      5.581      6.950
REMARK  4 active torsions:
REMARK  status: ('A' for Active; 'I' for Inactive)
REMARK    1  A    between atoms: O1_2  and  C2_3 
REMARK    2  A    between atoms: C6_7  and  N1_8 
REMARK    3  A    between atoms: N1_8  and  C7_9 
REMARK    4  A    between atoms: N2_17  and  C15_18 
ROOT
HETATM    1  N1  UNL     1      25.753   3.157  49.863  1.00  0.00    -0.340 N 
HETATM    2  H6  UNL     1      25.184   2.519  49.274  1.00  0.00     0.167 HD
ENDROOT
BRANCH   1   3
HETATM    3  C6  UNL     1      26.058   2.506  51.068  1.00  0.00     0.142 A 
HETATM    4  C5  UNL     1      25.054   1.809  51.695  1.00  0.00     0.039 A 
HETATM    5  C4  UNL     1      23.763   1.696  51.227  1.00  0.00     0.020 A 
HETATM    6  C17 UNL     1      25.340   1.162  52.892  1.00  0.00     0.074 A 
HETATM    7  C3  UNL     1      22.807   0.976  51.915  1.00  0.00     0.038 A 
HETATM    8  C2  UNL     1      23.074   0.331  53.098  1.00  0.00     0.070 A 
HETATM    9  C18 UNL     1      24.365   0.450  53.557  1.00  0.00     0.069 A 
HETATM   10  N4  UNL     1      26.591   1.237  53.401  1.00  0.00    -0.241 NA
HETATM   11  C16 UNL     1      27.560   1.922  52.775  1.00  0.00     0.236 A 
HETATM   12  N3  UNL     1      27.278   2.542  51.625  1.00  0.00    -0.224 NA
BRANCH   8  13
HETATM   13  O1  UNL     1      22.076  -0.374  53.743  1.00  0.00    -0.356 OA
HETATM   14  C1  UNL     1      22.223  -1.174  54.871  1.00  0.00     0.210 C 
ENDBRANCH   8  13
ENDBRANCH   1   3
BRANCH   1  15
HETATM   15  C7  UNL     1      26.162   4.469  49.528  1.00  0.00     0.034 A 
HETATM   16  C8  UNL     1      25.362   5.512  49.933  1.00  0.00     0.032 A 
HETATM   17  C9  UNL     1      25.743   6.823  49.621  1.00  0.00     0.032 A 
HETATM   18  C10 UNL     1      26.927   7.007  48.907  1.00  0.00     0.043 A 
HETATM   19  C11 UNL     1      27.733   5.959  48.499  1.00  0.00    -0.028 A 
HETATM   20  N2  UNL     1      27.545   8.225  48.460  1.00  0.00    -0.324 N 
HETATM   21  C12 UNL     1      27.330   4.669  48.823  1.00  0.00     0.039 A 
HETATM   22  C13 UNL     1      28.916   6.456  47.768  1.00  0.00     0.061 C 
HETATM   23  C14 UNL     1      28.660   7.931  47.575  1.00  0.00     0.136 C 
BRANCH  20  24
HETATM   24  C15 UNL     1      27.145   9.545  48.816  1.00  0.00     0.355 C 
HETATM   25  O2  UNL     1      27.611  10.239  49.757  1.00  0.00    -0.283 OA
ENDBRANCH  20  24
ENDBRANCH   1  15
TORSDOF 4
ENDMDL
MODEL 5
REMARK VINA RESULT:      -7.7      5.813      7.700
REMARK  4 active torsions:
REMARK  status: ('A' for Active; 'I' for Inactive)
REMARK    1  A    between atoms: O1_2  and  C2_3 
REMARK    2  A    between atoms: C6_7  and  N1_8 
REMARK    3  A    between atoms: N1_8  and  C7_9 
REMARK    4  A    between atoms: N2_17  and  C15_18 
ROOT
HETATM    1  N1  UNL     1      25.445   4.121  49.353  1.00  0.00    -0.340 N 
HETATM    2  H6  UNL     1      25.012   3.428  48.714  1.00  0.00     0.167 HD
ENDROOT
BRANCH   1   3
HETATM    3  C6  UNL     1      24.918   3.939  50.640  1.00  0.00     0.142 A 
HETATM    4  C5  UNL     1      25.476   2.964  51.431  1.00  0.00     0.039 A 
HETATM    5  C4  UNL     1      26.522   2.150  51.057  1.00  0.00     0.020 A 
HETATM    6  C17 UNL     1      24.962   2.769  52.708  1.00  0.00     0.074 A 
HETATM    7  C3  UNL     1      27.029   1.191  51.911  1.00  0.00     0.038 A 
HETATM    8  C2  UNL     1      26.533   0.986  53.175  1.00  0.00     0.070 A 
HETATM    9  C18 UNL     1      25.489   1.804  53.539  1.00  0.00     0.069 A 
HETATM   10  N4  UNL     1      23.934   3.540  53.132  1.00  0.00    -0.241 NA
HETATM   11  C16 UNL     1      23.402   4.488  52.346  1.00  0.00     0.236 A 
HETATM   12  N3  UNL     1      23.900   4.670  51.120  1.00  0.00    -0.224 NA
BRANCH   8  13
HETATM   13  O1  UNL     1      27.082   0.009  53.984  1.00  0.00    -0.356 OA
HETATM   14  C1  UNL     1      28.205   0.141  54.795  1.00  0.00     0.210 C 
ENDBRANCH   8  13
ENDBRANCH   1   3
BRANCH   1  15
HETATM   15  C7  UNL     1      26.406   5.099  49.005  1.00  0.00     0.034 A 
HETATM   16  C8  UNL     1      26.016   6.419  49.031  1.00  0.00     0.032 A 
HETATM   17  C9  UNL     1      26.947   7.410  48.696  1.00  0.00     0.032 A 
HETATM   18  C10 UNL     1      28.235   7.006  48.349  1.00  0.00     0.043 A 
HETATM   19  C11 UNL     1      28.629   5.681  48.321  1.00  0.00    -0.028 A 
HETATM   20  N2  UNL     1      29.370   7.801  47.967  1.00  0.00    -0.324 N 
HETATM   21  C12 UNL     1      27.684   4.718  48.659  1.00  0.00     0.039 A 
HETATM   22  C13 UNL     1      30.046   5.558  47.921  1.00  0.00     0.061 C 
HETATM   23  C14 UNL     1      30.447   6.948  47.492  1.00  0.00     0.136 C 
BRANCH  20  24
HETATM   24  C15 UNL     1      29.457   9.221  48.034  1.00  0.00     0.355 C 
HETATM   25  O2  UNL     1      29.475   9.920  49.079  1.00  0.00    -0.283 OA
ENDBRANCH  20  24
ENDBRANCH   1  15
TORSDOF 4
ENDMDL
MODEL 6
REMARK VINA RESULT:      -7.6      7.192     11.125
REMARK  4 active torsions:
REMARK  status: ('A' for Active; 'I' for Inactive)
REMARK    1  A    between atoms: O1_2  and  C2_3 
REMARK    2  A    between atoms: C6_7  and  N1_8 
REMARK    3  A    between atoms: N1_8  and  C7_9 
REMARK    4  A    between atoms: N2_17  and  C15_18 
ROOT
HETATM    1  N1  UNL     1      28.491   6.600  47.724  1.00  0.00    -0.340 N 
HETATM    2  H6  UNL     1      28.543   6.635  46.689  1.00  0.00     0.167 HD
ENDROOT
BRANCH   1   3
HETATM    3  C6  UNL     1      29.622   7.238  48.255  1.00  0.00     0.142 A 
HETATM    4  C5  UNL     1      30.815   6.558  48.231  1.00  0.00     0.039 A 
HETATM    5  C4  UNL     1      30.989   5.291  47.719  1.00  0.00     0.020 A 
HETATM    6  C17 UNL     1      31.944   7.177  48.756  1.00  0.00     0.074 A 
HETATM    7  C3  UNL     1      32.223   4.673  47.730  1.00  0.00     0.038 A 
HETATM    8  C2  UNL     1      33.347   5.270  48.245  1.00  0.00     0.070 A 
HETATM    9  C18 UNL     1      33.164   6.535  48.754  1.00  0.00     0.069 A 
HETATM   10  N4  UNL     1      31.835   8.423  49.273  1.00  0.00    -0.241 NA
HETATM   11  C16 UNL     1      30.661   9.072  49.288  1.00  0.00     0.236 A 
HETATM   12  N3  UNL     1      29.580   8.472  48.782  1.00  0.00    -0.224 NA
BRANCH   8  13
HETATM   13  O1  UNL     1      34.556   4.601  48.229  1.00  0.00    -0.356 OA
HETATM   14  C1  UNL     1      34.799   3.342  47.688  1.00  0.00     0.210 C 
ENDBRANCH   8  13
ENDBRANCH   1   3
BRANCH   1  15
HETATM   15  C7  UNL     1      27.461   6.010  48.495  1.00  0.00     0.034 A 
HETATM   16  C8  UNL     1      26.421   6.815  48.898  1.00  0.00     0.032 A 
HETATM   17  C9  UNL     1      25.385   6.259  49.658  1.00  0.00     0.032 A 
HETATM   18  C10 UNL     1      25.460   4.902  49.972  1.00  0.00     0.043 A 
HETATM   19  C11 UNL     1      26.505   4.091  49.567  1.00  0.00    -0.028 A 
HETATM   20  N2  UNL     1      24.548   4.087  50.727  1.00  0.00    -0.324 N 
HETATM   21  C12 UNL     1      27.520   4.670  48.814  1.00  0.00     0.039 A 
HETATM   22  C13 UNL     1      26.313   2.706  50.044  1.00  0.00     0.061 C 
HETATM   23  C14 UNL     1      25.130   2.779  50.977  1.00  0.00     0.136 C 
BRANCH  20  24
HETATM   24  C15 UNL     1      23.255   4.477  51.178  1.00  0.00     0.355 C 
HETATM   25  O2  UNL     1      22.979   5.012  52.283  1.00  0.00    -0.283 OA
ENDBRANCH  20  24
ENDBRANCH   1  15
TORSDOF 4
ENDMDL
MODEL 7
REMARK VINA RESULT:      -7.5      3.345      7.132
REMARK  4 active torsions:
REMARK  status: ('A' for Active; 'I' for Inactive)
REMARK    1  A    between atoms: O1_2  and  C2_3 
REMARK    2  A    between atoms: C6_7  and  N1_8 
REMARK    3  A    between atoms: N1_8  and  C7_9 
REMARK    4  A    between atoms: N2_17  and  C15_18 
ROOT
HETATM    1  N1  UNL     1      22.017   0.199  51.513  1.00  0.00    -0.340 N 
HETATM    2  H6  UNL     1      21.885  -0.574  50.833  1.00  0.00     0.167 HD
ENDROOT
BRANCH   1   3
HETATM    3  C6  UNL     1      22.176  -0.351  52.795  1.00  0.00     0.142 A 
HETATM    4  C5  UNL     1      23.432  -0.338  53.349  1.00  0.00     0.039 A 
HETATM    5  C4  UNL     1      24.555   0.181  52.743  1.00  0.00     0.020 A 
HETATM    6  C17 UNL     1      23.605  -0.883  54.617  1.00  0.00     0.074 A 
HETATM    7  C3  UNL     1      25.786   0.158  53.367  1.00  0.00     0.038 A 
HETATM    8  C2  UNL     1      25.974  -0.376  54.618  1.00  0.00     0.070 A 
HETATM    9  C18 UNL     1      24.847  -0.891  55.216  1.00  0.00     0.069 A 
HETATM   10  N4  UNL     1      22.538  -1.407  55.263  1.00  0.00    -0.241 NA
HETATM   11  C16 UNL     1      21.318  -1.411  54.705  1.00  0.00     0.236 A 
HETATM   12  N3  UNL     1      21.158  -0.887  53.487  1.00  0.00    -0.224 NA
BRANCH   8  13
HETATM   13  O1  UNL     1      27.231  -0.371  55.192  1.00  0.00    -0.356 OA
HETATM   14  C1  UNL     1      28.378   0.216  54.667  1.00  0.00     0.210 C 
ENDBRANCH   8  13
ENDBRANCH   1   3
BRANCH   1  15
HETATM   15  C7  UNL     1      22.035   1.582  51.221  1.00  0.00     0.034 A 
HETATM   16  C8  UNL     1      21.367   2.427  52.077  1.00  0.00     0.032 A 
HETATM   17  C9  UNL     1      21.372   3.803  51.817  1.00  0.00     0.032 A 
HETATM   18  C10 UNL     1      22.059   4.253  50.691  1.00  0.00     0.043 A 
HETATM   19  C11 UNL     1      22.731   3.405  49.828  1.00  0.00    -0.028 A 
HETATM   20  N2  UNL     1      22.223   5.592  50.194  1.00  0.00    -0.324 N 
HETATM   21  C12 UNL     1      22.710   2.044  50.112  1.00  0.00     0.039 A 
HETATM   22  C13 UNL     1      23.365   4.163  48.730  1.00  0.00     0.061 C 
HETATM   23  C14 UNL     1      22.841   5.570  48.878  1.00  0.00     0.136 C 
BRANCH  20  24
HETATM   24  C15 UNL     1      21.844   6.787  50.870  1.00  0.00     0.355 C 
HETATM   25  O2  UNL     1      22.313   7.937  50.673  1.00  0.00    -0.283 OA
ENDBRANCH  20  24
ENDBRANCH   1  15
TORSDOF 4
ENDMDL
MODEL 8
REMARK VINA RESULT:      -7.4      5.480      8.160
REMARK  4 active torsions:
REMARK  status: ('A' for Active; 'I' for Inactive)
REMARK    1  A    between atoms: O1_2  and  C2_3 
REMARK    2  A    between atoms: C6_7  and  N1_8 
REMARK    3  A    between atoms: N1_8  and  C7_9 
REMARK    4  A    between atoms: N2_17  and  C15_18 
ROOT
HETATM    1  N1  UNL     1      25.024   4.060  49.107  1.00  0.00    -0.340 N 
HETATM    2  H6  UNL     1      24.769   3.846  48.125  1.00  0.00     0.167 HD
ENDROOT
BRANCH   1   3
HETATM    3  C6  UNL     1      25.134   5.452  49.252  1.00  0.00     0.142 A 
HETATM    4  C5  UNL     1      26.341   6.035  48.953  1.00  0.00     0.039 A 
HETATM    5  C4  UNL     1      27.457   5.357  48.515  1.00  0.00     0.020 A 
HETATM    6  C17 UNL     1      26.467   7.413  49.095  1.00  0.00     0.074 A 
HETATM    7  C3  UNL     1      28.637   6.016  48.234  1.00  0.00     0.038 A 
HETATM    8  C2  UNL     1      28.777   7.375  48.369  1.00  0.00     0.070 A 
HETATM    9  C18 UNL     1      27.658   8.045  48.806  1.00  0.00     0.069 A 
HETATM   10  N4  UNL     1      25.404   8.134  49.521  1.00  0.00    -0.241 NA
HETATM   11  C16 UNL     1      24.233   7.546  49.808  1.00  0.00     0.236 A 
HETATM   12  N3  UNL     1      24.119   6.222  49.670  1.00  0.00    -0.224 NA
BRANCH   8  13
HETATM   13  O1  UNL     1      29.984   7.980  48.072  1.00  0.00    -0.356 OA
HETATM   14  C1  UNL     1      31.053   7.405  47.392  1.00  0.00     0.210 C 
ENDBRANCH   8  13
ENDBRANCH   1   3
BRANCH   1  15
HETATM   15  C7  UNL     1      25.232   3.122  50.145  1.00  0.00     0.034 A 
HETATM   16  C8  UNL     1      26.524   2.730  50.405  1.00  0.00     0.032 A 
HETATM   17  C9  UNL     1      26.763   1.806  51.430  1.00  0.00     0.032 A 
HETATM   18  C10 UNL     1      25.666   1.324  52.143  1.00  0.00     0.043 A 
HETATM   19  C11 UNL     1      24.366   1.716  51.883  1.00  0.00    -0.028 A 
HETATM   20  N2  UNL     1      25.624   0.382  53.228  1.00  0.00    -0.324 N 
HETATM   21  C12 UNL     1      24.159   2.635  50.860  1.00  0.00     0.039 A 
HETATM   22  C13 UNL     1      23.418   1.044  52.796  1.00  0.00     0.061 C 
HETATM   23  C14 UNL     1      24.249   0.018  53.527  1.00  0.00     0.136 C 
BRANCH  20  24
HETATM   24  C15 UNL     1      26.750  -0.137  53.929  1.00  0.00     0.355 C 
HETATM   25  O2  UNL     1      26.830  -0.340  55.168  1.00  0.00    -0.283 OA
ENDBRANCH  20  24
ENDBRANCH   1  15
TORSDOF 4
ENDMDL
MODEL 9
REMARK VINA RESULT:      -7.4      1.330      2.003
REMARK  4 active torsions:
REMARK  status: ('A' for Active; 'I' for Inactive)
REMARK    1  A    between atoms: O1_2  and  C2_3 
REMARK    2  A    between atoms: C6_7  and  N1_8 
REMARK    3  A    between atoms: N1_8  and  C7_9 
REMARK    4  A    between atoms: N2_17  and  C15_18 
ROOT
HETATM    1  N1  UNL     1      22.912   2.535  52.257  1.00  0.00    -0.340 N 
HETATM    2  H6  UNL     1      22.541   3.469  52.515  1.00  0.00     0.167 HD
ENDROOT
BRANCH   1   3
HETATM    3  C6  UNL     1      21.984   1.894  51.423  1.00  0.00     0.142 A 
HETATM    4  C5  UNL     1      21.014   1.122  52.014  1.00  0.00     0.039 A 
HETATM    5  C4  UNL     1      20.880   0.929  53.371  1.00  0.00     0.020 A 
HETATM    6  C17 UNL     1      20.089   0.477  51.200  1.00  0.00     0.074 A 
HETATM    7  C3  UNL     1      19.876   0.136  53.890  1.00  0.00     0.038 A 
HETATM    8  C2  UNL     1      18.955  -0.507  53.100  1.00  0.00     0.070 A 
HETATM    9  C18 UNL     1      19.097  -0.308  51.747  1.00  0.00     0.069 A 
HETATM   10  N4  UNL     1      20.170   0.629  49.858  1.00  0.00    -0.241 NA
HETATM   11  C16 UNL     1      21.124   1.388  49.298  1.00  0.00     0.236 A 
HETATM   12  N3  UNL     1      22.010   2.004  50.086  1.00  0.00    -0.224 NA
BRANCH   8  13
HETATM   13  O1  UNL     1      17.973  -1.289  53.678  1.00  0.00    -0.356 OA
HETATM   14  C1  UNL     1      17.822  -2.665  53.539  1.00  0.00     0.210 C 
ENDBRANCH   8  13
ENDBRANCH   1   3
BRANCH   1  15
HETATM   15  C7  UNL     1      24.146   1.979  52.668  1.00  0.00     0.034 A 
HETATM   16  C8  UNL     1      24.977   2.760  53.438  1.00  0.00     0.032 A 
HETATM   17  C9  UNL     1      26.203   2.236  53.864  1.00  0.00     0.032 A 
HETATM   18  C10 UNL     1      26.525   0.934  53.482  1.00  0.00     0.043 A 
HETATM   19  C11 UNL     1      25.693   0.147  52.707  1.00  0.00    -0.028 A 
HETATM   20  N2  UNL     1      27.701   0.161  53.774  1.00  0.00    -0.324 N 
HETATM   21  C12 UNL     1      24.481   0.694  52.299  1.00  0.00     0.039 A 
HETATM   22  C13 UNL     1      26.295  -1.180  52.464  1.00  0.00     0.061 C 
HETATM   23  C14 UNL     1      27.702  -1.069  52.999  1.00  0.00     0.136 C 
BRANCH  20  24
HETATM   24  C15 UNL     1      28.733   0.520  54.687  1.00  0.00     0.355 C 
HETATM   25  O2  UNL     1      29.625   1.388  54.503  1.00  0.00    -0.283 OA
ENDBRANCH  20  24
ENDBRANCH   1  15
TORSDOF 4
ENDMDL
