MODEL 1
REMARK VINA RESULT:      -8.7      0.000      0.000
REMARK  3 active torsions:
REMARK  status: ('A' for Active; 'I' for Inactive)
REMARK    1  A    between atoms: C14_17  and  C15_18 
REMARK    2  A    between atoms: C15_18  and  C16_19 
REMARK       I    between atoms: C16_19  and  N2_21 
REMARK    3  A    between atoms: N2_21  and  C17_22 
ROOT
HETATM    1  C1  UNL     1      21.135  -0.945  54.222  1.00  0.00     0.038 C 
HETATM    2  C2  UNL     1      22.544  -0.586  53.976  1.00  0.00    -0.000 C 
HETATM    3  C3  UNL     1      23.300  -0.022  53.075  1.00  0.00     0.045 C 
HETATM    4  C4  UNL     1      24.707  -0.004  53.546  1.00  0.00     0.048 C 
HETATM    5  C5  UNL     1      26.017   0.064  53.864  1.00  0.00     0.042 C 
HETATM    6  C6  UNL     1      26.596  -0.390  55.105  1.00  0.00     0.252 C 
HETATM    7  O1  UNL     1      25.685  -0.804  55.839  1.00  0.00    -0.268 OA
HETATM    8  N1  UNL     1      27.979  -0.147  54.909  1.00  0.00    -0.353 N 
HETATM    9  C7  UNL     1      28.167  -0.275  53.439  1.00  0.00     0.162 C 
HETATM   10  C8  UNL     1      27.086   0.577  52.946  1.00  0.00    -0.025 C 
HETATM   11  C9  UNL     1      26.812   1.572  52.083  1.00  0.00     0.030 C 
HETATM   12  C10 UNL     1      25.571   2.272  51.939  1.00  0.00     0.166 C 
HETATM   13  F1  UNL     1      25.452   2.276  53.323  1.00  0.00    -0.234 F 
HETATM   14  C11 UNL     1      24.336   2.719  52.122  1.00  0.00     0.047 C 
HETATM   15  C12 UNL     1      23.534   3.667  51.319  1.00  0.00     0.067 C 
HETATM   16  C13 UNL     1      22.242   2.891  50.987  1.00  0.00     0.023 C 
HETATM   17  C14 UNL     1      20.994   3.246  50.960  1.00  0.00     0.009 C 
HETATM   18  N3  UNL     1      22.449   1.439  50.791  1.00  0.00    -0.305 N 
HETATM   19  N4  UNL     1      22.771   0.617  51.909  1.00  0.00    -0.301 N 
HETATM   20  H6  UNL     1      28.471   0.042  55.822  1.00  0.00     0.163 HD
HETATM   21  H22 UNL     1      22.340   1.145  49.806  1.00  0.00     0.186 HD
HETATM   22  H23 UNL     1      21.947  -0.023  51.683  1.00  0.00     0.187 HD
ENDROOT
BRANCH  17  23
HETATM   23  C15 UNL     1      20.505   4.611  51.276  1.00  0.00     0.132 C 
BRANCH  23  24
HETATM   24  C16 UNL     1      21.144   5.654  50.470  1.00  0.00     0.221 C 
HETATM   25  O2  UNL     1      21.229   5.745  49.209  1.00  0.00    -0.273 OA
HETATM   26  N2  UNL     1      21.743   6.698  51.257  1.00  0.00    -0.361 N 
HETATM   27  H16 UNL     1      21.752   6.761  52.304  1.00  0.00     0.162 HD
BRANCH  26  28
HETATM   28  C17 UNL     1      22.381   7.767  50.499  1.00  0.00     0.118 C 
HETATM   29  C18 UNL     1      23.855   7.804  50.711  1.00  0.00     0.026 C 
ENDBRANCH  26  28
ENDBRANCH  23  24
ENDBRANCH  17  23
TORSDOF 3
ENDMDL
MODEL 2
REMARK VINA RESULT:      -8.6      2.348      3.425
REMARK  3 active torsions:
REMARK  status: ('A' for Active; 'I' for Inactive)
REMARK    1  A    between atoms: C14_17  and  C15_18 
REMARK    2  A    between atoms: C15_18  and  C16_19 
REMARK       I    between atoms: C16_19  and  N2_21 
REMARK    3  A    between atoms: N2_21  and  C17_22 
ROOT
HETATM    1  C1  UNL     1      21.382  -1.683  54.349  1.00  0.00     0.038 C 
HETATM    2  C2  UNL     1      22.650  -0.991  54.057  1.00  0.00    -0.000 C 
HETATM    3  C3  UNL     1      23.204  -0.240  53.145  1.00  0.00     0.045 C 
HETATM    4  C4  UNL     1      24.589   0.102  53.555  1.00  0.00     0.048 C 
HETATM    5  C5  UNL     1      25.859   0.473  53.819  1.00  0.00     0.042 C 
HETATM    6  C6  UNL     1      26.591   0.139  55.016  1.00  0.00     0.252 C 
HETATM    7  O1  UNL     1      25.844  -0.500  55.773  1.00  0.00    -0.268 OA
HETATM    8  N1  UNL     1      27.865   0.710  54.770  1.00  0.00    -0.353 N 
HETATM    9  C7  UNL     1      28.004   0.669  53.289  1.00  0.00     0.162 C 
HETATM   10  C8  UNL     1      26.728   1.250  52.876  1.00  0.00    -0.025 C 
HETATM   11  C9  UNL     1      26.182   2.173  52.063  1.00  0.00     0.030 C 
HETATM   12  C10 UNL     1      24.805   2.559  51.999  1.00  0.00     0.166 C 
HETATM   13  F1  UNL     1      24.758   2.499  53.386  1.00  0.00    -0.234 F 
HETATM   14  C11 UNL     1      23.510   2.693  52.252  1.00  0.00     0.047 C 
HETATM   15  C12 UNL     1      22.466   3.443  51.520  1.00  0.00     0.067 C 
HETATM   16  C13 UNL     1      21.380   2.390  51.215  1.00  0.00     0.023 C 
HETATM   17  C14 UNL     1      20.084   2.436  51.255  1.00  0.00     0.009 C 
HETATM   18  N3  UNL     1      21.916   1.035  50.956  1.00  0.00    -0.305 N 
HETATM   19  N4  UNL     1      22.480   0.285  52.027  1.00  0.00    -0.301 N 
HETATM   20  H6  UNL     1      28.345   0.987  55.668  1.00  0.00     0.163 HD
HETATM   21  H22 UNL     1      21.830   0.748  49.967  1.00  0.00     0.186 HD
HETATM   22  H23 UNL     1      21.821  -0.527  51.814  1.00  0.00     0.187 HD
ENDROOT
BRANCH  17  23
HETATM   23  C15 UNL     1      19.301   3.636  51.642  1.00  0.00     0.132 C 
BRANCH  23  24
HETATM   24  C16 UNL     1      17.857   3.394  51.685  1.00  0.00     0.221 C 
HETATM   25  O2  UNL     1      16.939   4.133  52.152  1.00  0.00    -0.273 OA
HETATM   26  N2  UNL     1      17.471   2.136  51.105  1.00  0.00    -0.361 N 
HETATM   27  H16 UNL     1      18.113   1.424  50.679  1.00  0.00     0.162 HD
BRANCH  26  28
HETATM   28  C17 UNL     1      16.041   1.854  51.112  1.00  0.00     0.118 C 
HETATM   29  C18 UNL     1      15.684   0.777  52.077  1.00  0.00     0.026 C 
ENDBRANCH  26  28
ENDBRANCH  23  24
ENDBRANCH  17  23
TORSDOF 3
ENDMDL
MODEL 3
REMARK VINA RESULT:      -8.3      2.441      7.578
REMARK  3 active torsions:
REMARK  status: ('A' for Active; 'I' for Inactive)
REMARK    1  A    between atoms: C14_17  and  C15_18 
REMARK    2  A    between atoms: C15_18  and  C16_19 
REMARK       I    between atoms: C16_19  and  N2_21 
REMARK    3  A    between atoms: N2_21  and  C17_22 
ROOT
HETATM    1  C1  UNL     1      20.372   3.285  52.073  1.00  0.00     0.038 C 
HETATM    2  C2  UNL     1      21.349   3.971  51.208  1.00  0.00    -0.000 C 
HETATM    3  C3  UNL     1      22.607   4.317  51.182  1.00  0.00     0.045 C 
HETATM    4  C4  UNL     1      22.903   5.021  49.909  1.00  0.00     0.048 C 
HETATM    5  C5  UNL     1      23.289   5.678  48.795  1.00  0.00     0.042 C 
HETATM    6  C6  UNL     1      22.440   5.967  47.665  1.00  0.00     0.252 C 
HETATM    7  O1  UNL     1      21.322   5.472  47.872  1.00  0.00    -0.268 OA
HETATM    8  N1  UNL     1      23.300   6.706  46.813  1.00  0.00    -0.353 N 
HETATM    9  C7  UNL     1      24.244   7.381  47.743  1.00  0.00     0.162 C 
HETATM   10  C8  UNL     1      24.655   6.257  48.583  1.00  0.00    -0.025 C 
HETATM   11  C9  UNL     1      25.735   5.645  49.105  1.00  0.00     0.030 C 
HETATM   12  C10 UNL     1      25.757   4.422  49.849  1.00  0.00     0.166 C 
HETATM   13  F1  UNL     1      24.819   3.906  48.964  1.00  0.00    -0.234 F 
HETATM   14  C11 UNL     1      25.409   3.281  50.428  1.00  0.00     0.047 C 
HETATM   15  C12 UNL     1      26.199   2.359  51.273  1.00  0.00     0.067 C 
HETATM   16  C13 UNL     1      25.376   2.228  52.571  1.00  0.00     0.023 C 
HETATM   17  C14 UNL     1      25.099   1.212  53.330  1.00  0.00     0.009 C 
HETATM   18  N3  UNL     1      24.659   3.465  52.953  1.00  0.00    -0.305 N 
HETATM   19  N4  UNL     1      23.547   3.901  52.177  1.00  0.00    -0.301 N 
HETATM   20  H6  UNL     1      23.038   6.583  45.798  1.00  0.00     0.163 HD
HETATM   21  H22 UNL     1      25.059   3.923  53.788  1.00  0.00     0.186 HD
HETATM   22  H23 UNL     1      22.938   3.927  53.053  1.00  0.00     0.187 HD
ENDROOT
BRANCH  17  23
HETATM   23  C15 UNL     1      25.566  -0.174  53.076  1.00  0.00     0.132 C 
BRANCH  23  24
HETATM   24  C16 UNL     1      26.809  -0.502  53.779  1.00  0.00     0.221 C 
HETATM   25  O2  UNL     1      27.058  -0.452  55.020  1.00  0.00    -0.273 OA
HETATM   26  N2  UNL     1      27.863  -0.937  52.903  1.00  0.00    -0.361 N 
HETATM   27  H16 UNL     1      27.806  -1.031  51.860  1.00  0.00     0.162 HD
BRANCH  26  28
HETATM   28  C17 UNL     1      29.117  -1.288  53.557  1.00  0.00     0.118 C 
HETATM   29  C18 UNL     1      30.127  -0.196  53.460  1.00  0.00     0.026 C 
ENDBRANCH  26  28
ENDBRANCH  23  24
ENDBRANCH  17  23
TORSDOF 3
ENDMDL
MODEL 4
REMARK VINA RESULT:      -8.2      3.050      4.936
REMARK  3 active torsions:
REMARK  status: ('A' for Active; 'I' for Inactive)
REMARK    1  A    between atoms: C14_17  and  C15_18 
REMARK    2  A    between atoms: C15_18  and  C16_19 
REMARK       I    between atoms: C16_19  and  N2_21 
REMARK    3  A    between atoms: N2_21  and  C17_22 
ROOT
HETATM    1  C1  UNL     1      27.245   2.179  53.470  1.00  0.00     0.038 C 
HETATM    2  C2  UNL     1      25.802   1.891  53.376  1.00  0.00    -0.000 C 
HETATM    3  C3  UNL     1      24.668   2.484  53.128  1.00  0.00     0.045 C 
HETATM    4  C4  UNL     1      23.560   1.499  53.215  1.00  0.00     0.048 C 
HETATM    5  C5  UNL     1      22.476   0.699  53.272  1.00  0.00     0.042 C 
HETATM    6  C6  UNL     1      22.502  -0.719  53.536  1.00  0.00     0.252 C 
HETATM    7  O1  UNL     1      23.684  -1.079  53.652  1.00  0.00    -0.268 OA
HETATM    8  N1  UNL     1      21.125  -1.059  53.541  1.00  0.00    -0.353 N 
HETATM    9  C7  UNL     1      20.444   0.182  53.998  1.00  0.00     0.162 C 
HETATM   10  C8  UNL     1      21.062   1.175  53.120  1.00  0.00    -0.025 C 
HETATM   11  C9  UNL     1      20.782   2.203  52.298  1.00  0.00     0.030 C 
HETATM   12  C10 UNL     1      21.705   2.922  51.472  1.00  0.00     0.166 C 
HETATM   13  F1  UNL     1      22.317   1.715  51.163  1.00  0.00    -0.234 F 
HETATM   14  C11 UNL     1      22.795   3.308  50.824  1.00  0.00     0.047 C 
HETATM   15  C12 UNL     1      23.026   4.485  49.958  1.00  0.00     0.067 C 
HETATM   16  C13 UNL     1      24.241   5.195  50.591  1.00  0.00     0.023 C 
HETATM   17  C14 UNL     1      25.286   5.765  50.074  1.00  0.00     0.009 C 
HETATM   18  N3  UNL     1      24.291   5.094  52.067  1.00  0.00    -0.305 N 
HETATM   19  N4  UNL     1      24.583   3.839  52.676  1.00  0.00    -0.301 N 
HETATM   20  H6  UNL     1      20.973  -2.058  53.239  1.00  0.00     0.163 HD
HETATM   21  H22 UNL     1      24.093   5.990  52.541  1.00  0.00     0.186 HD
HETATM   22  H23 UNL     1      25.384   4.285  53.223  1.00  0.00     0.187 HD
ENDROOT
BRANCH  17  23
HETATM   23  C15 UNL     1      25.553   5.858  48.617  1.00  0.00     0.132 C 
BRANCH  23  24
HETATM   24  C16 UNL     1      26.455   6.957  48.266  1.00  0.00     0.221 C 
HETATM   25  O2  UNL     1      26.428   7.715  47.250  1.00  0.00    -0.273 OA
HETATM   26  N2  UNL     1      27.497   7.173  49.233  1.00  0.00    -0.361 N 
HETATM   27  H16 UNL     1      27.646   6.631  50.119  1.00  0.00     0.162 HD
BRANCH  26  28
HETATM   28  C17 UNL     1      28.414   8.266  48.934  1.00  0.00     0.118 C 
HETATM   29  C18 UNL     1      28.174   9.455  49.799  1.00  0.00     0.026 C 
ENDBRANCH  26  28
ENDBRANCH  23  24
ENDBRANCH  17  23
TORSDOF 3
ENDMDL
MODEL 5
REMARK VINA RESULT:      -8.2      3.827      5.597
REMARK  3 active torsions:
REMARK  status: ('A' for Active; 'I' for Inactive)
REMARK    1  A    between atoms: C14_17  and  C15_18 
REMARK    2  A    between atoms: C15_18  and  C16_19 
REMARK       I    between atoms: C16_19  and  N2_21 
REMARK    3  A    between atoms: N2_21  and  C17_22 
ROOT
HETATM    1  C1  UNL     1      23.067   2.937  49.722  1.00  0.00     0.038 C 
HETATM    2  C2  UNL     1      23.591   2.116  50.829  1.00  0.00    -0.000 C 
HETATM    3  C3  UNL     1      23.233   1.636  51.987  1.00  0.00     0.045 C 
HETATM    4  C4  UNL     1      24.350   0.850  52.568  1.00  0.00     0.048 C 
HETATM    5  C5  UNL     1      25.294   0.119  53.197  1.00  0.00     0.042 C 
HETATM    6  C6  UNL     1      26.600  -0.186  52.666  1.00  0.00     0.252 C 
HETATM    7  O1  UNL     1      26.687   0.296  51.526  1.00  0.00    -0.268 OA
HETATM    8  N1  UNL     1      27.201  -0.915  53.723  1.00  0.00    -0.353 N 
HETATM    9  C7  UNL     1      26.557  -0.377  54.951  1.00  0.00     0.162 C 
HETATM   10  C8  UNL     1      25.145  -0.449  54.576  1.00  0.00    -0.025 C 
HETATM   11  C9  UNL     1      23.939  -0.858  55.011  1.00  0.00     0.030 C 
HETATM   12  C10 UNL     1      22.712  -0.856  54.274  1.00  0.00     0.166 C 
HETATM   13  F1  UNL     1      23.418  -1.291  53.160  1.00  0.00    -0.234 F 
HETATM   14  C11 UNL     1      21.812  -0.760  53.304  1.00  0.00     0.047 C 
HETATM   15  C12 UNL     1      20.343  -0.924  53.345  1.00  0.00     0.067 C 
HETATM   16  C13 UNL     1      19.794   0.394  52.759  1.00  0.00     0.023 C 
HETATM   17  C14 UNL     1      18.819   0.646  51.941  1.00  0.00     0.009 C 
HETATM   18  N3  UNL     1      20.613   1.582  53.088  1.00  0.00    -0.305 N 
HETATM   19  N4  UNL     1      21.897   1.738  52.490  1.00  0.00    -0.301 N 
HETATM   20  H6  UNL     1      27.915  -1.603  53.360  1.00  0.00     0.163 HD
HETATM   21  H22 UNL     1      20.153   2.217  53.760  1.00  0.00     0.186 HD
HETATM   22  H23 UNL     1      21.619   2.704  52.131  1.00  0.00     0.187 HD
ENDROOT
BRANCH  17  23
HETATM   23  C15 UNL     1      17.942  -0.390  51.339  1.00  0.00     0.132 C 
BRANCH  23  24
HETATM   24  C16 UNL     1      16.711  -0.617  52.100  1.00  0.00     0.221 C 
HETATM   25  O2  UNL     1      16.273  -1.696  52.601  1.00  0.00    -0.273 OA
HETATM   26  N2  UNL     1      15.924   0.572  52.283  1.00  0.00    -0.361 N 
HETATM   27  H16 UNL     1      16.156   1.533  51.931  1.00  0.00     0.162 HD
BRANCH  26  28
HETATM   28  C17 UNL     1      14.694   0.399  53.046  1.00  0.00     0.118 C 
HETATM   29  C18 UNL     1      13.867   1.638  53.069  1.00  0.00     0.026 C 
ENDBRANCH  26  28
ENDBRANCH  23  24
ENDBRANCH  17  23
TORSDOF 3
ENDMDL
MODEL 6
REMARK VINA RESULT:      -8.1      3.274      7.233
REMARK  3 active torsions:
REMARK  status: ('A' for Active; 'I' for Inactive)
REMARK    1  A    between atoms: C14_17  and  C15_18 
REMARK    2  A    between atoms: C15_18  and  C16_19 
REMARK       I    between atoms: C16_19  and  N2_21 
REMARK    3  A    between atoms: N2_21  and  C17_22 
ROOT
HETATM    1  C1  UNL     1      21.274  -0.117  54.861  1.00  0.00     0.038 C 
HETATM    2  C2  UNL     1      20.674   0.348  53.598  1.00  0.00    -0.000 C 
HETATM    3  C3  UNL     1      20.821   1.272  52.689  1.00  0.00     0.045 C 
HETATM    4  C4  UNL     1      19.786   1.107  51.638  1.00  0.00     0.048 C 
HETATM    5  C5  UNL     1      18.892   1.060  50.628  1.00  0.00     0.042 C 
HETATM    6  C6  UNL     1      17.858   0.065  50.479  1.00  0.00     0.252 C 
HETATM    7  O1  UNL     1      17.962  -0.756  51.403  1.00  0.00    -0.268 OA
HETATM    8  N1  UNL     1      17.178   0.497  49.313  1.00  0.00    -0.353 N 
HETATM    9  C7  UNL     1      17.361   1.974  49.309  1.00  0.00     0.162 C 
HETATM   10  C8  UNL     1      18.804   2.073  49.527  1.00  0.00    -0.025 C 
HETATM   11  C9  UNL     1      19.919   2.672  49.071  1.00  0.00     0.030 C 
HETATM   12  C10 UNL     1      21.264   2.430  49.500  1.00  0.00     0.166 C 
HETATM   13  F1  UNL     1      20.971   1.073  49.540  1.00  0.00    -0.234 F 
HETATM   14  C11 UNL     1      22.338   1.919  50.087  1.00  0.00     0.047 C 
HETATM   15  C12 UNL     1      23.750   2.359  50.046  1.00  0.00     0.067 C 
HETATM   16  C13 UNL     1      24.136   2.548  51.528  1.00  0.00     0.023 C 
HETATM   17  C14 UNL     1      25.209   2.253  52.194  1.00  0.00     0.009 C 
HETATM   18  N3  UNL     1      23.027   3.036  52.377  1.00  0.00    -0.305 N 
HETATM   19  N4  UNL     1      21.933   2.172  52.672  1.00  0.00    -0.301 N 
HETATM   20  H6  UNL     1      16.743  -0.313  48.797  1.00  0.00     0.163 HD
HETATM   21  H22 UNL     1      23.156   4.013  52.689  1.00  0.00     0.186 HD
HETATM   22  H23 UNL     1      22.081   2.332  53.717  1.00  0.00     0.187 HD
ENDROOT
BRANCH  17  23
HETATM   23  C15 UNL     1      26.409   1.607  51.605  1.00  0.00     0.132 C 
BRANCH  23  24
HETATM   24  C16 UNL     1      27.548   1.558  52.525  1.00  0.00     0.221 C 
HETATM   25  O2  UNL     1      28.366   2.477  52.828  1.00  0.00    -0.273 OA
HETATM   26  N2  UNL     1      27.725   0.275  53.148  1.00  0.00    -0.361 N 
HETATM   27  H16 UNL     1      27.130  -0.577  53.000  1.00  0.00     0.162 HD
BRANCH  26  28
HETATM   28  C17 UNL     1      28.839   0.179  54.083  1.00  0.00     0.118 C 
HETATM   29  C18 UNL     1      29.860  -0.812  53.642  1.00  0.00     0.026 C 
ENDBRANCH  26  28
ENDBRANCH  23  24
ENDBRANCH  17  23
TORSDOF 3
ENDMDL
MODEL 7
REMARK VINA RESULT:      -8.0      3.368      4.746
REMARK  3 active torsions:
REMARK  status: ('A' for Active; 'I' for Inactive)
REMARK    1  A    between atoms: C14_17  and  C15_18 
REMARK    2  A    between atoms: C15_18  and  C16_19 
REMARK       I    between atoms: C16_19  and  N2_21 
REMARK    3  A    between atoms: N2_21  and  C17_22 
ROOT
HETATM    1  C1  UNL     1      19.399   2.268  48.805  1.00  0.00     0.038 C 
HETATM    2  C2  UNL     1      20.081   1.596  49.926  1.00  0.00    -0.000 C 
HETATM    3  C3  UNL     1      21.279   1.358  50.383  1.00  0.00     0.045 C 
HETATM    4  C4  UNL     1      21.187   0.573  51.640  1.00  0.00     0.048 C 
HETATM    5  C5  UNL     1      21.227  -0.143  52.782  1.00  0.00     0.042 C 
HETATM    6  C6  UNL     1      20.074  -0.602  53.518  1.00  0.00     0.252 C 
HETATM    7  O1  UNL     1      19.052  -0.189  52.950  1.00  0.00    -0.268 OA
HETATM    8  N1  UNL     1      20.657  -1.337  54.581  1.00  0.00    -0.353 N 
HETATM    9  C7  UNL     1      21.936  -1.844  54.017  1.00  0.00     0.162 C 
HETATM   10  C8  UNL     1      22.488  -0.619  53.439  1.00  0.00    -0.025 C 
HETATM   11  C9  UNL     1      23.607   0.126  53.371  1.00  0.00     0.030 C 
HETATM   12  C10 UNL     1      23.752   1.407  52.748  1.00  0.00     0.166 C 
HETATM   13  F1  UNL     1      22.512   1.761  53.263  1.00  0.00    -0.234 F 
HETATM   14  C11 UNL     1      23.505   2.560  52.142  1.00  0.00     0.047 C 
HETATM   15  C12 UNL     1      24.433   3.618  51.685  1.00  0.00     0.067 C 
HETATM   16  C13 UNL     1      24.109   3.791  50.186  1.00  0.00     0.023 C 
HETATM   17  C14 UNL     1      24.005   4.841  49.432  1.00  0.00     0.009 C 
HETATM   18  N3  UNL     1      23.714   2.535  49.510  1.00  0.00    -0.305 N 
HETATM   19  N4  UNL     1      22.456   1.939  49.813  1.00  0.00    -0.301 N 
HETATM   20  H6  UNL     1      20.044  -1.326  55.440  1.00  0.00     0.163 HD
HETATM   21  H22 UNL     1      24.430   2.188  48.851  1.00  0.00     0.186 HD
HETATM   22  H23 UNL     1      22.200   1.938  48.777  1.00  0.00     0.187 HD
ENDROOT
BRANCH  17  23
HETATM   23  C15 UNL     1      24.195   6.235  49.907  1.00  0.00     0.132 C 
BRANCH  23  24
HETATM   24  C16 UNL     1      25.558   6.732  49.703  1.00  0.00     0.221 C 
HETATM   25  O2  UNL     1      26.186   7.620  50.353  1.00  0.00    -0.273 OA
HETATM   26  N2  UNL     1      26.240   6.099  48.607  1.00  0.00    -0.361 N 
HETATM   27  H16 UNL     1      25.853   5.350  47.982  1.00  0.00     0.162 HD
BRANCH  26  28
HETATM   28  C17 UNL     1      27.605   6.552  48.372  1.00  0.00     0.118 C 
HETATM   29  C18 UNL     1      28.578   5.423  48.361  1.00  0.00     0.026 C 
ENDBRANCH  26  28
ENDBRANCH  23  24
ENDBRANCH  17  23
TORSDOF 3
ENDMDL
MODEL 8
REMARK VINA RESULT:      -7.8      3.864      7.998
REMARK  3 active torsions:
REMARK  status: ('A' for Active; 'I' for Inactive)
REMARK    1  A    between atoms: C14_17  and  C15_18 
REMARK    2  A    between atoms: C15_18  and  C16_19 
REMARK       I    between atoms: C16_19  and  N2_21 
REMARK    3  A    between atoms: N2_21  and  C17_22 
ROOT
HETATM    1  C1  UNL     1      18.082  -2.444  53.867  1.00  0.00     0.038 C 
HETATM    2  C2  UNL     1      17.992  -1.446  52.786  1.00  0.00    -0.000 C 
HETATM    3  C3  UNL     1      18.506  -0.304  52.420  1.00  0.00     0.045 C 
HETATM    4  C4  UNL     1      17.895   0.130  51.139  1.00  0.00     0.048 C 
HETATM    5  C5  UNL     1      17.408   0.628  49.983  1.00  0.00     0.042 C 
HETATM    6  C6  UNL     1      16.428  -0.020  49.146  1.00  0.00     0.252 C 
HETATM    7  O1  UNL     1      16.151  -1.123  49.641  1.00  0.00    -0.268 OA
HETATM    8  N1  UNL     1      16.228   0.929  48.112  1.00  0.00    -0.353 N 
HETATM    9  C7  UNL     1      16.496   2.240  48.763  1.00  0.00     0.162 C 
HETATM   10  C8  UNL     1      17.775   1.967  49.417  1.00  0.00    -0.025 C 
HETATM   11  C9  UNL     1      19.015   2.457  49.595  1.00  0.00     0.030 C 
HETATM   12  C10 UNL     1      20.107   1.815  50.263  1.00  0.00     0.166 C 
HETATM   13  F1  UNL     1      19.732   0.622  49.660  1.00  0.00    -0.234 F 
HETATM   14  C11 UNL     1      20.874   0.926  50.880  1.00  0.00     0.047 C 
HETATM   15  C12 UNL     1      22.236   1.062  51.439  1.00  0.00     0.067 C 
HETATM   16  C13 UNL     1      22.093   0.623  52.911  1.00  0.00     0.023 C 
HETATM   17  C14 UNL     1      22.845  -0.098  53.683  1.00  0.00     0.009 C 
HETATM   18  N3  UNL     1      20.791   0.980  53.518  1.00  0.00    -0.305 N 
HETATM   19  N4  UNL     1      19.610   0.302  53.099  1.00  0.00    -0.301 N 
HETATM   20  H6  UNL     1      15.949   0.463  47.208  1.00  0.00     0.163 HD
HETATM   21  H22 UNL     1      20.866   1.732  54.222  1.00  0.00     0.186 HD
HETATM   22  H23 UNL     1      19.394   0.041  54.111  1.00  0.00     0.187 HD
ENDROOT
BRANCH  17  23
HETATM   23  C15 UNL     1      24.130  -0.712  53.265  1.00  0.00     0.132 C 
BRANCH  23  24
HETATM   24  C16 UNL     1      25.301   0.077  53.657  1.00  0.00     0.221 C 
HETATM   25  O2  UNL     1      25.443   1.336  53.674  1.00  0.00    -0.273 OA
HETATM   26  N2  UNL     1      26.418  -0.726  54.076  1.00  0.00    -0.361 N 
HETATM   27  H16 UNL     1      26.449  -1.774  54.118  1.00  0.00     0.162 HD
BRANCH  26  28
HETATM   28  C17 UNL     1      27.603   0.014  54.489  1.00  0.00     0.118 C 
HETATM   29  C18 UNL     1      28.838  -0.482  53.818  1.00  0.00     0.026 C 
ENDBRANCH  26  28
ENDBRANCH  23  24
ENDBRANCH  17  23
TORSDOF 3
ENDMDL
MODEL 9
REMARK VINA RESULT:      -7.7      3.462      5.085
REMARK  3 active torsions:
REMARK  status: ('A' for Active; 'I' for Inactive)
REMARK    1  A    between atoms: C14_17  and  C15_18 
REMARK    2  A    between atoms: C15_18  and  C16_19 
REMARK       I    between atoms: C16_19  and  N2_21 
REMARK    3  A    between atoms: N2_21  and  C17_22 
ROOT
HETATM    1  C1  UNL     1      23.633   3.509  49.619  1.00  0.00     0.038 C 
HETATM    2  C2  UNL     1      23.857   2.532  50.700  1.00  0.00    -0.000 C 
HETATM    3  C3  UNL     1      23.265   2.035  51.751  1.00  0.00     0.045 C 
HETATM    4  C4  UNL     1      24.150   1.030  52.392  1.00  0.00     0.048 C 
HETATM    5  C5  UNL     1      24.866   0.104  53.063  1.00  0.00     0.042 C 
HETATM    6  C6  UNL     1      26.170  -0.378  52.678  1.00  0.00     0.252 C 
HETATM    7  O1  UNL     1      26.494   0.164  51.611  1.00  0.00    -0.268 OA
HETATM    8  N1  UNL     1      26.491  -1.275  53.728  1.00  0.00    -0.353 N 
HETATM    9  C7  UNL     1      25.771  -0.728  54.910  1.00  0.00     0.162 C 
HETATM   10  C8  UNL     1      24.434  -0.531  54.351  1.00  0.00    -0.025 C 
HETATM   11  C9  UNL     1      23.129  -0.760  54.585  1.00  0.00     0.030 C 
HETATM   12  C10 UNL     1      22.035  -0.494  53.700  1.00  0.00     0.166 C 
HETATM   13  F1  UNL     1      22.816  -0.960  52.650  1.00  0.00    -0.234 F 
HETATM   14  C11 UNL     1      21.310  -0.175  52.636  1.00  0.00     0.047 C 
HETATM   15  C12 UNL     1      19.843  -0.089  52.471  1.00  0.00     0.067 C 
HETATM   16  C13 UNL     1      19.598   1.343  51.950  1.00  0.00     0.023 C 
HETATM   17  C14 UNL     1      18.803   1.816  51.041  1.00  0.00     0.009 C 
HETATM   18  N3  UNL     1      20.540   2.346  52.494  1.00  0.00    -0.305 N 
HETATM   19  N4  UNL     1      21.905   2.325  52.084  1.00  0.00    -0.301 N 
HETATM   20  H6  UNL     1      27.130  -2.046  53.396  1.00  0.00     0.163 HD
HETATM   21  H22 UNL     1      20.095   2.999  53.160  1.00  0.00     0.186 HD
HETATM   22  H23 UNL     1      21.837   3.348  51.788  1.00  0.00     0.187 HD
ENDROOT
BRANCH  17  23
HETATM   23  C15 UNL     1      17.868   0.992  50.235  1.00  0.00     0.132 C 
BRANCH  23  24
HETATM   24  C16 UNL     1      16.467   1.388  50.392  1.00  0.00     0.221 C 
HETATM   25  O2  UNL     1      15.584   1.563  49.500  1.00  0.00    -0.273 OA
HETATM   26  N2  UNL     1      16.081   1.593  51.762  1.00  0.00    -0.361 N 
HETATM   27  H16 UNL     1      16.696   1.484  52.605  1.00  0.00     0.162 HD
BRANCH  26  28
HETATM   28  C17 UNL     1      14.691   1.976  51.972  1.00  0.00     0.118 C 
HETATM   29  C18 UNL     1      14.563   3.178  52.843  1.00  0.00     0.026 C 
ENDBRANCH  26  28
ENDBRANCH  23  24
ENDBRANCH  17  23
TORSDOF 3
ENDMDL
