MODEL 1
REMARK VINA RESULT:      -8.7      0.000      0.000
REMARK  4 active torsions:
REMARK  status: ('A' for Active; 'I' for Inactive)
REMARK    1  A    between atoms: C4_6  and  C5_7 
REMARK    2  A    between atoms: C8_10  and  O1_11 
REMARK    3  A    between atoms: O1_11  and  C9_12 
REMARK    4  A    between atoms: C9_12  and  C10_13 
ROOT
HETATM    1  C5  UNL     1      25.261   0.287  53.557  1.00  0.00    -0.005 A 
HETATM    2  C6  UNL     1      24.845   1.280  52.671  1.00  0.00     0.017 A 
HETATM    3  C7  UNL     1      23.508   1.490  52.401  1.00  0.00     0.039 A 
HETATM    4  C8  UNL     1      22.576   0.711  53.012  1.00  0.00     0.090 A 
HETATM    5  C16 UNL     1      22.952  -0.293  53.904  1.00  0.00     0.068 A 
HETATM    6 CL1  UNL     1      21.828  -1.359  54.750  1.00  0.00    -0.081 Cl
HETATM    7  C17 UNL     1      24.296  -0.491  54.164  1.00  0.00     0.040 A 
ENDROOT
BRANCH   4   8
HETATM    8  O1  UNL     1      21.199   0.791  52.852  1.00  0.00    -0.345 OA
BRANCH   8   9
HETATM    9  C9  UNL     1      20.504   0.641  51.650  1.00  0.00     0.214 C 
BRANCH   9  10
HETATM   10  C10 UNL     1      19.176   0.000  51.855  1.00  0.00    -0.031 A 
HETATM   11  C11 UNL     1      18.089   0.303  51.033  1.00  0.00     0.009 A 
HETATM   12  C12 UNL     1      16.876  -0.328  51.275  1.00  0.00     0.004 A 
HETATM   13  C13 UNL     1      16.682  -1.235  52.277  1.00  0.00     0.042 A 
HETATM   14  C14 UNL     1      17.756  -1.554  53.113  1.00  0.00     0.117 A 
HETATM   15  F1  UNL     1      17.613  -2.436  54.106  1.00  0.00    -0.206 F 
HETATM   16  C15 UNL     1      18.956  -0.922  52.864  1.00  0.00     0.051 A 
ENDBRANCH   9  10
ENDBRANCH   8   9
ENDBRANCH   4   8
BRANCH   1  17
HETATM   17  C4  UNL     1      26.704   0.177  53.747  1.00  0.00     0.076 A 
HETATM   18  N2  UNL     1      27.342   1.156  54.416  1.00  0.00    -0.241 NA
HETATM   19  C3  UNL     1      28.680   1.111  54.626  1.00  0.00     0.234 A 
HETATM   20  N1  UNL     1      29.403   0.063  54.157  1.00  0.00    -0.246 NA
HETATM   21  C2  UNL     1      28.800  -0.949  53.476  1.00  0.00     0.040 A 
HETATM   22  C1  UNL     1      29.665  -2.055  53.000  1.00  0.00     0.071 C 
HETATM   23  C18 UNL     1      27.437  -0.887  53.272  1.00  0.00    -0.008 A 
HETATM   24  C19 UNL     1      26.779  -1.978  52.535  1.00  0.00     0.052 C 
ENDBRANCH   1  17
TORSDOF 4
ENDMDL
MODEL 2
REMARK VINA RESULT:      -8.7      1.450      1.742
REMARK  4 active torsions:
REMARK  status: ('A' for Active; 'I' for Inactive)
REMARK    1  A    between atoms: C4_6  and  C5_7 
REMARK    2  A    between atoms: C8_10  and  O1_11 
REMARK    3  A    between atoms: O1_11  and  C9_12 
REMARK    4  A    between atoms: C9_12  and  C10_13 
ROOT
HETATM    1  C5  UNL     1      25.393   0.793  52.864  1.00  0.00    -0.005 A 
HETATM    2  C6  UNL     1      24.559   0.013  53.663  1.00  0.00     0.017 A 
HETATM    3  C7  UNL     1      23.213  -0.118  53.386  1.00  0.00     0.039 A 
HETATM    4  C8  UNL     1      22.689   0.528  52.311  1.00  0.00     0.090 A 
HETATM    5  C16 UNL     1      23.491   1.318  51.487  1.00  0.00     0.068 A 
HETATM    6 CL1  UNL     1      22.916   2.198  50.069  1.00  0.00    -0.081 Cl
HETATM    7  C17 UNL     1      24.837   1.439  51.778  1.00  0.00     0.040 A 
ENDROOT
BRANCH   4   8
HETATM    8  O1  UNL     1      21.364   0.501  51.895  1.00  0.00    -0.345 OA
BRANCH   8   9
HETATM    9  C9  UNL     1      20.271   0.988  52.614  1.00  0.00     0.214 C 
BRANCH   9  10
HETATM   10  C10 UNL     1      19.110   0.058  52.552  1.00  0.00    -0.031 A 
HETATM   11  C11 UNL     1      18.093   0.228  51.610  1.00  0.00     0.009 A 
HETATM   12  C12 UNL     1      17.037  -0.673  51.603  1.00  0.00     0.004 A 
HETATM   13  C13 UNL     1      16.932  -1.722  52.469  1.00  0.00     0.042 A 
HETATM   14  C14 UNL     1      17.938  -1.913  53.421  1.00  0.00     0.117 A 
HETATM   15  F1  UNL     1      17.877  -2.926  54.289  1.00  0.00    -0.206 F 
HETATM   16  C15 UNL     1      18.982  -1.013  53.419  1.00  0.00     0.051 A 
ENDBRANCH   9  10
ENDBRANCH   8   9
ENDBRANCH   4   8
BRANCH   1  17
HETATM   17  C4  UNL     1      26.793   0.842  53.274  1.00  0.00     0.076 A 
HETATM   18  N2  UNL     1      27.293   2.009  53.722  1.00  0.00    -0.241 NA
HETATM   19  C3  UNL     1      28.584   2.118  54.117  1.00  0.00     0.234 A 
HETATM   20  N1  UNL     1      29.401   1.035  54.065  1.00  0.00    -0.246 NA
HETATM   21  C2  UNL     1      28.939  -0.164  53.619  1.00  0.00     0.040 A 
HETATM   22  C1  UNL     1      29.898  -1.294  53.596  1.00  0.00     0.071 C 
HETATM   23  C18 UNL     1      27.621  -0.257  53.221  1.00  0.00    -0.008 A 
HETATM   24  C19 UNL     1      27.115  -1.552  52.737  1.00  0.00     0.052 C 
ENDBRANCH   1  17
TORSDOF 4
ENDMDL
MODEL 3
REMARK VINA RESULT:      -8.5      2.467      3.173
REMARK  4 active torsions:
REMARK  status: ('A' for Active; 'I' for Inactive)
REMARK    1  A    between atoms: C4_6  and  C5_7 
REMARK    2  A    between atoms: C8_10  and  O1_11 
REMARK    3  A    between atoms: O1_11  and  C9_12 
REMARK    4  A    between atoms: C9_12  and  C10_13 
ROOT
HETATM    1  C5  UNL     1      25.186   0.266  53.516  1.00  0.00    -0.005 A 
HETATM    2  C6  UNL     1      24.842   1.266  52.607  1.00  0.00     0.017 A 
HETATM    3  C7  UNL     1      23.527   1.498  52.258  1.00  0.00     0.039 A 
HETATM    4  C8  UNL     1      22.547   0.737  52.811  1.00  0.00     0.090 A 
HETATM    5  C16 UNL     1      22.851  -0.273  53.725  1.00  0.00     0.068 A 
HETATM    6 CL1  UNL     1      21.659  -1.319  54.501  1.00  0.00    -0.081 Cl
HETATM    7  C17 UNL     1      24.173  -0.494  54.064  1.00  0.00     0.040 A 
ENDROOT
BRANCH   4   8
HETATM    8  O1  UNL     1      21.183   0.841  52.569  1.00  0.00    -0.345 OA
BRANCH   8   9
HETATM    9  C9  UNL     1      20.487   0.225  51.527  1.00  0.00     0.214 C 
BRANCH   9  10
HETATM   10  C10 UNL     1      20.507   1.047  50.286  1.00  0.00    -0.031 A 
HETATM   11  C11 UNL     1      19.483   1.951  49.998  1.00  0.00     0.009 A 
HETATM   12  C12 UNL     1      19.558   2.689  48.824  1.00  0.00     0.004 A 
HETATM   13  C13 UNL     1      20.583   2.582  47.929  1.00  0.00     0.042 A 
HETATM   14  C14 UNL     1      21.620   1.684  48.196  1.00  0.00     0.117 A 
HETATM   15  F1  UNL     1      22.643   1.546  47.349  1.00  0.00    -0.206 F 
HETATM   16  C15 UNL     1      21.535   0.956  49.364  1.00  0.00     0.051 A 
ENDBRANCH   9  10
ENDBRANCH   8   9
ENDBRANCH   4   8
BRANCH   1  17
HETATM   17  C4  UNL     1      26.613   0.131  53.792  1.00  0.00     0.076 A 
HETATM   18  N2  UNL     1      27.211   1.058  54.564  1.00  0.00    -0.241 NA
HETATM   19  C3  UNL     1      28.531   0.988  54.857  1.00  0.00     0.234 A 
HETATM   20  N1  UNL     1      29.279  -0.034  54.369  1.00  0.00    -0.246 NA
HETATM   21  C2  UNL     1      28.717  -0.995  53.585  1.00  0.00     0.040 A 
HETATM   22  C1  UNL     1      29.606  -2.075  53.095  1.00  0.00     0.071 C 
HETATM   23  C18 UNL     1      27.371  -0.906  53.297  1.00  0.00    -0.008 A 
HETATM   24  C19 UNL     1      26.757  -1.942  52.449  1.00  0.00     0.052 C 
ENDBRANCH   1  17
TORSDOF 4
ENDMDL
MODEL 4
REMARK VINA RESULT:      -8.4      3.864      4.712
REMARK  4 active torsions:
REMARK  status: ('A' for Active; 'I' for Inactive)
REMARK    1  A    between atoms: C4_6  and  C5_7 
REMARK    2  A    between atoms: C8_10  and  O1_11 
REMARK    3  A    between atoms: O1_11  and  C9_12 
REMARK    4  A    between atoms: C9_12  and  C10_13 
ROOT
HETATM    1  C5  UNL     1      26.213   1.146  52.280  1.00  0.00    -0.005 A 
HETATM    2  C6  UNL     1      25.196   1.445  53.185  1.00  0.00     0.017 A 
HETATM    3  C7  UNL     1      24.373   2.538  53.008  1.00  0.00     0.039 A 
HETATM    4  C8  UNL     1      24.558   3.342  51.927  1.00  0.00     0.090 A 
HETATM    5  C16 UNL     1      25.565   3.077  50.999  1.00  0.00     0.068 A 
HETATM    6 CL1  UNL     1      25.893   4.053  49.565  1.00  0.00    -0.081 Cl
HETATM    7  C17 UNL     1      26.381   1.978  51.191  1.00  0.00     0.040 A 
ENDROOT
BRANCH   4   8
HETATM    8  O1  UNL     1      23.822   4.475  51.603  1.00  0.00    -0.345 OA
BRANCH   8   9
HETATM    9  C9  UNL     1      22.503   4.491  51.146  1.00  0.00     0.214 C 
BRANCH   9  10
HETATM   10  C10 UNL     1      22.175   3.269  50.361  1.00  0.00    -0.031 A 
HETATM   11  C11 UNL     1      21.453   2.215  50.925  1.00  0.00     0.009 A 
HETATM   12  C12 UNL     1      21.178   1.103  50.141  1.00  0.00     0.004 A 
HETATM   13  C13 UNL     1      21.575   0.977  48.841  1.00  0.00     0.042 A 
HETATM   14  C14 UNL     1      22.299   2.019  48.254  1.00  0.00     0.117 A 
HETATM   15  F1  UNL     1      22.708   1.940  46.985  1.00  0.00    -0.206 F 
HETATM   16  C15 UNL     1      22.567   3.119  49.041  1.00  0.00     0.051 A 
ENDBRANCH   9  10
ENDBRANCH   8   9
ENDBRANCH   4   8
BRANCH   1  17
HETATM   17  C4  UNL     1      27.006  -0.039  52.592  1.00  0.00     0.076 A 
HETATM   18  N2  UNL     1      26.490  -1.251  52.314  1.00  0.00    -0.241 NA
HETATM   19  C3  UNL     1      27.176  -2.388  52.579  1.00  0.00     0.234 A 
HETATM   20  N1  UNL     1      28.411  -2.318  53.137  1.00  0.00    -0.246 NA
HETATM   21  C2  UNL     1      28.973  -1.114  53.435  1.00  0.00     0.040 A 
HETATM   22  C1  UNL     1      30.325  -1.129  54.042  1.00  0.00     0.071 C 
HETATM   23  C18 UNL     1      28.259   0.033  53.158  1.00  0.00    -0.008 A 
HETATM   24  C19 UNL     1      28.860   1.339  53.479  1.00  0.00     0.052 C 
ENDBRANCH   1  17
TORSDOF 4
ENDMDL
MODEL 5
REMARK VINA RESULT:      -8.1      5.716      8.705
REMARK  4 active torsions:
REMARK  status: ('A' for Active; 'I' for Inactive)
REMARK    1  A    between atoms: C4_6  and  C5_7 
REMARK    2  A    between atoms: C8_10  and  O1_11 
REMARK    3  A    between atoms: O1_11  and  C9_12 
REMARK    4  A    between atoms: C9_12  and  C10_13 
ROOT
HETATM    1  C5  UNL     1      23.523   1.173  52.745  1.00  0.00    -0.005 A 
HETATM    2  C6  UNL     1      24.708   0.680  52.201  1.00  0.00     0.017 A 
HETATM    3  C7  UNL     1      25.583   1.502  51.519  1.00  0.00     0.039 A 
HETATM    4  C8  UNL     1      25.283   2.820  51.375  1.00  0.00     0.090 A 
HETATM    5  C16 UNL     1      24.107   3.351  51.906  1.00  0.00     0.068 A 
HETATM    6 CL1  UNL     1      23.620   5.043  51.777  1.00  0.00    -0.081 Cl
HETATM    7  C17 UNL     1      23.241   2.515  52.585  1.00  0.00     0.040 A 
ENDROOT
BRANCH   4   8
HETATM    8  O1  UNL     1      26.050   3.776  50.722  1.00  0.00    -0.345 OA
BRANCH   8   9
HETATM    9  C9  UNL     1      26.702   3.607  49.499  1.00  0.00     0.214 C 
BRANCH   9  10
HETATM   10  C10 UNL     1      27.077   4.911  48.886  1.00  0.00    -0.031 A 
HETATM   11  C11 UNL     1      26.152   5.951  48.770  1.00  0.00     0.009 A 
HETATM   12  C12 UNL     1      26.563   7.143  48.190  1.00  0.00     0.004 A 
HETATM   13  C13 UNL     1      27.826   7.361  47.723  1.00  0.00     0.042 A 
HETATM   14  C14 UNL     1      28.769   6.335  47.828  1.00  0.00     0.117 A 
HETATM   15  F1  UNL     1      30.018   6.503  47.384  1.00  0.00    -0.206 F 
HETATM   16  C15 UNL     1      28.352   5.155  48.406  1.00  0.00     0.051 A 
ENDBRANCH   9  10
ENDBRANCH   8   9
ENDBRANCH   4   8
BRANCH   1  17
HETATM   17  C4  UNL     1      22.694   0.193  53.439  1.00  0.00     0.076 A 
HETATM   18  N2  UNL     1      23.245  -0.530  54.432  1.00  0.00    -0.241 NA
HETATM   19  C3  UNL     1      22.527  -1.455  55.114  1.00  0.00     0.234 A 
HETATM   20  N1  UNL     1      21.224  -1.666  54.799  1.00  0.00    -0.246 NA
HETATM   21  C2  UNL     1      20.625  -0.958  53.803  1.00  0.00     0.040 A 
HETATM   22  C1  UNL     1      19.199  -1.252  53.526  1.00  0.00     0.071 C 
HETATM   23  C18 UNL     1      21.372  -0.021  53.119  1.00  0.00    -0.008 A 
HETATM   24  C19 UNL     1      20.730   0.748  52.040  1.00  0.00     0.052 C 
ENDBRANCH   1  17
TORSDOF 4
ENDMDL
MODEL 6
REMARK VINA RESULT:      -8.1      5.032      6.318
REMARK  4 active torsions:
REMARK  status: ('A' for Active; 'I' for Inactive)
REMARK    1  A    between atoms: C4_6  and  C5_7 
REMARK    2  A    between atoms: C8_10  and  O1_11 
REMARK    3  A    between atoms: O1_11  and  C9_12 
REMARK    4  A    between atoms: C9_12  and  C10_13 
ROOT
HETATM    1  C5  UNL     1      26.182   2.151  52.555  1.00  0.00    -0.005 A 
HETATM    2  C6  UNL     1      25.090   2.252  53.416  1.00  0.00     0.017 A 
HETATM    3  C7  UNL     1      23.912   2.851  53.015  1.00  0.00     0.039 A 
HETATM    4  C8  UNL     1      23.815   3.352  51.756  1.00  0.00     0.090 A 
HETATM    5  C16 UNL     1      24.886   3.270  50.865  1.00  0.00     0.068 A 
HETATM    6 CL1  UNL     1      24.868   3.887  49.212  1.00  0.00    -0.081 Cl
HETATM    7  C17 UNL     1      26.059   2.668  51.282  1.00  0.00     0.040 A 
ENDROOT
BRANCH   4   8
HETATM    8  O1  UNL     1      22.709   3.981  51.199  1.00  0.00    -0.345 OA
BRANCH   8   9
HETATM    9  C9  UNL     1      22.089   5.132  51.689  1.00  0.00     0.214 C 
BRANCH   9  10
HETATM   10  C10 UNL     1      22.537   6.353  50.964  1.00  0.00    -0.031 A 
HETATM   11  C11 UNL     1      23.845   6.827  51.081  1.00  0.00     0.009 A 
HETATM   12  C12 UNL     1      24.203   7.971  50.381  1.00  0.00     0.004 A 
HETATM   13  C13 UNL     1      23.345   8.665  49.578  1.00  0.00     0.042 A 
HETATM   14  C14 UNL     1      22.030   8.210  49.445  1.00  0.00     0.117 A 
HETATM   15  F1  UNL     1      21.155   8.857  48.670  1.00  0.00    -0.206 F 
HETATM   16  C15 UNL     1      21.685   7.073  50.145  1.00  0.00     0.051 A 
ENDBRANCH   9  10
ENDBRANCH   8   9
ENDBRANCH   4   8
BRANCH   1  17
HETATM   17  C4  UNL     1      27.362   1.495  53.110  1.00  0.00     0.076 A 
HETATM   18  N2  UNL     1      28.226   2.229  53.837  1.00  0.00    -0.241 NA
HETATM   19  C3  UNL     1      29.339   1.677  54.378  1.00  0.00     0.234 A 
HETATM   20  N1  UNL     1      29.599   0.359  54.192  1.00  0.00    -0.246 NA
HETATM   21  C2  UNL     1      28.754  -0.422  53.465  1.00  0.00     0.040 A 
HETATM   22  C1  UNL     1      29.115  -1.851  53.312  1.00  0.00     0.071 C 
HETATM   23  C18 UNL     1      27.626   0.157  52.921  1.00  0.00    -0.008 A 
HETATM   24  C19 UNL     1      26.707  -0.682  52.133  1.00  0.00     0.052 C 
ENDBRANCH   1  17
TORSDOF 4
ENDMDL
MODEL 7
REMARK VINA RESULT:      -8.0      4.166      8.881
REMARK  4 active torsions:
REMARK  status: ('A' for Active; 'I' for Inactive)
REMARK    1  A    between atoms: C4_6  and  C5_7 
REMARK    2  A    between atoms: C8_10  and  O1_11 
REMARK    3  A    between atoms: O1_11  and  C9_12 
REMARK    4  A    between atoms: C9_12  and  C10_13 
ROOT
HETATM    1  C5  UNL     1      21.067   0.632  52.384  1.00  0.00    -0.005 A 
HETATM    2  C6  UNL     1      22.117   1.186  51.654  1.00  0.00     0.017 A 
HETATM    3  C7  UNL     1      23.432   0.997  52.029  1.00  0.00     0.039 A 
HETATM    4  C8  UNL     1      23.709   0.255  53.134  1.00  0.00     0.090 A 
HETATM    5  C16 UNL     1      22.686  -0.316  53.891  1.00  0.00     0.068 A 
HETATM    6 CL1  UNL     1      22.933  -1.294  55.340  1.00  0.00    -0.081 Cl
HETATM    7  C17 UNL     1      21.374  -0.117  53.502  1.00  0.00     0.040 A 
ENDROOT
BRANCH   4   8
HETATM    8  O1  UNL     1      24.969  -0.029  53.644  1.00  0.00    -0.345 OA
BRANCH   8   9
HETATM    9  C9  UNL     1      25.879  -0.946  53.115  1.00  0.00     0.214 C 
BRANCH   9  10
HETATM   10  C10 UNL     1      27.287  -0.498  53.299  1.00  0.00    -0.031 A 
HETATM   11  C11 UNL     1      28.351  -1.400  53.233  1.00  0.00     0.009 A 
HETATM   12  C12 UNL     1      29.641  -0.921  53.412  1.00  0.00     0.004 A 
HETATM   13  C13 UNL     1      29.934   0.391  53.650  1.00  0.00     0.042 A 
HETATM   14  C14 UNL     1      28.886   1.313  53.720  1.00  0.00     0.117 A 
HETATM   15  F1  UNL     1      29.124   2.607  53.951  1.00  0.00    -0.206 F 
HETATM   16  C15 UNL     1      27.608   0.826  53.541  1.00  0.00     0.051 A 
ENDBRANCH   9  10
ENDBRANCH   8   9
ENDBRANCH   4   8
BRANCH   1  17
HETATM   17  C4  UNL     1      19.729   0.912  51.874  1.00  0.00     0.076 A 
HETATM   18  N2  UNL     1      18.978  -0.116  51.435  1.00  0.00    -0.241 NA
HETATM   19  C3  UNL     1      17.728   0.079  50.950  1.00  0.00     0.234 A 
HETATM   20  N1  UNL     1      17.210   1.332  50.901  1.00  0.00    -0.246 NA
HETATM   21  C2  UNL     1      17.932   2.401  51.334  1.00  0.00     0.040 A 
HETATM   22  C1  UNL     1      17.290   3.734  51.245  1.00  0.00     0.071 C 
HETATM   23  C18 UNL     1      19.204   2.183  51.824  1.00  0.00    -0.008 A 
HETATM   24  C19 UNL     1      19.991   3.336  52.294  1.00  0.00     0.052 C 
ENDBRANCH   1  17
TORSDOF 4
ENDMDL
MODEL 8
REMARK VINA RESULT:      -7.9      4.759      6.330
REMARK  4 active torsions:
REMARK  status: ('A' for Active; 'I' for Inactive)
REMARK    1  A    between atoms: C4_6  and  C5_7 
REMARK    2  A    between atoms: C8_10  and  O1_11 
REMARK    3  A    between atoms: O1_11  and  C9_12 
REMARK    4  A    between atoms: C9_12  and  C10_13 
ROOT
HETATM    1  C5  UNL     1      25.734   0.935  52.212  1.00  0.00    -0.005 A 
HETATM    2  C6  UNL     1      24.655   1.060  53.087  1.00  0.00     0.017 A 
HETATM    3  C7  UNL     1      23.668   2.002  52.882  1.00  0.00     0.039 A 
HETATM    4  C8  UNL     1      23.749   2.827  51.804  1.00  0.00     0.090 A 
HETATM    5  C16 UNL     1      24.812   2.733  50.906  1.00  0.00     0.068 A 
HETATM    6 CL1  UNL     1      25.015   3.751  49.479  1.00  0.00    -0.081 Cl
HETATM    7  C17 UNL     1      25.793   1.784  51.126  1.00  0.00     0.040 A 
ENDROOT
BRANCH   4   8
HETATM    8  O1  UNL     1      22.845   3.822  51.455  1.00  0.00    -0.345 OA
BRANCH   8   9
HETATM    9  C9  UNL     1      22.615   5.004  52.162  1.00  0.00     0.214 C 
BRANCH   9  10
HETATM   10  C10 UNL     1      22.894   6.208  51.332  1.00  0.00    -0.031 A 
HETATM   11  C11 UNL     1      24.190   6.707  51.188  1.00  0.00     0.009 A 
HETATM   12  C12 UNL     1      24.384   7.833  50.400  1.00  0.00     0.004 A 
HETATM   13  C13 UNL     1      23.376   8.487  49.752  1.00  0.00     0.042 A 
HETATM   14  C14 UNL     1      22.070   8.006  49.881  1.00  0.00     0.117 A 
HETATM   15  F1  UNL     1      21.052   8.613  49.266  1.00  0.00    -0.206 F 
HETATM   16  C15 UNL     1      21.888   6.887  50.666  1.00  0.00     0.051 A 
ENDBRANCH   9  10
ENDBRANCH   8   9
ENDBRANCH   4   8
BRANCH   1  17
HETATM   17  C4  UNL     1      26.703  -0.103  52.550  1.00  0.00     0.076 A 
HETATM   18  N2  UNL     1      26.366  -1.390  52.345  1.00  0.00    -0.241 NA
HETATM   19  C3  UNL     1      27.222  -2.399  52.639  1.00  0.00     0.234 A 
HETATM   20  N1  UNL     1      28.447  -2.119  53.151  1.00  0.00    -0.246 NA
HETATM   21  C2  UNL     1      28.830  -0.832  53.375  1.00  0.00     0.040 A 
HETATM   22  C1  UNL     1      30.185  -0.617  53.936  1.00  0.00     0.071 C 
HETATM   23  C18 UNL     1      27.945   0.182  53.070  1.00  0.00    -0.008 A 
HETATM   24  C19 UNL     1      28.353   1.576  53.311  1.00  0.00     0.052 C 
ENDBRANCH   1  17
TORSDOF 4
ENDMDL
MODEL 9
REMARK VINA RESULT:      -7.9      4.435      8.708
REMARK  4 active torsions:
REMARK  status: ('A' for Active; 'I' for Inactive)
REMARK    1  A    between atoms: C4_6  and  C5_7 
REMARK    2  A    between atoms: C8_10  and  O1_11 
REMARK    3  A    between atoms: O1_11  and  C9_12 
REMARK    4  A    between atoms: C9_12  and  C10_13 
ROOT
HETATM    1  C5  UNL     1      22.236   1.615  51.071  1.00  0.00    -0.005 A 
HETATM    2  C6  UNL     1      23.554   2.067  51.017  1.00  0.00     0.017 A 
HETATM    3  C7  UNL     1      24.529   1.542  51.841  1.00  0.00     0.039 A 
HETATM    4  C8  UNL     1      24.198   0.563  52.723  1.00  0.00     0.090 A 
HETATM    5  C16 UNL     1      22.891   0.083  52.807  1.00  0.00     0.068 A 
HETATM    6 CL1  UNL     1      22.353  -1.182  53.914  1.00  0.00    -0.081 Cl
HETATM    7  C17 UNL     1      21.925   0.620  51.976  1.00  0.00     0.040 A 
ENDROOT
BRANCH   4   8
HETATM    8  O1  UNL     1      25.053  -0.069  53.617  1.00  0.00    -0.345 OA
BRANCH   8   9
HETATM    9  C9  UNL     1      25.974  -1.070  53.301  1.00  0.00     0.214 C 
BRANCH   9  10
HETATM   10  C10 UNL     1      27.378  -0.588  53.417  1.00  0.00    -0.031 A 
HETATM   11  C11 UNL     1      28.459  -1.456  53.258  1.00  0.00     0.009 A 
HETATM   12  C12 UNL     1      29.744  -0.946  53.378  1.00  0.00     0.004 A 
HETATM   13  C13 UNL     1      30.016   0.364  53.645  1.00  0.00     0.042 A 
HETATM   14  C14 UNL     1      28.950   1.253  53.808  1.00  0.00     0.117 A 
HETATM   15  F1  UNL     1      29.167   2.545  54.070  1.00  0.00    -0.206 F 
HETATM   16  C15 UNL     1      27.677   0.737  53.687  1.00  0.00     0.051 A 
ENDBRANCH   9  10
ENDBRANCH   8   9
ENDBRANCH   4   8
BRANCH   1  17
HETATM   17  C4  UNL     1      21.311   2.258  50.144  1.00  0.00     0.076 A 
HETATM   18  N2  UNL     1      21.313   1.867  48.856  1.00  0.00    -0.241 NA
HETATM   19  C3  UNL     1      20.478   2.426  47.947  1.00  0.00     0.234 A 
HETATM   20  N1  UNL     1      19.616   3.401  48.330  1.00  0.00    -0.246 NA
HETATM   21  C2  UNL     1      19.579   3.828  49.622  1.00  0.00     0.040 A 
HETATM   22  C1  UNL     1      18.608   4.898  49.954  1.00  0.00     0.071 C 
HETATM   23  C18 UNL     1      20.437   3.248  50.533  1.00  0.00    -0.008 A 
HETATM   24  C19 UNL     1      20.403   3.706  51.933  1.00  0.00     0.052 C 
ENDBRANCH   1  17
TORSDOF 4
ENDMDL
