MODEL 1
REMARK VINA RESULT:      -8.8      0.000      0.000
REMARK  3 active torsions:
REMARK  status: ('A' for Active; 'I' for Inactive)
REMARK    1  A    between atoms: O1_2  and  C2_3 
REMARK    2  A    between atoms: C6_7  and  C7_8 
REMARK    3  A    between atoms: C8_9  and  C9_10 
ROOT
HETATM    1  C2  UNL     1      18.587  -0.652  53.104  1.00  0.00     0.056 A 
HETATM    2  C3  UNL     1      19.900  -0.552  53.418  1.00  0.00     0.079 A 
HETATM    3  C4  UNL     1      21.037  -0.783  54.357  1.00  0.00    -0.012 A 
HETATM    4  C5  UNL     1      22.220  -0.376  53.978  1.00  0.00     0.030 A 
HETATM    5  C6  UNL     1      23.081   0.249  53.016  1.00  0.00     0.076 A 
HETATM    6  N1  UNL     1      22.389   0.601  52.004  1.00  0.00    -0.173 NA
HETATM    7  N2  UNL     1      23.002   1.232  50.928  1.00  0.00    -0.248 N 
HETATM    8  C15 UNL     1      21.630   1.190  50.464  1.00  0.00     0.306 A 
HETATM    9  S1  UNL     1      20.973   1.743  49.042  1.00  0.00     0.151 SA
HETATM   10  N3  UNL     1      20.243   0.913  50.488  1.00  0.00     0.063 N 
HETATM   11  C16 UNL     1      18.947   0.487  50.860  1.00  0.00     0.226 A 
HETATM   12  C17 UNL     1      18.307  -0.095  51.823  1.00  0.00     0.059 A 
HETATM   13  H13 UNL     1      23.448   1.705  50.114  1.00  0.00     0.191 HD
HETATM   14  H14 UNL     1      20.623   0.545  51.414  1.00  0.00     0.311 HD
ENDROOT
BRANCH   5  15
HETATM   15  C7  UNL     1      24.481   0.408  53.237  1.00  0.00     0.034 C 
HETATM   16  C8  UNL     1      25.607  -0.043  52.770  1.00  0.00     0.015 C 
BRANCH  16  17
HETATM   17  C9  UNL     1      26.976   0.220  53.107  1.00  0.00    -0.014 A 
HETATM   18  C10 UNL     1      27.437   1.473  53.452  1.00  0.00     0.013 A 
HETATM   19  C11 UNL     1      28.748   1.752  53.780  1.00  0.00     0.001 A 
HETATM   20  C12 UNL     1      29.622   0.675  53.747  1.00  0.00     0.002 A 
HETATM   21  C13 UNL     1      29.162  -0.578  53.401  1.00  0.00     0.024 A 
HETATM   22  C14 UNL     1      27.850  -0.840  53.077  1.00  0.00     0.044 A 
HETATM   23 CL1  UNL     1      27.328  -2.448  52.648  1.00  0.00    -0.083 Cl
ENDBRANCH  16  17
ENDBRANCH   5  15
BRANCH   1  24
HETATM   24  O1  UNL     1      17.277  -1.080  53.475  1.00  0.00    -0.359 OA
HETATM   25  C1  UNL     1      16.153  -0.608  52.754  1.00  0.00     0.209 C 
ENDBRANCH   1  24
TORSDOF 3
ENDMDL
MODEL 2
REMARK VINA RESULT:      -8.6      5.387      6.616
REMARK  3 active torsions:
REMARK  status: ('A' for Active; 'I' for Inactive)
REMARK    1  A    between atoms: O1_2  and  C2_3 
REMARK    2  A    between atoms: C6_7  and  C7_8 
REMARK    3  A    between atoms: C8_9  and  C9_10 
ROOT
HETATM    1  C2  UNL     1      22.942  -0.359  53.318  1.00  0.00     0.056 A 
HETATM    2  C3  UNL     1      23.459   0.579  52.490  1.00  0.00     0.079 A 
HETATM    3  C4  UNL     1      23.310   1.550  51.366  1.00  0.00    -0.012 A 
HETATM    4  C5  UNL     1      24.366   2.237  51.023  1.00  0.00     0.030 A 
HETATM    5  C6  UNL     1      25.751   2.575  51.192  1.00  0.00     0.076 A 
HETATM    6  N1  UNL     1      26.236   1.879  52.144  1.00  0.00    -0.173 NA
HETATM    7  N2  UNL     1      27.571   2.026  52.503  1.00  0.00    -0.248 N 
HETATM    8  C15 UNL     1      27.152   1.014  53.452  1.00  0.00     0.306 A 
HETATM    9  S1  UNL     1      28.024   0.245  54.637  1.00  0.00     0.151 SA
HETATM   10  N3  UNL     1      26.287   0.108  54.109  1.00  0.00     0.063 N 
HETATM   11  C16 UNL     1      25.167  -0.655  54.512  1.00  0.00     0.226 A 
HETATM   12  C17 UNL     1      23.917  -0.847  54.236  1.00  0.00     0.059 A 
HETATM   13  H13 UNL     1      28.569   2.126  52.782  1.00  0.00     0.191 HD
HETATM   14  H14 UNL     1      25.691   0.577  53.360  1.00  0.00     0.311 HD
ENDROOT
BRANCH   5  15
HETATM   15  C7  UNL     1      26.401   3.549  50.379  1.00  0.00     0.034 C 
HETATM   16  C8  UNL     1      26.093   4.555  49.615  1.00  0.00     0.015 C 
BRANCH  16  17
HETATM   17  C9  UNL     1      26.883   5.466  48.839  1.00  0.00    -0.014 A 
HETATM   18  C10 UNL     1      28.218   5.255  48.562  1.00  0.00     0.013 A 
HETATM   19  C11 UNL     1      28.999   6.116  47.820  1.00  0.00     0.001 A 
HETATM   20  C12 UNL     1      28.361   7.252  47.342  1.00  0.00     0.002 A 
HETATM   21  C13 UNL     1      27.028   7.465  47.620  1.00  0.00     0.024 A 
HETATM   22  C14 UNL     1      26.262   6.595  48.362  1.00  0.00     0.044 A 
HETATM   23 CL1  UNL     1      24.578   6.919  48.680  1.00  0.00    -0.083 Cl
ENDBRANCH  16  17
ENDBRANCH   5  15
BRANCH   1  24
HETATM   24  O1  UNL     1      21.815  -1.133  53.728  1.00  0.00    -0.359 OA
HETATM   25  C1  UNL     1      20.532  -0.534  53.778  1.00  0.00     0.209 C 
ENDBRANCH   1  24
TORSDOF 3
ENDMDL
MODEL 3
REMARK VINA RESULT:      -8.3      5.280      8.080
REMARK  3 active torsions:
REMARK  status: ('A' for Active; 'I' for Inactive)
REMARK    1  A    between atoms: O1_2  and  C2_3 
REMARK    2  A    between atoms: C6_7  and  C7_8 
REMARK    3  A    between atoms: C8_9  and  C9_10 
ROOT
HETATM    1  C2  UNL     1      27.522   5.525  48.536  1.00  0.00     0.056 A 
HETATM    2  C3  UNL     1      26.860   4.570  49.231  1.00  0.00     0.079 A 
HETATM    3  C4  UNL     1      26.730   3.165  49.716  1.00  0.00    -0.012 A 
HETATM    4  C5  UNL     1      25.693   2.880  50.457  1.00  0.00     0.030 A 
HETATM    5  C6  UNL     1      24.478   3.268  51.117  1.00  0.00     0.076 A 
HETATM    6  N1  UNL     1      24.263   4.506  50.897  1.00  0.00    -0.173 NA
HETATM    7  N2  UNL     1      23.139   5.122  51.435  1.00  0.00    -0.248 N 
HETATM    8  C15 UNL     1      23.742   6.237  50.733  1.00  0.00     0.306 A 
HETATM    9  S1  UNL     1      23.232   7.813  50.606  1.00  0.00     0.151 SA
HETATM   10  N3  UNL     1      24.680   6.936  49.937  1.00  0.00     0.063 N 
HETATM   11  C16 UNL     1      25.789   7.286  49.133  1.00  0.00     0.226 A 
HETATM   12  C17 UNL     1      26.856   6.782  48.599  1.00  0.00     0.059 A 
HETATM   13  H13 UNL     1      22.301   5.596  51.831  1.00  0.00     0.191 HD
HETATM   14  H14 UNL     1      25.043   5.935  49.992  1.00  0.00     0.311 HD
ENDROOT
BRANCH   5  15
HETATM   15  C7  UNL     1      23.698   2.349  51.878  1.00  0.00     0.034 C 
HETATM   16  C8  UNL     1      23.579   1.065  52.045  1.00  0.00     0.015 C 
BRANCH  16  17
HETATM   17  C9  UNL     1      22.720   0.267  52.872  1.00  0.00    -0.014 A 
HETATM   18  C10 UNL     1      21.349   0.237  52.724  1.00  0.00     0.013 A 
HETATM   19  C11 UNL     1      20.504  -0.521  53.506  1.00  0.00     0.001 A 
HETATM   20  C12 UNL     1      21.113  -1.285  54.491  1.00  0.00     0.002 A 
HETATM   21  C13 UNL     1      22.483  -1.255  54.641  1.00  0.00     0.024 A 
HETATM   22  C14 UNL     1      23.314  -0.493  53.851  1.00  0.00     0.044 A 
HETATM   23 CL1  UNL     1      25.042  -0.497  54.089  1.00  0.00    -0.083 Cl
ENDBRANCH  16  17
ENDBRANCH   5  15
BRANCH   1  24
HETATM   24  O1  UNL     1      28.640   5.883  47.723  1.00  0.00    -0.359 OA
HETATM   25  C1  UNL     1      29.948   5.526  48.130  1.00  0.00     0.209 C 
ENDBRANCH   1  24
TORSDOF 3
ENDMDL
MODEL 4
REMARK VINA RESULT:      -8.2      3.472      8.118
REMARK  3 active torsions:
REMARK  status: ('A' for Active; 'I' for Inactive)
REMARK    1  A    between atoms: O1_2  and  C2_3 
REMARK    2  A    between atoms: C6_7  and  C7_8 
REMARK    3  A    between atoms: C8_9  and  C9_10 
ROOT
HETATM    1  C2  UNL     1      26.942   0.229  54.084  1.00  0.00     0.056 A 
HETATM    2  C3  UNL     1      25.636   0.085  53.757  1.00  0.00     0.079 A 
HETATM    3  C4  UNL     1      24.310  -0.573  53.946  1.00  0.00    -0.012 A 
HETATM    4  C5  UNL     1      23.328  -0.175  53.183  1.00  0.00     0.030 A 
HETATM    5  C6  UNL     1      22.813   0.665  52.139  1.00  0.00     0.076 A 
HETATM    6  N1  UNL     1      23.750   1.417  51.710  1.00  0.00    -0.173 NA
HETATM    7  N2  UNL     1      23.499   2.327  50.690  1.00  0.00    -0.248 N 
HETATM    8  C15 UNL     1      24.903   2.587  50.936  1.00  0.00     0.306 A 
HETATM    9  S1  UNL     1      25.926   3.671  50.204  1.00  0.00     0.151 SA
HETATM   10  N3  UNL     1      26.177   2.455  51.535  1.00  0.00     0.063 N 
HETATM   11  C16 UNL     1      27.266   2.052  52.342  1.00  0.00     0.226 A 
HETATM   12  C17 UNL     1      27.576   1.230  53.294  1.00  0.00     0.059 A 
HETATM   13  H13 UNL     1      23.324   3.014  49.926  1.00  0.00     0.191 HD
HETATM   14  H14 UNL     1      25.555   1.745  52.031  1.00  0.00     0.311 HD
ENDROOT
BRANCH   5  15
HETATM   15  C7  UNL     1      21.454   0.602  51.711  1.00  0.00     0.034 C 
HETATM   16  C8  UNL     1      20.335   0.050  52.076  1.00  0.00     0.015 C 
BRANCH  16  17
HETATM   17  C9  UNL     1      19.010   0.081  51.526  1.00  0.00    -0.014 A 
HETATM   18  C10 UNL     1      18.667   0.853  50.436  1.00  0.00     0.013 A 
HETATM   19  C11 UNL     1      17.402   0.900  49.889  1.00  0.00     0.001 A 
HETATM   20  C12 UNL     1      16.446   0.107  50.507  1.00  0.00     0.002 A 
HETATM   21  C13 UNL     1      16.787  -0.664  51.597  1.00  0.00     0.024 A 
HETATM   22  C14 UNL     1      18.056  -0.701  52.131  1.00  0.00     0.044 A 
HETATM   23 CL1  UNL     1      18.428  -1.698  53.513  1.00  0.00    -0.083 Cl
ENDBRANCH  16  17
ENDBRANCH   5  15
BRANCH   1  24
HETATM   24  O1  UNL     1      28.044  -0.174  54.896  1.00  0.00    -0.359 OA
HETATM   25  C1  UNL     1      29.265  -0.551  54.286  1.00  0.00     0.209 C 
ENDBRANCH   1  24
TORSDOF 3
ENDMDL
MODEL 5
REMARK VINA RESULT:      -7.9      2.702      3.192
REMARK  3 active torsions:
REMARK  status: ('A' for Active; 'I' for Inactive)
REMARK    1  A    between atoms: O1_2  and  C2_3 
REMARK    2  A    between atoms: C6_7  and  C7_8 
REMARK    3  A    between atoms: C8_9  and  C9_10 
ROOT
HETATM    1  C2  UNL     1      19.831   2.560  50.993  1.00  0.00     0.056 A 
HETATM    2  C3  UNL     1      21.010   1.976  51.312  1.00  0.00     0.079 A 
HETATM    3  C4  UNL     1      21.811   0.769  51.671  1.00  0.00    -0.012 A 
HETATM    4  C5  UNL     1      23.089   0.937  51.878  1.00  0.00     0.030 A 
HETATM    5  C6  UNL     1      24.247   1.782  51.945  1.00  0.00     0.076 A 
HETATM    6  N1  UNL     1      23.905   2.981  51.673  1.00  0.00    -0.173 NA
HETATM    7  N2  UNL     1      24.857   3.993  51.673  1.00  0.00    -0.248 N 
HETATM    8  C15 UNL     1      23.670   4.746  51.321  1.00  0.00     0.306 A 
HETATM    9  S1  UNL     1      23.497   6.367  51.005  1.00  0.00     0.151 SA
HETATM   10  N3  UNL     1      22.308   4.988  51.027  1.00  0.00     0.063 N 
HETATM   11  C16 UNL     1      20.920   4.848  50.794  1.00  0.00     0.226 A 
HETATM   12  C17 UNL     1      19.978   3.960  50.775  1.00  0.00     0.059 A 
HETATM   13  H13 UNL     1      25.560   4.761  51.668  1.00  0.00     0.191 HD
HETATM   14  H14 UNL     1      22.374   3.943  51.223  1.00  0.00     0.311 HD
ENDROOT
BRANCH   5  15
HETATM   15  C7  UNL     1      25.541   1.277  52.271  1.00  0.00     0.034 C 
HETATM   16  C8  UNL     1      26.081   0.397  53.060  1.00  0.00     0.015 C 
BRANCH  16  17
HETATM   17  C9  UNL     1      27.439  -0.009  53.281  1.00  0.00    -0.014 A 
HETATM   18  C10 UNL     1      28.394   0.826  53.823  1.00  0.00     0.013 A 
HETATM   19  C11 UNL     1      29.705   0.460  54.045  1.00  0.00     0.001 A 
HETATM   20  C12 UNL     1      30.040  -0.838  53.684  1.00  0.00     0.002 A 
HETATM   21  C13 UNL     1      29.087  -1.673  53.141  1.00  0.00     0.024 A 
HETATM   22  C14 UNL     1      27.781  -1.292  52.926  1.00  0.00     0.044 A 
HETATM   23 CL1  UNL     1      26.620  -2.394  52.235  1.00  0.00    -0.083 Cl
ENDBRANCH  16  17
ENDBRANCH   5  15
BRANCH   1  24
HETATM   24  O1  UNL     1      18.429   2.424  50.757  1.00  0.00    -0.359 OA
HETATM   25  C1  UNL     1      17.510   3.155  51.548  1.00  0.00     0.209 C 
ENDBRANCH   1  24
TORSDOF 3
ENDMDL
MODEL 6
REMARK VINA RESULT:      -7.9      4.904      5.834
REMARK  3 active torsions:
REMARK  status: ('A' for Active; 'I' for Inactive)
REMARK    1  A    between atoms: O1_2  and  C2_3 
REMARK    2  A    between atoms: C6_7  and  C7_8 
REMARK    3  A    between atoms: C8_9  and  C9_10 
ROOT
HETATM    1  C2  UNL     1      23.184  -0.263  53.248  1.00  0.00     0.056 A 
HETATM    2  C3  UNL     1      24.049   0.664  52.772  1.00  0.00     0.079 A 
HETATM    3  C4  UNL     1      25.337   1.412  52.863  1.00  0.00    -0.012 A 
HETATM    4  C5  UNL     1      25.581   2.301  51.937  1.00  0.00     0.030 A 
HETATM    5  C6  UNL     1      25.203   3.005  50.746  1.00  0.00     0.076 A 
HETATM    6  N1  UNL     1      24.061   2.587  50.359  1.00  0.00    -0.173 NA
HETATM    7  N2  UNL     1      23.476   3.120  49.217  1.00  0.00    -0.248 N 
HETATM    8  C15 UNL     1      22.463   2.162  49.611  1.00  0.00     0.306 A 
HETATM    9  S1  UNL     1      21.008   1.802  48.896  1.00  0.00     0.151 SA
HETATM   10  N3  UNL     1      21.838   1.153  50.381  1.00  0.00     0.063 N 
HETATM   11  C16 UNL     1      21.536   0.182  51.363  1.00  0.00     0.226 A 
HETATM   12  C17 UNL     1      22.018  -0.362  52.435  1.00  0.00     0.059 A 
HETATM   13  H13 UNL     1      23.026   3.511  48.363  1.00  0.00     0.191 HD
HETATM   14  H14 UNL     1      22.763   1.354  50.872  1.00  0.00     0.311 HD
ENDROOT
BRANCH   5  15
HETATM   15  C7  UNL     1      26.034   4.002  50.154  1.00  0.00     0.034 C 
HETATM   16  C8  UNL     1      26.597   4.259  49.010  1.00  0.00     0.015 C 
BRANCH  16  17
HETATM   17  C9  UNL     1      27.430   5.334  48.556  1.00  0.00    -0.014 A 
HETATM   18  C10 UNL     1      28.802   5.229  48.452  1.00  0.00     0.013 A 
HETATM   19  C11 UNL     1      29.624   6.248  48.019  1.00  0.00     0.001 A 
HETATM   20  C12 UNL     1      28.990   7.433  47.677  1.00  0.00     0.002 A 
HETATM   21  C13 UNL     1      27.620   7.540  47.780  1.00  0.00     0.024 A 
HETATM   22  C14 UNL     1      26.812   6.513  48.215  1.00  0.00     0.044 A 
HETATM   23 CL1  UNL     1      25.082   6.707  48.325  1.00  0.00    -0.083 Cl
ENDBRANCH  16  17
ENDBRANCH   5  15
BRANCH   1  24
HETATM   24  O1  UNL     1      22.874  -1.245  54.237  1.00  0.00    -0.359 OA
HETATM   25  C1  UNL     1      21.523  -1.569  54.506  1.00  0.00     0.209 C 
ENDBRANCH   1  24
TORSDOF 3
ENDMDL
MODEL 7
REMARK VINA RESULT:      -7.8      1.995      2.445
REMARK  3 active torsions:
REMARK  status: ('A' for Active; 'I' for Inactive)
REMARK    1  A    between atoms: O1_2  and  C2_3 
REMARK    2  A    between atoms: C6_7  and  C7_8 
REMARK    3  A    between atoms: C8_9  and  C9_10 
ROOT
HETATM    1  C2  UNL     1      19.200   1.263  51.656  1.00  0.00     0.056 A 
HETATM    2  C3  UNL     1      20.395   0.789  52.081  1.00  0.00     0.079 A 
HETATM    3  C4  UNL     1      21.205  -0.178  52.879  1.00  0.00    -0.012 A 
HETATM    4  C5  UNL     1      22.504  -0.051  52.835  1.00  0.00     0.030 A 
HETATM    5  C6  UNL     1      23.684   0.615  52.361  1.00  0.00     0.076 A 
HETATM    6  N1  UNL     1      23.340   1.573  51.592  1.00  0.00    -0.173 NA
HETATM    7  N2  UNL     1      24.311   2.374  51.003  1.00  0.00    -0.248 N 
HETATM    8  C15 UNL     1      23.108   2.981  50.471  1.00  0.00     0.306 A 
HETATM    9  S1  UNL     1      22.937   4.275  49.442  1.00  0.00     0.151 SA
HETATM   10  N3  UNL     1      21.725   3.183  50.251  1.00  0.00     0.063 N 
HETATM   11  C16 UNL     1      20.315   3.080  50.271  1.00  0.00     0.226 A 
HETATM   12  C17 UNL     1      19.355   2.378  50.783  1.00  0.00     0.059 A 
HETATM   13  H13 UNL     1      25.028   2.982  50.554  1.00  0.00     0.191 HD
HETATM   14  H14 UNL     1      21.789   2.350  50.913  1.00  0.00     0.311 HD
ENDROOT
BRANCH   5  15
HETATM   15  C7  UNL     1      24.995   0.203  52.740  1.00  0.00     0.034 C 
HETATM   16  C8  UNL     1      26.205   0.220  52.266  1.00  0.00     0.015 C 
BRANCH  16  17
HETATM   17  C9  UNL     1      27.459  -0.248  52.782  1.00  0.00    -0.014 A 
HETATM   18  C10 UNL     1      27.816  -1.580  52.796  1.00  0.00     0.013 A 
HETATM   19  C11 UNL     1      29.014  -2.055  53.287  1.00  0.00     0.001 A 
HETATM   20  C12 UNL     1      29.885  -1.097  53.787  1.00  0.00     0.002 A 
HETATM   21  C13 UNL     1      29.530   0.235  53.774  1.00  0.00     0.024 A 
HETATM   22  C14 UNL     1      28.329   0.693  53.280  1.00  0.00     0.044 A 
HETATM   23 CL1  UNL     1      27.936   2.392  53.290  1.00  0.00    -0.083 Cl
ENDBRANCH  16  17
ENDBRANCH   5  15
BRANCH   1  24
HETATM   24  O1  UNL     1      17.776   1.164  51.673  1.00  0.00    -0.359 OA
HETATM   25  C1  UNL     1      16.989   2.316  51.435  1.00  0.00     0.209 C 
ENDBRANCH   1  24
TORSDOF 3
ENDMDL
MODEL 8
REMARK VINA RESULT:      -7.6      6.460      8.818
REMARK  3 active torsions:
REMARK  status: ('A' for Active; 'I' for Inactive)
REMARK    1  A    between atoms: O1_2  and  C2_3 
REMARK    2  A    between atoms: C6_7  and  C7_8 
REMARK    3  A    between atoms: C8_9  and  C9_10 
ROOT
HETATM    1  C2  UNL     1      28.103   7.217  47.482  1.00  0.00     0.056 A 
HETATM    2  C3  UNL     1      27.638   6.143  48.164  1.00  0.00     0.079 A 
HETATM    3  C4  UNL     1      27.799   4.746  48.662  1.00  0.00    -0.012 A 
HETATM    4  C5  UNL     1      26.821   4.243  49.367  1.00  0.00     0.030 A 
HETATM    5  C6  UNL     1      25.526   4.359  49.975  1.00  0.00     0.076 A 
HETATM    6  N1  UNL     1      25.054   5.519  49.732  1.00  0.00    -0.173 NA
HETATM    7  N2  UNL     1      23.802   5.876  50.219  1.00  0.00    -0.248 N 
HETATM    8  C15 UNL     1      24.174   7.093  49.526  1.00  0.00     0.306 A 
HETATM    9  S1  UNL     1      23.336   8.517  49.360  1.00  0.00     0.151 SA
HETATM   10  N3  UNL     1      24.967   7.976  48.758  1.00  0.00     0.063 N 
HETATM   11  C16 UNL     1      26.003   8.558  47.991  1.00  0.00     0.226 A 
HETATM   12  C17 UNL     1      27.175   8.298  47.505  1.00  0.00     0.059 A 
HETATM   13  H13 UNL     1      22.866   6.156  50.578  1.00  0.00     0.191 HD
HETATM   14  H14 UNL     1      25.538   7.080  48.838  1.00  0.00     0.311 HD
ENDROOT
BRANCH   5  15
HETATM   15  C7  UNL     1      24.937   3.294  50.718  1.00  0.00     0.034 C 
HETATM   16  C8  UNL     1      25.157   2.615  51.805  1.00  0.00     0.015 C 
BRANCH  16  17
HETATM   17  C9  UNL     1      24.451   1.540  52.440  1.00  0.00    -0.014 A 
HETATM   18  C10 UNL     1      23.119   1.618  52.789  1.00  0.00     0.013 A 
HETATM   19  C11 UNL     1      22.419   0.599  53.400  1.00  0.00     0.001 A 
HETATM   20  C12 UNL     1      23.140  -0.557  53.664  1.00  0.00     0.002 A 
HETATM   21  C13 UNL     1      24.472  -0.636  53.317  1.00  0.00     0.024 A 
HETATM   22  C14 UNL     1      25.156   0.390  52.706  1.00  0.00     0.044 A 
HETATM   23 CL1  UNL     1      26.843   0.231  52.291  1.00  0.00    -0.083 Cl
ENDBRANCH  16  17
ENDBRANCH   5  15
BRANCH   1  24
HETATM   24  O1  UNL     1      29.146   7.808  46.708  1.00  0.00    -0.359 OA
HETATM   25  C1  UNL     1      29.639   9.089  47.056  1.00  0.00     0.209 C 
ENDBRANCH   1  24
TORSDOF 3
ENDMDL
MODEL 9
REMARK VINA RESULT:      -7.5      5.360      6.496
REMARK  3 active torsions:
REMARK  status: ('A' for Active; 'I' for Inactive)
REMARK    1  A    between atoms: O1_2  and  C2_3 
REMARK    2  A    between atoms: C6_7  and  C7_8 
REMARK    3  A    between atoms: C8_9  and  C9_10 
ROOT
HETATM    1  C2  UNL     1      22.236   5.424  47.378  1.00  0.00     0.056 A 
HETATM    2  C3  UNL     1      22.982   4.652  48.203  1.00  0.00     0.079 A 
HETATM    3  C4  UNL     1      23.152   3.435  49.049  1.00  0.00    -0.012 A 
HETATM    4  C5  UNL     1      24.295   3.285  49.663  1.00  0.00     0.030 A 
HETATM    5  C6  UNL     1      25.619   3.743  49.976  1.00  0.00     0.076 A 
HETATM    6  N1  UNL     1      25.830   4.848  49.375  1.00  0.00    -0.173 NA
HETATM    7  N2  UNL     1      27.051   5.497  49.521  1.00  0.00    -0.248 N 
HETATM    8  C15 UNL     1      26.368   6.414  48.631  1.00  0.00     0.306 A 
HETATM    9  S1  UNL     1      26.898   7.842  47.969  1.00  0.00     0.151 SA
HETATM   10  N3  UNL     1      25.327   6.934  47.828  1.00  0.00     0.063 N 
HETATM   11  C16 UNL     1      24.104   7.133  47.147  1.00  0.00     0.226 A 
HETATM   12  C17 UNL     1      22.943   6.589  46.962  1.00  0.00     0.059 A 
HETATM   13  H13 UNL     1      27.961   5.993  49.621  1.00  0.00     0.191 HD
HETATM   14  H14 UNL     1      24.946   6.024  48.232  1.00  0.00     0.311 HD
ENDROOT
BRANCH   5  15
HETATM   15  C7  UNL     1      26.494   3.012  50.833  1.00  0.00     0.034 C 
HETATM   16  C8  UNL     1      26.495   2.496  52.026  1.00  0.00     0.015 C 
BRANCH  16  17
HETATM   17  C9  UNL     1      27.482   1.769  52.770  1.00  0.00    -0.014 A 
HETATM   18  C10 UNL     1      28.480   2.385  53.497  1.00  0.00     0.013 A 
HETATM   19  C11 UNL     1      29.439   1.708  54.220  1.00  0.00     0.001 A 
HETATM   20  C12 UNL     1      29.359   0.324  54.186  1.00  0.00     0.002 A 
HETATM   21  C13 UNL     1      28.363  -0.293  53.459  1.00  0.00     0.024 A 
HETATM   22  C14 UNL     1      27.411   0.397  52.742  1.00  0.00     0.044 A 
HETATM   23 CL1  UNL     1      26.174  -0.441  51.842  1.00  0.00    -0.083 Cl
ENDBRANCH  16  17
ENDBRANCH   5  15
BRANCH   1  24
HETATM   24  O1  UNL     1      21.004   5.630  46.687  1.00  0.00    -0.359 OA
HETATM   25  C1  UNL     1      21.015   5.931  45.304  1.00  0.00     0.209 C 
ENDBRANCH   1  24
TORSDOF 3
ENDMDL
