MODEL 1
REMARK VINA RESULT:      -8.0      0.000      0.000
REMARK  1 active torsions:
REMARK  status: ('A' for Active; 'I' for Inactive)
REMARK    1  A    between atoms: C8_9  and  C9_10 
ROOT
HETATM    1  C1  UNL     1      24.922   0.924  52.582  1.00  0.00     0.045 C 
HETATM    2  C2  UNL     1      25.436   1.774  51.727  1.00  0.00     0.050 A 
HETATM    3  N1  UNL     1      26.715   2.149  51.648  1.00  0.00    -0.270 NA
HETATM    4  C3  UNL     1      26.735   3.047  50.602  1.00  0.00     0.129 A 
HETATM    5  C4  UNL     1      26.542   3.980  49.444  1.00  0.00    -0.028 A 
HETATM    6  C5  UNL     1      25.494   3.347  49.907  1.00  0.00     0.068 A 
HETATM    7  C6  UNL     1      24.844   2.497  50.718  1.00  0.00    -0.016 A 
HETATM    8  C7  UNL     1      23.559   2.505  50.405  1.00  0.00    -0.003 C 
HETATM    9  C8  UNL     1      22.433   2.951  49.601  1.00  0.00     0.096 C 
HETATM   10  C10 UNL     1      21.449   3.816  50.301  1.00  0.00     0.157 C 
HETATM   11  O1  UNL     1      20.425   4.010  50.992  1.00  0.00    -0.293 OA
HETATM   12  C11 UNL     1      21.417   5.258  50.382  1.00  0.00     0.048 C 
HETATM   13  C12 UNL     1      21.008   6.456  50.710  1.00  0.00     0.007 C 
HETATM   14  C13 UNL     1      21.592   7.819  50.356  1.00  0.00     0.299 C 
HETATM   15  N2  UNL     1      22.807   7.574  49.569  1.00  0.00     0.088 N 
HETATM   16  C14 UNL     1      22.916   8.865  48.799  1.00  0.00     0.310 C 
HETATM   17  C15 UNL     1      23.962   7.728  50.492  1.00  0.00     0.292 C 
HETATM   18  C16 UNL     1      25.114   7.170  49.805  1.00  0.00     0.119 A 
HETATM   19  C17 UNL     1      26.204   6.862  49.190  1.00  0.00    -0.005 A 
HETATM   20 BR1  UNL     1      26.212   8.745  49.464  1.00  0.00    -0.120 Br
HETATM   21  C18 UNL     1      27.267   6.096  48.645  1.00  0.00     0.015 C 
HETATM   22  C19 UNL     1      27.469   4.768  48.725  1.00  0.00     0.008 C 
ENDROOT
BRANCH   9  23
HETATM   23  C9  UNL     1      21.673   1.782  49.016  1.00  0.00     0.131 C 
HETATM   24 CL1  UNL     1      21.444   0.563  50.291  1.00  0.00    -0.129 Cl
ENDBRANCH   9  23
TORSDOF 1
ENDMDL
MODEL 2
REMARK VINA RESULT:      -7.8      3.825      6.909
REMARK  1 active torsions:
REMARK  status: ('A' for Active; 'I' for Inactive)
REMARK    1  A    between atoms: C8_9  and  C9_10 
ROOT
HETATM    1  C1  UNL     1      19.770   4.978  50.925  1.00  0.00     0.045 C 
HETATM    2  C2  UNL     1      20.052   3.765  51.333  1.00  0.00     0.050 A 
HETATM    3  N1  UNL     1      19.460   3.101  52.328  1.00  0.00    -0.270 NA
HETATM    4  C3  UNL     1      20.114   1.888  52.355  1.00  0.00     0.129 A 
HETATM    5  C4  UNL     1      20.939   0.644  52.212  1.00  0.00    -0.028 A 
HETATM    6  C5  UNL     1      21.182   1.643  51.400  1.00  0.00     0.068 A 
HETATM    7  C6  UNL     1      20.992   2.867  50.885  1.00  0.00    -0.016 A 
HETATM    8  C7  UNL     1      21.874   3.066  49.919  1.00  0.00    -0.003 C 
HETATM    9  C8  UNL     1      22.972   2.635  49.070  1.00  0.00     0.096 C 
HETATM   10  C10 UNL     1      24.269   3.320  49.304  1.00  0.00     0.157 C 
HETATM   11  O1  UNL     1      25.102   4.233  49.111  1.00  0.00    -0.293 OA
HETATM   12  C11 UNL     1      25.350   2.924  50.179  1.00  0.00     0.048 C 
HETATM   13  C12 UNL     1      26.504   2.963  50.792  1.00  0.00     0.007 C 
HETATM   14  C13 UNL     1      27.111   1.989  51.795  1.00  0.00     0.299 C 
HETATM   15  N2  UNL     1      26.113   0.939  52.032  1.00  0.00     0.088 N 
HETATM   16  C14 UNL     1      26.993  -0.197  52.486  1.00  0.00     0.310 C 
HETATM   17  C15 UNL     1      25.434   1.265  53.314  1.00  0.00     0.292 C 
HETATM   18  C16 UNL     1      24.248   0.428  53.375  1.00  0.00     0.119 A 
HETATM   19  C17 UNL     1      23.287  -0.406  53.580  1.00  0.00    -0.005 A 
HETATM   20 BR1  UNL     1      24.661  -0.794  54.837  1.00  0.00    -0.120 Br
HETATM   21  C18 UNL     1      22.007  -1.017  53.531  1.00  0.00     0.015 C 
HETATM   22  C19 UNL     1      20.894  -0.583  52.911  1.00  0.00     0.008 C 
ENDROOT
BRANCH   9  23
HETATM   23  C9  UNL     1      22.634   2.794  47.605  1.00  0.00     0.131 C 
HETATM   24 CL1  UNL     1      22.099   4.467  47.327  1.00  0.00    -0.129 Cl
ENDBRANCH   9  23
TORSDOF 1
ENDMDL
MODEL 3
REMARK VINA RESULT:      -7.6      4.204      6.414
REMARK  1 active torsions:
REMARK  status: ('A' for Active; 'I' for Inactive)
REMARK    1  A    between atoms: C8_9  and  C9_10 
ROOT
HETATM    1  C1  UNL     1      26.517   0.582  51.723  1.00  0.00     0.045 C 
HETATM    2  C2  UNL     1      25.355   0.492  52.325  1.00  0.00     0.050 A 
HETATM    3  N1  UNL     1      24.926  -0.520  53.082  1.00  0.00    -0.270 NA
HETATM    4  C3  UNL     1      23.662  -0.133  53.470  1.00  0.00     0.129 A 
HETATM    5  C4  UNL     1      22.325   0.472  53.780  1.00  0.00    -0.028 A 
HETATM    6  C5  UNL     1      23.144   1.145  53.010  1.00  0.00     0.068 A 
HETATM    7  C6  UNL     1      24.292   1.363  52.349  1.00  0.00    -0.016 A 
HETATM    8  C7  UNL     1      24.204   2.519  51.711  1.00  0.00    -0.003 C 
HETATM    9  C8  UNL     1      23.503   3.738  51.347  1.00  0.00     0.096 C 
HETATM   10  C10 UNL     1      23.078   3.833  49.928  1.00  0.00     0.157 C 
HETATM   11  O1  UNL     1      23.251   4.137  48.727  1.00  0.00    -0.293 OA
HETATM   12  C11 UNL     1      21.819   3.437  49.338  1.00  0.00     0.048 C 
HETATM   13  C12 UNL     1      20.906   3.238  48.423  1.00  0.00     0.007 C 
HETATM   14  C13 UNL     1      19.501   2.662  48.555  1.00  0.00     0.299 C 
HETATM   15  N2  UNL     1      19.321   2.286  49.963  1.00  0.00     0.088 N 
HETATM   16  C14 UNL     1      17.820   2.336  50.084  1.00  0.00     0.310 C 
HETATM   17  C15 UNL     1      19.536   0.817  50.051  1.00  0.00     0.292 C 
HETATM   18  C16 UNL     1      19.684   0.508  51.463  1.00  0.00     0.119 A 
HETATM   19  C17 UNL     1      19.641   0.139  52.697  1.00  0.00    -0.005 A 
HETATM   20 BR1  UNL     1      18.071  -0.518  51.847  1.00  0.00    -0.120 Br
HETATM   21  C18 UNL     1      20.043  -0.135  54.031  1.00  0.00     0.015 C 
HETATM   22  C19 UNL     1      21.261   0.006  54.585  1.00  0.00     0.008 C 
ENDROOT
BRANCH   9  23
HETATM   23  C9  UNL     1      24.330   4.965  51.656  1.00  0.00     0.131 C 
HETATM   24 CL1  UNL     1      23.390   6.407  51.209  1.00  0.00    -0.129 Cl
ENDBRANCH   9  23
TORSDOF 1
ENDMDL
MODEL 4
REMARK VINA RESULT:      -7.3      3.607      5.514
REMARK  1 active torsions:
REMARK  status: ('A' for Active; 'I' for Inactive)
REMARK    1  A    between atoms: C8_9  and  C9_10 
ROOT
HETATM    1  C1  UNL     1      27.616   4.730  48.588  1.00  0.00     0.045 C 
HETATM    2  C2  UNL     1      26.767   4.279  49.480  1.00  0.00     0.050 A 
HETATM    3  N1  UNL     1      27.000   3.339  50.397  1.00  0.00    -0.270 NA
HETATM    4  C3  UNL     1      25.804   3.230  51.075  1.00  0.00     0.129 A 
HETATM    5  C4  UNL     1      24.433   3.274  51.680  1.00  0.00    -0.028 A 
HETATM    6  C5  UNL     1      24.689   4.072  50.674  1.00  0.00     0.068 A 
HETATM    7  C6  UNL     1      25.457   4.619  49.719  1.00  0.00    -0.016 A 
HETATM    8  C7  UNL     1      24.734   5.497  49.041  1.00  0.00    -0.003 C 
HETATM    9  C8  UNL     1      23.504   6.227  48.785  1.00  0.00     0.096 C 
HETATM   10  C10 UNL     1      22.802   5.876  47.525  1.00  0.00     0.157 C 
HETATM   11  O1  UNL     1      22.572   5.999  46.301  1.00  0.00    -0.293 OA
HETATM   12  C11 UNL     1      21.762   4.894  47.319  1.00  0.00     0.048 C 
HETATM   13  C12 UNL     1      20.868   4.171  46.696  1.00  0.00     0.007 C 
HETATM   14  C13 UNL     1      19.928   3.099  47.236  1.00  0.00     0.299 C 
HETATM   15  N2  UNL     1      20.227   2.947  48.666  1.00  0.00     0.088 N 
HETATM   16  C14 UNL     1      18.921   2.393  49.175  1.00  0.00     0.310 C 
HETATM   17  C15 UNL     1      21.088   1.743  48.805  1.00  0.00     0.292 C 
HETATM   18  C16 UNL     1      21.643   1.788  50.147  1.00  0.00     0.119 A 
HETATM   19  C17 UNL     1      22.022   1.667  51.372  1.00  0.00    -0.005 A 
HETATM   20 BR1  UNL     1      20.775   0.275  51.019  1.00  0.00    -0.120 Br
HETATM   21  C18 UNL     1      22.767   1.833  52.569  1.00  0.00     0.015 C 
HETATM   22  C19 UNL     1      23.878   2.565  52.770  1.00  0.00     0.008 C 
ENDROOT
BRANCH   9  23
HETATM   23  C9  UNL     1      23.740   7.721  48.771  1.00  0.00     0.131 C 
HETATM   24 CL1  UNL     1      24.368   8.208  50.362  1.00  0.00    -0.129 Cl
ENDBRANCH   9  23
TORSDOF 1
ENDMDL
MODEL 5
REMARK VINA RESULT:      -7.2      3.634      7.034
REMARK  1 active torsions:
REMARK  status: ('A' for Active; 'I' for Inactive)
REMARK    1  A    between atoms: C8_9  and  C9_10 
ROOT
HETATM    1  C1  UNL     1      24.158   7.121  51.208  1.00  0.00     0.045 C 
HETATM    2  C2  UNL     1      23.296   6.183  50.902  1.00  0.00     0.050 A 
HETATM    3  N1  UNL     1      21.972   6.321  50.799  1.00  0.00    -0.270 NA
HETATM    4  C3  UNL     1      21.531   5.060  50.462  1.00  0.00     0.129 A 
HETATM    5  C4  UNL     1      21.263   3.630  50.096  1.00  0.00    -0.028 A 
HETATM    6  C5  UNL     1      22.504   3.989  50.315  1.00  0.00     0.068 A 
HETATM    7  C6  UNL     1      23.487   4.853  50.614  1.00  0.00    -0.016 A 
HETATM    8  C7  UNL     1      24.639   4.202  50.619  1.00  0.00    -0.003 C 
HETATM    9  C8  UNL     1      25.441   3.003  50.445  1.00  0.00     0.096 C 
HETATM   10  C10 UNL     1      26.035   2.444  51.687  1.00  0.00     0.157 C 
HETATM   11  O1  UNL     1      26.934   2.349  52.551  1.00  0.00    -0.293 OA
HETATM   12  C11 UNL     1      25.489   1.440  52.571  1.00  0.00     0.048 C 
HETATM   13  C12 UNL     1      25.401   0.624  53.589  1.00  0.00     0.007 C 
HETATM   14  C13 UNL     1      24.299  -0.363  53.959  1.00  0.00     0.299 C 
HETATM   15  N2  UNL     1      23.240  -0.220  52.951  1.00  0.00     0.088 N 
HETATM   16  C14 UNL     1      22.576  -1.570  53.040  1.00  0.00     0.310 C 
HETATM   17  C15 UNL     1      22.178   0.629  53.553  1.00  0.00     0.292 C 
HETATM   18  C16 UNL     1      21.308   1.034  52.462  1.00  0.00     0.119 A 
HETATM   19  C17 UNL     1      20.400   1.278  51.582  1.00  0.00    -0.005 A 
HETATM   20 BR1  UNL     1      19.652   0.085  52.861  1.00  0.00    -0.120 Br
HETATM   21  C18 UNL     1      19.703   1.887  50.505  1.00  0.00     0.015 C 
HETATM   22  C19 UNL     1      20.057   2.964  49.781  1.00  0.00     0.008 C 
ENDROOT
BRANCH   9  23
HETATM   23  C9  UNL     1      26.570   3.230  49.465  1.00  0.00     0.131 C 
HETATM   24 CL1  UNL     1      26.647   4.965  49.084  1.00  0.00    -0.129 Cl
ENDBRANCH   9  23
TORSDOF 1
ENDMDL
MODEL 6
REMARK VINA RESULT:      -7.1      2.302      4.815
REMARK  1 active torsions:
REMARK  status: ('A' for Active; 'I' for Inactive)
REMARK    1  A    between atoms: C8_9  and  C9_10 
ROOT
HETATM    1  C1  UNL     1      21.297   1.603  49.472  1.00  0.00     0.045 C 
HETATM    2  C2  UNL     1      21.360   2.889  49.718  1.00  0.00     0.050 A 
HETATM    3  N1  UNL     1      20.417   3.797  49.454  1.00  0.00    -0.270 NA
HETATM    4  C3  UNL     1      20.964   4.983  49.895  1.00  0.00     0.129 A 
HETATM    5  C4  UNL     1      21.731   6.152  50.437  1.00  0.00    -0.028 A 
HETATM    6  C5  UNL     1      22.296   4.971  50.477  1.00  0.00     0.068 A 
HETATM    7  C6  UNL     1      22.359   3.644  50.284  1.00  0.00    -0.016 A 
HETATM    8  C7  UNL     1      23.541   3.209  50.691  1.00  0.00    -0.003 C 
HETATM    9  C8  UNL     1      24.854   3.412  51.281  1.00  0.00     0.096 C 
HETATM   10  C10 UNL     1      26.003   3.246  50.355  1.00  0.00     0.157 C 
HETATM   11  O1  UNL     1      26.887   2.573  49.780  1.00  0.00    -0.293 OA
HETATM   12  C11 UNL     1      26.672   4.252  49.562  1.00  0.00     0.048 C 
HETATM   13  C12 UNL     1      27.523   4.782  48.723  1.00  0.00     0.007 C 
HETATM   14  C13 UNL     1      27.680   6.231  48.274  1.00  0.00     0.299 C 
HETATM   15  N2  UNL     1      26.620   7.003  48.936  1.00  0.00     0.088 N 
HETATM   16  C14 UNL     1      27.225   8.383  48.932  1.00  0.00     0.310 C 
HETATM   17  C15 UNL     1      25.534   7.195  47.938  1.00  0.00     0.292 C 
HETATM   18  C16 UNL     1      24.374   7.658  48.680  1.00  0.00     0.119 A 
HETATM   19  C17 UNL     1      23.371   8.241  49.240  1.00  0.00    -0.005 A 
HETATM   20 BR1  UNL     1      24.173   9.494  48.055  1.00  0.00    -0.120 Br
HETATM   21  C18 UNL     1      22.172   8.439  49.974  1.00  0.00     0.015 C 
HETATM   22  C19 UNL     1      21.382   7.516  50.553  1.00  0.00     0.008 C 
ENDROOT
BRANCH   9  23
HETATM   23  C9  UNL     1      25.081   2.488  52.456  1.00  0.00     0.131 C 
HETATM   24 CL1  UNL     1      24.227   0.959  52.145  1.00  0.00    -0.129 Cl
ENDBRANCH   9  23
TORSDOF 1
ENDMDL
MODEL 7
REMARK VINA RESULT:      -6.8      4.069      5.916
REMARK  1 active torsions:
REMARK  status: ('A' for Active; 'I' for Inactive)
REMARK    1  A    between atoms: C8_9  and  C9_10 
ROOT
HETATM    1  C1  UNL     1      28.998   5.515  48.136  1.00  0.00     0.045 C 
HETATM    2  C2  UNL     1      27.829   5.144  48.598  1.00  0.00     0.050 A 
HETATM    3  N1  UNL     1      27.512   3.946  49.094  1.00  0.00    -0.270 NA
HETATM    4  C3  UNL     1      26.181   4.067  49.433  1.00  0.00     0.129 A 
HETATM    5  C4  UNL     1      24.752   4.406  49.733  1.00  0.00    -0.028 A 
HETATM    6  C5  UNL     1      25.506   5.332  49.194  1.00  0.00     0.068 A 
HETATM    7  C6  UNL     1      26.646   5.837  48.699  1.00  0.00    -0.016 A 
HETATM    8  C7  UNL     1      26.424   7.080  48.300  1.00  0.00    -0.003 C 
HETATM    9  C8  UNL     1      25.570   8.243  48.126  1.00  0.00     0.096 C 
HETATM   10  C10 UNL     1      25.225   8.578  46.721  1.00  0.00     0.157 C 
HETATM   11  O1  UNL     1      25.425   9.150  45.627  1.00  0.00    -0.293 OA
HETATM   12  C11 UNL     1      24.080   8.150  45.950  1.00  0.00     0.048 C 
HETATM   13  C12 UNL     1      23.266   8.028  44.934  1.00  0.00     0.007 C 
HETATM   14  C13 UNL     1      21.958   7.252  44.817  1.00  0.00     0.299 C 
HETATM   15  N2  UNL     1      21.751   6.565  46.098  1.00  0.00     0.088 N 
HETATM   16  C14 UNL     1      20.255   6.386  46.089  1.00  0.00     0.310 C 
HETATM   17  C15 UNL     1      22.179   5.154  45.909  1.00  0.00     0.292 C 
HETATM   18  C16 UNL     1      22.285   4.576  47.238  1.00  0.00     0.119 A 
HETATM   19  C17 UNL     1      22.222   3.951  48.363  1.00  0.00    -0.005 A 
HETATM   20 BR1  UNL     1      20.825   3.283  47.258  1.00  0.00    -0.120 Br
HETATM   21  C18 UNL     1      22.577   3.457  49.646  1.00  0.00     0.015 C 
HETATM   22  C19 UNL     1      23.723   3.641  50.327  1.00  0.00     0.008 C 
ENDROOT
BRANCH   9  23
HETATM   23  C9  UNL     1      26.182   9.477  48.749  1.00  0.00     0.131 C 
HETATM   24 CL1  UNL     1      27.037   8.995  50.233  1.00  0.00    -0.129 Cl
ENDBRANCH   9  23
TORSDOF 1
ENDMDL
MODEL 8
REMARK VINA RESULT:      -6.8      5.588      6.858
REMARK  1 active torsions:
REMARK  status: ('A' for Active; 'I' for Inactive)
REMARK    1  A    between atoms: C8_9  and  C9_10 
ROOT
HETATM    1  C1  UNL     1      20.772   0.149  54.762  1.00  0.00     0.045 C 
HETATM    2  C2  UNL     1      20.884   0.357  53.473  1.00  0.00     0.050 A 
HETATM    3  N1  UNL     1      21.952   0.838  52.833  1.00  0.00    -0.270 NA
HETATM    4  C3  UNL     1      21.564   0.867  51.511  1.00  0.00     0.129 A 
HETATM    5  C4  UNL     1      20.953   0.812  50.143  1.00  0.00    -0.028 A 
HETATM    6  C5  UNL     1      20.227   0.420  51.159  1.00  0.00     0.068 A 
HETATM    7  C6  UNL     1      19.984   0.158  52.453  1.00  0.00    -0.016 A 
HETATM    8  C7  UNL     1      18.740  -0.280  52.574  1.00  0.00    -0.003 C 
HETATM    9  C8  UNL     1      17.451  -0.663  52.023  1.00  0.00     0.096 C 
HETATM   10  C10 UNL     1      16.319   0.239  52.357  1.00  0.00     0.157 C 
HETATM   11  O1  UNL     1      15.368   0.620  53.074  1.00  0.00    -0.293 OA
HETATM   12  C11 UNL     1      15.824   1.374  51.612  1.00  0.00     0.048 C 
HETATM   13  C12 UNL     1      15.082   2.405  51.305  1.00  0.00     0.007 C 
HETATM   14  C13 UNL     1      15.144   3.328  50.092  1.00  0.00     0.299 C 
HETATM   15  N2  UNL     1      16.280   2.885  49.275  1.00  0.00     0.088 N 
HETATM   16  C14 UNL     1      15.877   3.402  47.918  1.00  0.00     0.310 C 
HETATM   17  C15 UNL     1      17.413   3.803  49.571  1.00  0.00     0.292 C 
HETATM   18  C16 UNL     1      18.604   3.174  49.026  1.00  0.00     0.119 A 
HETATM   19  C17 UNL     1      19.661   2.767  48.412  1.00  0.00    -0.005 A 
HETATM   20 BR1  UNL     1      19.080   4.364  47.556  1.00  0.00    -0.120 Br
HETATM   21  C18 UNL     1      20.853   2.053  48.120  1.00  0.00     0.015 C 
HETATM   22  C19 UNL     1      21.487   1.137  48.875  1.00  0.00     0.008 C 
ENDROOT
BRANCH   9  23
HETATM   23  C9  UNL     1      17.060  -2.059  52.450  1.00  0.00     0.131 C 
HETATM   24 CL1  UNL     1      18.093  -2.542  53.815  1.00  0.00    -0.129 Cl
ENDBRANCH   9  23
TORSDOF 1
ENDMDL
MODEL 9
REMARK VINA RESULT:      -6.7      2.994      5.543
REMARK  1 active torsions:
REMARK  status: ('A' for Active; 'I' for Inactive)
REMARK    1  A    between atoms: C8_9  and  C9_10 
ROOT
HETATM    1  C1  UNL     1      21.851   3.581  46.846  1.00  0.00     0.045 C 
HETATM    2  C2  UNL     1      22.126   4.829  47.135  1.00  0.00     0.050 A 
HETATM    3  N1  UNL     1      21.582   5.914  46.580  1.00  0.00    -0.270 NA
HETATM    4  C3  UNL     1      22.203   6.964  47.221  1.00  0.00     0.129 A 
HETATM    5  C4  UNL     1      22.983   7.953  48.035  1.00  0.00    -0.028 A 
HETATM    6  C5  UNL     1      23.200   6.678  48.239  1.00  0.00     0.068 A 
HETATM    7  C6  UNL     1      23.011   5.364  48.041  1.00  0.00    -0.016 A 
HETATM    8  C7  UNL     1      23.834   4.691  48.830  1.00  0.00    -0.003 C 
HETATM    9  C8  UNL     1      24.863   4.617  49.853  1.00  0.00     0.096 C 
HETATM   10  C10 UNL     1      26.190   4.136  49.393  1.00  0.00     0.157 C 
HETATM   11  O1  UNL     1      27.034   3.245  49.150  1.00  0.00    -0.293 OA
HETATM   12  C11 UNL     1      27.313   4.912  48.920  1.00  0.00     0.048 C 
HETATM   13  C12 UNL     1      28.506   5.181  48.455  1.00  0.00     0.007 C 
HETATM   14  C13 UNL     1      29.150   6.525  48.134  1.00  0.00     0.299 C 
HETATM   15  N2  UNL     1      28.140   7.558  48.397  1.00  0.00     0.088 N 
HETATM   16  C14 UNL     1      29.016   8.759  48.649  1.00  0.00     0.310 C 
HETATM   17  C15 UNL     1      27.554   7.940  47.085  1.00  0.00     0.292 C 
HETATM   18  C16 UNL     1      26.352   8.701  47.378  1.00  0.00     0.119 A 
HETATM   19  C17 UNL     1      25.385   9.532  47.561  1.00  0.00    -0.005 A 
HETATM   20 BR1  UNL     1      26.826  10.495  46.776  1.00  0.00    -0.120 Br
HETATM   21  C18 UNL     1      24.088  10.045  47.826  1.00  0.00     0.015 C 
HETATM   22  C19 UNL     1      22.950   9.365  48.058  1.00  0.00     0.008 C 
ENDROOT
BRANCH   9  23
HETATM   23  C9  UNL     1      24.436   3.735  51.005  1.00  0.00     0.131 C 
HETATM   24 CL1  UNL     1      23.605   2.308  50.344  1.00  0.00    -0.129 Cl
ENDBRANCH   9  23
TORSDOF 1
ENDMDL
