MODEL 1
REMARK VINA RESULT:      -9.5      0.000      0.000
REMARK  4 active torsions:
REMARK  status: ('A' for Active; 'I' for Inactive)
REMARK    1  A    between atoms: C7_9  and  C8_10 
REMARK    2  A    between atoms: C10_13  and  N4_14 
REMARK    3  A    between atoms: C11_15  and  C12_16 
REMARK    4  A    between atoms: N6_24  and  C19_25 
ROOT
HETATM    1  C8  UNL     1      21.883  -0.292  53.155  1.00  0.00     0.089 A 
HETATM    2  C9  UNL     1      21.450  -0.933  54.265  1.00  0.00     0.151 A 
HETATM    3  N3  UNL     1      22.323  -1.339  55.185  1.00  0.00    -0.244 NA
HETATM    4  C10 UNL     1      23.645  -1.154  55.088  1.00  0.00     0.133 A 
HETATM    5  C11 UNL     1      24.066  -0.503  53.954  1.00  0.00     0.143 A 
HETATM    6  N7  UNL     1      23.194  -0.078  53.001  1.00  0.00    -0.239 NA
ENDROOT
BRANCH   1   7
HETATM    7  C7  UNL     1      21.229   0.267  52.053  1.00  0.00     0.038 A 
HETATM    8  C5  UNL     1      19.918   0.075  52.092  1.00  0.00     0.069 A 
HETATM    9  C4  UNL     1      18.728  -0.441  52.734  1.00  0.00     0.062 C 
HETATM   10  N1  UNL     1      19.456   0.578  51.031  1.00  0.00    -0.177 NA
HETATM   11  C3  UNL     1      17.505  -0.509  51.779  1.00  0.00     0.010 C 
HETATM   12  C2  UNL     1      17.267   0.673  50.923  1.00  0.00    -0.017 C 
HETATM   13  C1  UNL     1      17.118   1.897  51.793  1.00  0.00     0.010 C 
HETATM   14  C21 UNL     1      17.851   0.916  49.616  1.00  0.00     0.026 C 
HETATM   15  C20 UNL     1      19.223   1.435  49.363  1.00  0.00     0.151 C 
HETATM   16  N2  UNL     1      20.262   1.105  50.240  1.00  0.00    -0.280 N 
HETATM   17  C6  UNL     1      21.378   0.906  50.889  1.00  0.00     0.128 A 
ENDBRANCH   1   7
BRANCH   5  18
HETATM   18  C12 UNL     1      25.502  -0.306  53.829  1.00  0.00     0.170 A 
HETATM   19  N5  UNL     1      26.399  -1.291  53.675  1.00  0.00    -0.226 NA
HETATM   20  C13 UNL     1      27.637  -0.786  53.588  1.00  0.00     0.086 A 
HETATM   21  C14 UNL     1      28.849  -1.420  53.426  1.00  0.00     0.034 A 
HETATM   22  C18 UNL     1      27.558   0.586  53.687  1.00  0.00     0.072 A 
HETATM   23  C15 UNL     1      29.992  -0.628  53.366  1.00  0.00     0.002 A 
HETATM   24  C16 UNL     1      29.888   0.737  53.467  1.00  0.00     0.002 A 
HETATM   25  C17 UNL     1      28.673   1.395  53.631  1.00  0.00     0.032 A 
HETATM   26  N6  UNL     1      26.242   0.812  53.831  1.00  0.00    -0.269 N 
BRANCH  26  27
HETATM   27  C19 UNL     1      25.746   2.117  53.963  1.00  0.00     0.362 C 
HETATM   28  O1  UNL     1      24.902   2.901  53.482  1.00  0.00    -0.283 OA
ENDBRANCH  26  27
ENDBRANCH   5  18
BRANCH   4  29
HETATM   29  N4  UNL     1      24.442  -1.643  56.159  1.00  0.00    -0.285 NA
HETATM   30  H11 UNL     1      24.234  -2.417  56.840  1.00  0.00     0.125 HD
HETATM   31  H12 UNL     1      24.231  -2.410  56.830  1.00  0.00     0.125 HD
ENDBRANCH   4  29
TORSDOF 4
ENDMDL
MODEL 2
REMARK VINA RESULT:      -9.5      1.557      2.302
REMARK  4 active torsions:
REMARK  status: ('A' for Active; 'I' for Inactive)
REMARK    1  A    between atoms: C7_9  and  C8_10 
REMARK    2  A    between atoms: C10_13  and  N4_14 
REMARK    3  A    between atoms: C11_15  and  C12_16 
REMARK    4  A    between atoms: N6_24  and  C19_25 
ROOT
HETATM    1  C8  UNL     1      22.053  -0.099  52.822  1.00  0.00     0.089 A 
HETATM    2  C9  UNL     1      21.521  -0.676  53.924  1.00  0.00     0.151 A 
HETATM    3  N3  UNL     1      22.317  -1.114  54.898  1.00  0.00    -0.244 NA
HETATM    4  C10 UNL     1      23.652  -1.023  54.865  1.00  0.00     0.133 A 
HETATM    5  C11 UNL     1      24.173  -0.434  53.738  1.00  0.00     0.143 A 
HETATM    6  N7  UNL     1      23.381   0.021  52.731  1.00  0.00    -0.239 NA
ENDROOT
BRANCH   1   7
HETATM    7  C7  UNL     1      21.495   0.473  51.675  1.00  0.00     0.038 A 
HETATM    8  C5  UNL     1      21.521   1.797  51.705  1.00  0.00     0.069 A 
HETATM    9  C4  UNL     1      21.861   3.046  52.351  1.00  0.00     0.062 C 
HETATM   10  N1  UNL     1      20.951   2.186  50.649  1.00  0.00    -0.177 NA
HETATM   11  C3  UNL     1      21.123   4.267  51.737  1.00  0.00     0.010 C 
HETATM   12  C2  UNL     1      21.079   4.341  50.260  1.00  0.00    -0.017 C 
HETATM   13  C1  UNL     1      22.487   4.321  49.718  1.00  0.00     0.010 C 
HETATM   14  C21 UNL     1      20.081   3.729  49.401  1.00  0.00     0.026 C 
HETATM   15  C20 UNL     1      20.052   2.299  48.990  1.00  0.00     0.151 C 
HETATM   16  N2  UNL     1      20.521   1.315  49.867  1.00  0.00    -0.280 N 
HETATM   17  C6  UNL     1      20.866   0.237  50.519  1.00  0.00     0.128 A 
ENDBRANCH   1   7
BRANCH   5  18
HETATM   18  C12 UNL     1      25.624  -0.339  53.683  1.00  0.00     0.170 A 
HETATM   19  N5  UNL     1      26.452  -1.380  53.509  1.00  0.00    -0.226 NA
HETATM   20  C13 UNL     1      27.727  -0.965  53.501  1.00  0.00     0.086 A 
HETATM   21  C14 UNL     1      28.896  -1.678  53.352  1.00  0.00     0.034 A 
HETATM   22  C18 UNL     1      27.744   0.402  53.674  1.00  0.00     0.072 A 
HETATM   23  C15 UNL     1      30.095  -0.973  53.383  1.00  0.00     0.002 A 
HETATM   24  C16 UNL     1      30.086   0.389  53.558  1.00  0.00     0.002 A 
HETATM   25  C17 UNL     1      28.916   1.126  53.710  1.00  0.00     0.032 A 
HETATM   26  N6  UNL     1      26.442   0.717  53.778  1.00  0.00    -0.269 N 
BRANCH  26  27
HETATM   27  C19 UNL     1      26.038   2.048  53.965  1.00  0.00     0.362 C 
HETATM   28  O1  UNL     1      25.157   2.864  53.622  1.00  0.00    -0.283 OA
ENDBRANCH  26  27
ENDBRANCH   5  18
BRANCH   4  29
HETATM   29  N4  UNL     1      24.359  -1.534  55.988  1.00  0.00    -0.285 NA
HETATM   30  H11 UNL     1      24.010  -1.720  56.962  1.00  0.00     0.125 HD
HETATM   31  H12 UNL     1      24.007  -1.716  56.950  1.00  0.00     0.125 HD
ENDBRANCH   4  29
TORSDOF 4
ENDMDL
MODEL 3
REMARK VINA RESULT:      -9.3      3.195      4.462
REMARK  4 active torsions:
REMARK  status: ('A' for Active; 'I' for Inactive)
REMARK    1  A    between atoms: C7_9  and  C8_10 
REMARK    2  A    between atoms: C10_13  and  N4_14 
REMARK    3  A    between atoms: C11_15  and  C12_16 
REMARK    4  A    between atoms: N6_24  and  C19_25 
ROOT
HETATM    1  C8  UNL     1      22.986   1.753  51.393  1.00  0.00     0.089 A 
HETATM    2  C9  UNL     1      22.008   1.300  52.210  1.00  0.00     0.151 A 
HETATM    3  N3  UNL     1      22.300   0.453  53.196  1.00  0.00    -0.244 NA
HETATM    4  C10 UNL     1      23.535   0.000  53.445  1.00  0.00     0.133 A 
HETATM    5  C11 UNL     1      24.515   0.471  52.604  1.00  0.00     0.143 A 
HETATM    6  N7  UNL     1      24.240   1.336  51.592  1.00  0.00    -0.239 NA
ENDROOT
BRANCH   1   7
HETATM    7  C7  UNL     1      23.000   2.647  50.318  1.00  0.00     0.038 A 
HETATM    8  C5  UNL     1      23.371   3.867  50.679  1.00  0.00     0.069 A 
HETATM    9  C4  UNL     1      23.809   4.817  51.678  1.00  0.00     0.062 C 
HETATM   10  N1  UNL     1      23.296   4.581  49.642  1.00  0.00    -0.177 NA
HETATM   11  C3  UNL     1      23.664   6.293  51.216  1.00  0.00     0.010 C 
HETATM   12  C2  UNL     1      24.116   6.605  49.843  1.00  0.00    -0.017 C 
HETATM   13  C1  UNL     1      25.563   6.205  49.693  1.00  0.00     0.010 C 
HETATM   14  C21 UNL     1      23.321   6.498  48.634  1.00  0.00     0.026 C 
HETATM   15  C20 UNL     1      23.041   5.240  47.889  1.00  0.00     0.151 C 
HETATM   16  N2  UNL     1      22.922   4.033  48.587  1.00  0.00    -0.280 N 
HETATM   17  C6  UNL     1      22.736   2.815  49.018  1.00  0.00     0.128 A 
ENDBRANCH   1   7
BRANCH   5  18
HETATM   18  C12 UNL     1      25.860  -0.022  52.855  1.00  0.00     0.170 A 
HETATM   19  N5  UNL     1      26.251  -1.295  52.691  1.00  0.00    -0.226 NA
HETATM   20  C13 UNL     1      27.548  -1.428  53.002  1.00  0.00     0.086 A 
HETATM   21  C14 UNL     1      28.360  -2.541  52.982  1.00  0.00     0.034 A 
HETATM   22  C18 UNL     1      28.035  -0.198  53.386  1.00  0.00     0.072 A 
HETATM   23  C15 UNL     1      29.689  -2.381  53.361  1.00  0.00     0.002 A 
HETATM   24  C16 UNL     1      30.151  -1.144  53.740  1.00  0.00     0.002 A 
HETATM   25  C17 UNL     1      29.346  -0.010  53.767  1.00  0.00     0.032 A 
HETATM   26  N6  UNL     1      26.966   0.607  53.275  1.00  0.00    -0.269 N 
BRANCH  26  27
HETATM   27  C19 UNL     1      27.059   1.973  53.581  1.00  0.00     0.362 C 
HETATM   28  O1  UNL     1      27.762   2.794  54.206  1.00  0.00    -0.283 OA
ENDBRANCH  26  27
ENDBRANCH   5  18
BRANCH   4  29
HETATM   29  N4  UNL     1      23.682  -0.896  54.538  1.00  0.00    -0.285 NA
HETATM   30  H11 UNL     1      22.960  -1.222  55.230  1.00  0.00     0.125 HD
HETATM   31  H12 UNL     1      22.963  -1.214  55.220  1.00  0.00     0.125 HD
ENDBRANCH   4  29
TORSDOF 4
ENDMDL
MODEL 4
REMARK VINA RESULT:      -9.3      2.508      3.499
REMARK  4 active torsions:
REMARK  status: ('A' for Active; 'I' for Inactive)
REMARK    1  A    between atoms: C7_9  and  C8_10 
REMARK    2  A    between atoms: C10_13  and  N4_14 
REMARK    3  A    between atoms: C11_15  and  C12_16 
REMARK    4  A    between atoms: N6_24  and  C19_25 
ROOT
HETATM    1  C8  UNL     1      22.510   1.984  52.100  1.00  0.00     0.089 A 
HETATM    2  C9  UNL     1      21.576   1.390  52.877  1.00  0.00     0.151 A 
HETATM    3  N3  UNL     1      21.922   0.395  53.693  1.00  0.00    -0.244 NA
HETATM    4  C10 UNL     1      23.170  -0.077  53.803  1.00  0.00     0.133 A 
HETATM    5  C11 UNL     1      24.104   0.539  53.004  1.00  0.00     0.143 A 
HETATM    6  N7  UNL     1      23.774   1.557  52.164  1.00  0.00    -0.239 NA
ENDROOT
BRANCH   1   7
HETATM    7  C7  UNL     1      22.466   3.045  51.189  1.00  0.00     0.038 A 
HETATM    8  C5  UNL     1      22.299   2.633  49.940  1.00  0.00     0.069 A 
HETATM    9  C4  UNL     1      22.114   1.581  48.964  1.00  0.00     0.062 C 
HETATM   10  N1  UNL     1      22.325   3.669  49.220  1.00  0.00    -0.177 NA
HETATM   11  C3  UNL     1      22.379   2.053  47.507  1.00  0.00     0.010 C 
HETATM   12  C2  UNL     1      21.793   3.353  47.116  1.00  0.00    -0.017 C 
HETATM   13  C1  UNL     1      20.300   3.313  47.334  1.00  0.00     0.010 C 
HETATM   14  C21 UNL     1      22.405   4.657  47.294  1.00  0.00     0.026 C 
HETATM   15  C20 UNL     1      22.427   5.437  48.562  1.00  0.00     0.151 C 
HETATM   16  N2  UNL     1      22.487   4.766  49.788  1.00  0.00    -0.280 N 
HETATM   17  C6  UNL     1      22.576   4.367  51.029  1.00  0.00     0.128 A 
ENDBRANCH   1   7
BRANCH   5  18
HETATM   18  C12 UNL     1      25.462   0.028  53.103  1.00  0.00     0.170 A 
HETATM   19  N5  UNL     1      25.824  -1.237  52.844  1.00  0.00    -0.226 NA
HETATM   20  C13 UNL     1      27.143  -1.392  53.024  1.00  0.00     0.086 A 
HETATM   21  C14 UNL     1      27.939  -2.506  52.875  1.00  0.00     0.034 A 
HETATM   22  C18 UNL     1      27.676  -0.183  53.415  1.00  0.00     0.072 A 
HETATM   23  C15 UNL     1      29.299  -2.370  53.132  1.00  0.00     0.002 A 
HETATM   24  C16 UNL     1      29.806  -1.155  53.522  1.00  0.00     0.002 A 
HETATM   25  C17 UNL     1      29.019  -0.020  53.678  1.00  0.00     0.032 A 
HETATM   26  N6  UNL     1      26.608   0.632  53.444  1.00  0.00    -0.269 N 
BRANCH  26  27
HETATM   27  C19 UNL     1      26.743   1.982  53.802  1.00  0.00     0.362 C 
HETATM   28  O1  UNL     1      27.586   2.813  54.197  1.00  0.00    -0.283 OA
ENDBRANCH  26  27
ENDBRANCH   5  18
BRANCH   4  29
HETATM   29  N4  UNL     1      23.376  -1.140  54.723  1.00  0.00    -0.285 NA
HETATM   30  H11 UNL     1      22.910  -1.314  55.649  1.00  0.00     0.125 HD
HETATM   31  H12 UNL     1      22.911  -1.307  55.639  1.00  0.00     0.125 HD
ENDBRANCH   4  29
TORSDOF 4
ENDMDL
MODEL 5
REMARK VINA RESULT:      -9.0      2.009      8.521
REMARK  4 active torsions:
REMARK  status: ('A' for Active; 'I' for Inactive)
REMARK    1  A    between atoms: C7_9  and  C8_10 
REMARK    2  A    between atoms: C10_13  and  N4_14 
REMARK    3  A    between atoms: C11_15  and  C12_16 
REMARK    4  A    between atoms: N6_24  and  C19_25 
ROOT
HETATM    1  C8  UNL     1      24.308   1.300  52.494  1.00  0.00     0.089 A 
HETATM    2  C9  UNL     1      24.299   2.649  52.391  1.00  0.00     0.151 A 
HETATM    3  N3  UNL     1      23.143   3.303  52.290  1.00  0.00    -0.244 NA
HETATM    4  C10 UNL     1      21.947   2.702  52.280  1.00  0.00     0.133 A 
HETATM    5  C11 UNL     1      21.977   1.332  52.384  1.00  0.00     0.143 A 
HETATM    6  N7  UNL     1      23.144   0.643  52.489  1.00  0.00    -0.239 NA
ENDROOT
BRANCH   1   7
HETATM    7  C7  UNL     1      25.329   0.356  52.641  1.00  0.00     0.038 A 
HETATM    8  C5  UNL     1      26.474   0.905  53.019  1.00  0.00     0.069 A 
HETATM    9  C4  UNL     1      27.270   2.054  53.395  1.00  0.00     0.062 C 
HETATM   10  N1  UNL     1      27.316  -0.034  53.068  1.00  0.00    -0.177 NA
HETATM   11  C3  UNL     1      28.797   1.776  53.346  1.00  0.00     0.010 C 
HETATM   12  C2  UNL     1      29.257   0.501  53.937  1.00  0.00    -0.017 C 
HETATM   13  C1  UNL     1      28.812   0.429  55.377  1.00  0.00     0.010 C 
HETATM   14  C21 UNL     1      29.342  -0.778  53.256  1.00  0.00     0.026 C 
HETATM   15  C20 UNL     1      28.203  -1.702  53.003  1.00  0.00     0.151 C 
HETATM   16  N2  UNL     1      26.925  -1.180  52.776  1.00  0.00    -0.280 N 
HETATM   17  C6  UNL     1      25.671  -0.929  52.507  1.00  0.00     0.128 A 
ENDBRANCH   1   7
BRANCH   5  18
HETATM   18  C12 UNL     1      20.685   0.664  52.361  1.00  0.00     0.170 A 
HETATM   19  N5  UNL     1      19.778   0.786  51.381  1.00  0.00    -0.226 NA
HETATM   20  C13 UNL     1      18.694   0.045  51.653  1.00  0.00     0.086 A 
HETATM   21  C14 UNL     1      17.531  -0.131  50.936  1.00  0.00     0.034 A 
HETATM   22  C18 UNL     1      18.891  -0.593  52.858  1.00  0.00     0.072 A 
HETATM   23  C15 UNL     1      16.562  -0.975  51.469  1.00  0.00     0.002 A 
HETATM   24  C16 UNL     1      16.781  -1.598  52.672  1.00  0.00     0.002 A 
HETATM   25  C17 UNL     1      17.948  -1.433  53.411  1.00  0.00     0.032 A 
HETATM   26  N6  UNL     1      20.112  -0.176  53.234  1.00  0.00    -0.269 N 
BRANCH  26  27
HETATM   27  C19 UNL     1      20.683  -0.617  54.437  1.00  0.00     0.362 C 
HETATM   28  O1  UNL     1      21.349  -1.555  54.922  1.00  0.00    -0.283 OA
ENDBRANCH  26  27
ENDBRANCH   5  18
BRANCH   4  29
HETATM   29  N4  UNL     1      20.807   3.543  52.170  1.00  0.00    -0.285 NA
HETATM   30  H11 UNL     1      20.450   4.072  51.334  1.00  0.00     0.125 HD
HETATM   31  H12 UNL     1      20.459   4.064  51.339  1.00  0.00     0.125 HD
ENDBRANCH   4  29
TORSDOF 4
ENDMDL
MODEL 6
REMARK VINA RESULT:      -8.7      4.601      6.763
REMARK  4 active torsions:
REMARK  status: ('A' for Active; 'I' for Inactive)
REMARK    1  A    between atoms: C7_9  and  C8_10 
REMARK    2  A    between atoms: C10_13  and  N4_14 
REMARK    3  A    between atoms: C11_15  and  C12_16 
REMARK    4  A    between atoms: N6_24  and  C19_25 
ROOT
HETATM    1  C8  UNL     1      23.378   1.970  50.861  1.00  0.00     0.089 A 
HETATM    2  C9  UNL     1      22.320   1.937  50.018  1.00  0.00     0.151 A 
HETATM    3  N3  UNL     1      22.183   2.875  49.082  1.00  0.00    -0.244 NA
HETATM    4  C10 UNL     1      23.046   3.885  48.909  1.00  0.00     0.133 A 
HETATM    5  C11 UNL     1      24.112   3.901  49.776  1.00  0.00     0.143 A 
HETATM    6  N7  UNL     1      24.274   2.954  50.738  1.00  0.00    -0.239 NA
ENDROOT
BRANCH   1   7
HETATM    7  C7  UNL     1      23.804   1.135  51.898  1.00  0.00     0.038 A 
HETATM    8  C5  UNL     1      22.807   0.757  52.686  1.00  0.00     0.069 A 
HETATM    9  C4  UNL     1      21.406   0.753  53.048  1.00  0.00     0.062 C 
HETATM   10  N1  UNL     1      23.324   0.056  53.599  1.00  0.00    -0.177 NA
HETATM   11  C3  UNL     1      21.156   0.252  54.497  1.00  0.00     0.010 C 
HETATM   12  C2  UNL     1      21.894  -0.959  54.916  1.00  0.00    -0.017 C 
HETATM   13  C1  UNL     1      21.578  -2.088  53.967  1.00  0.00     0.010 C 
HETATM   14  C21 UNL     1      23.227  -0.994  55.491  1.00  0.00     0.026 C 
HETATM   15  C20 UNL     1      24.501  -0.897  54.729  1.00  0.00     0.151 C 
HETATM   16  N2  UNL     1      24.557  -0.118  53.568  1.00  0.00    -0.280 N 
HETATM   17  C6  UNL     1      24.855   0.564  52.494  1.00  0.00     0.128 A 
ENDBRANCH   1   7
BRANCH   5  18
HETATM   18  C12 UNL     1      25.051   4.999  49.608  1.00  0.00     0.170 A 
HETATM   19  N5  UNL     1      26.154   4.954  48.845  1.00  0.00    -0.226 NA
HETATM   20  C13 UNL     1      26.806   6.123  48.897  1.00  0.00     0.086 A 
HETATM   21  C14 UNL     1      27.971   6.523  48.280  1.00  0.00     0.034 A 
HETATM   22  C18 UNL     1      26.109   6.977  49.724  1.00  0.00     0.072 A 
HETATM   23  C15 UNL     1      28.420   7.818  48.518  1.00  0.00     0.002 A 
HETATM   24  C16 UNL     1      27.708   8.650  49.347  1.00  0.00     0.002 A 
HETATM   25  C17 UNL     1      26.531   8.265  49.979  1.00  0.00     0.032 A 
HETATM   26  N6  UNL     1      25.060   6.238  50.120  1.00  0.00    -0.269 N 
BRANCH  26  27
HETATM   27  C19 UNL     1      24.094   6.767  50.989  1.00  0.00     0.362 C 
HETATM   28  O1  UNL     1      22.860   6.904  51.120  1.00  0.00    -0.283 OA
ENDBRANCH  26  27
ENDBRANCH   5  18
BRANCH   4  29
HETATM   29  N4  UNL     1      22.760   4.801  47.861  1.00  0.00    -0.285 NA
HETATM   30  H11 UNL     1      23.193   4.872  46.906  1.00  0.00     0.125 HD
HETATM   31  H12 UNL     1      23.192   4.866  46.917  1.00  0.00     0.125 HD
ENDBRANCH   4  29
TORSDOF 4
ENDMDL
MODEL 7
REMARK VINA RESULT:      -8.7      1.916      8.322
REMARK  4 active torsions:
REMARK  status: ('A' for Active; 'I' for Inactive)
REMARK    1  A    between atoms: C7_9  and  C8_10 
REMARK    2  A    between atoms: C10_13  and  N4_14 
REMARK    3  A    between atoms: C11_15  and  C12_16 
REMARK    4  A    between atoms: N6_24  and  C19_25 
ROOT
HETATM    1  C8  UNL     1      22.555   0.075  53.139  1.00  0.00     0.089 A 
HETATM    2  C9  UNL     1      22.267  -0.760  54.164  1.00  0.00     0.151 A 
HETATM    3  N3  UNL     1      21.014  -1.172  54.358  1.00  0.00    -0.244 NA
HETATM    4  C10 UNL     1      19.984  -0.806  53.586  1.00  0.00     0.133 A 
HETATM    5  C11 UNL     1      20.296   0.043  52.551  1.00  0.00     0.143 A 
HETATM    6  N7  UNL     1      21.567   0.476  52.333  1.00  0.00    -0.239 NA
ENDROOT
BRANCH   1   7
HETATM    7  C7  UNL     1      23.743   0.642  52.670  1.00  0.00     0.038 A 
HETATM    8  C5  UNL     1      24.788   0.323  53.421  1.00  0.00     0.069 A 
HETATM    9  C4  UNL     1      25.379  -0.365  54.548  1.00  0.00     0.062 C 
HETATM   10  N1  UNL     1      25.777   0.930  52.926  1.00  0.00    -0.177 NA
HETATM   11  C3  UNL     1      26.794   0.164  54.907  1.00  0.00     0.010 C 
HETATM   12  C2  UNL     1      27.723   0.387  53.779  1.00  0.00    -0.017 C 
HETATM   13  C1  UNL     1      27.883  -0.897  53.003  1.00  0.00     0.010 C 
HETATM   14  C21 UNL     1      27.836   1.600  52.989  1.00  0.00     0.026 C 
HETATM   15  C20 UNL     1      26.931   1.995  51.875  1.00  0.00     0.151 C 
HETATM   16  N2  UNL     1      25.579   1.640  51.921  1.00  0.00    -0.280 N 
HETATM   17  C6  UNL     1      24.295   1.455  51.764  1.00  0.00     0.128 A 
ENDBRANCH   1   7
BRANCH   5  18
HETATM   18  C12 UNL     1      19.184   0.459  51.712  1.00  0.00     0.170 A 
HETATM   19  N5  UNL     1      18.318  -0.376  51.120  1.00  0.00    -0.226 NA
HETATM   20  C13 UNL     1      17.408   0.314  50.418  1.00  0.00     0.086 A 
HETATM   21  C14 UNL     1      16.345  -0.125  49.661  1.00  0.00     0.034 A 
HETATM   22  C18 UNL     1      17.680   1.658  50.552  1.00  0.00     0.072 A 
HETATM   23  C15 UNL     1      15.554   0.833  49.035  1.00  0.00     0.002 A 
HETATM   24  C16 UNL     1      15.846   2.167  49.183  1.00  0.00     0.002 A 
HETATM   25  C17 UNL     1      16.915   2.630  49.943  1.00  0.00     0.032 A 
HETATM   26  N6  UNL     1      18.764   1.678  51.345  1.00  0.00    -0.269 N 
BRANCH  26  27
HETATM   27  C19 UNL     1      19.357   2.892  51.723  1.00  0.00     0.362 C 
HETATM   28  O1  UNL     1      19.937   3.446  52.679  1.00  0.00    -0.283 OA
ENDBRANCH  26  27
ENDBRANCH   5  18
BRANCH   4  29
HETATM   29  N4  UNL     1      18.709  -1.336  53.923  1.00  0.00    -0.285 NA
HETATM   30  H11 UNL     1      18.133  -1.178  54.788  1.00  0.00     0.125 HD
HETATM   31  H12 UNL     1      18.144  -1.175  54.782  1.00  0.00     0.125 HD
ENDBRANCH   4  29
TORSDOF 4
ENDMDL
MODEL 8
REMARK VINA RESULT:      -8.7      5.431      8.266
REMARK  4 active torsions:
REMARK  status: ('A' for Active; 'I' for Inactive)
REMARK    1  A    between atoms: C7_9  and  C8_10 
REMARK    2  A    between atoms: C10_13  and  N4_14 
REMARK    3  A    between atoms: C11_15  and  C12_16 
REMARK    4  A    between atoms: N6_24  and  C19_25 
ROOT
HETATM    1  C8  UNL     1      24.273   5.402  49.272  1.00  0.00     0.089 A 
HETATM    2  C9  UNL     1      23.410   5.077  48.282  1.00  0.00     0.151 A 
HETATM    3  N3  UNL     1      22.803   3.890  48.288  1.00  0.00    -0.244 NA
HETATM    4  C10 UNL     1      22.993   2.963  49.235  1.00  0.00     0.133 A 
HETATM    5  C11 UNL     1      23.875   3.312  50.231  1.00  0.00     0.143 A 
HETATM    6  N7  UNL     1      24.504   4.517  50.246  1.00  0.00    -0.239 NA
ENDROOT
BRANCH   1   7
HETATM    7  C7  UNL     1      25.022   6.549  49.553  1.00  0.00     0.038 A 
HETATM    8  C5  UNL     1      26.221   6.521  48.991  1.00  0.00     0.069 A 
HETATM    9  C4  UNL     1      27.225   5.877  48.170  1.00  0.00     0.062 C 
HETATM   10  N1  UNL     1      26.808   7.576  49.356  1.00  0.00    -0.177 NA
HETATM   11  C3  UNL     1      28.641   6.491  48.351  1.00  0.00     0.010 C 
HETATM   12  C2  UNL     1      28.725   7.968  48.365  1.00  0.00    -0.017 C 
HETATM   13  C1  UNL     1      28.134   8.513  47.088  1.00  0.00     0.010 C 
HETATM   14  C21 UNL     1      28.571   8.824  49.528  1.00  0.00     0.026 C 
HETATM   15  C20 UNL     1      27.276   9.233  50.136  1.00  0.00     0.151 C 
HETATM   16  N2  UNL     1      26.186   8.355  50.104  1.00  0.00    -0.280 N 
HETATM   17  C6  UNL     1      25.061   7.703  50.225  1.00  0.00     0.128 A 
ENDBRANCH   1   7
BRANCH   5  18
HETATM   18  C12 UNL     1      24.100   2.309  51.260  1.00  0.00     0.170 A 
HETATM   19  N5  UNL     1      23.131   1.651  51.912  1.00  0.00    -0.226 NA
HETATM   20  C13 UNL     1      23.662   0.793  52.795  1.00  0.00     0.086 A 
HETATM   21  C14 UNL     1      23.051  -0.078  53.670  1.00  0.00     0.034 A 
HETATM   22  C18 UNL     1      25.035   0.886  52.725  1.00  0.00     0.072 A 
HETATM   23  C15 UNL     1      23.866  -0.861  54.481  1.00  0.00     0.002 A 
HETATM   24  C16 UNL     1      25.232  -0.750  54.392  1.00  0.00     0.002 A 
HETATM   25  C17 UNL     1      25.867   0.123  53.516  1.00  0.00     0.032 A 
HETATM   26  N6  UNL     1      25.234   1.818  51.779  1.00  0.00    -0.269 N 
BRANCH  26  27
HETATM   27  C19 UNL     1      26.532   2.201  51.409  1.00  0.00     0.362 C 
HETATM   28  O1  UNL     1      27.624   2.566  51.891  1.00  0.00    -0.283 OA
ENDBRANCH  26  27
ENDBRANCH   5  18
BRANCH   4  29
HETATM   29  N4  UNL     1      22.267   1.750  49.100  1.00  0.00    -0.285 NA
HETATM   30  H11 UNL     1      22.368   0.853  49.640  1.00  0.00     0.125 HD
HETATM   31  H12 UNL     1      22.372   0.865  49.638  1.00  0.00     0.125 HD
ENDBRANCH   4  29
TORSDOF 4
ENDMDL
MODEL 9
REMARK VINA RESULT:      -8.6      6.785      8.710
REMARK  4 active torsions:
REMARK  status: ('A' for Active; 'I' for Inactive)
REMARK    1  A    between atoms: C7_9  and  C8_10 
REMARK    2  A    between atoms: C10_13  and  N4_14 
REMARK    3  A    between atoms: C11_15  and  C12_16 
REMARK    4  A    between atoms: N6_24  and  C19_25 
ROOT
HETATM    1  C8  UNL     1      26.994   5.247  48.892  1.00  0.00     0.089 A 
HETATM    2  C9  UNL     1      26.636   6.426  48.332  1.00  0.00     0.151 A 
HETATM    3  N3  UNL     1      27.545   7.171  47.706  1.00  0.00    -0.244 NA
HETATM    4  C10 UNL     1      28.834   6.827  47.587  1.00  0.00     0.133 A 
HETATM    5  C11 UNL     1      29.178   5.628  48.163  1.00  0.00     0.143 A 
HETATM    6  N7  UNL     1      28.267   4.850  48.806  1.00  0.00    -0.239 NA
ENDROOT
BRANCH   1   7
HETATM    7  C7  UNL     1      26.283   4.253  49.571  1.00  0.00     0.038 A 
HETATM    8  C5  UNL     1      24.980   4.310  49.333  1.00  0.00     0.069 A 
HETATM    9  C4  UNL     1      23.833   4.902  48.680  1.00  0.00     0.062 C 
HETATM   10  N1  UNL     1      24.453   3.403  50.035  1.00  0.00    -0.177 NA
HETATM   11  C3  UNL     1      22.484   4.484  49.326  1.00  0.00     0.010 C 
HETATM   12  C2  UNL     1      22.323   3.050  49.652  1.00  0.00    -0.017 C 
HETATM   13  C1  UNL     1      22.520   2.230  48.401  1.00  0.00     0.010 C 
HETATM   14  C21 UNL     1      22.731   2.400  50.884  1.00  0.00     0.026 C 
HETATM   15  C20 UNL     1      24.116   1.968  51.217  1.00  0.00     0.151 C 
HETATM   16  N2  UNL     1      25.206   2.706  50.742  1.00  0.00    -0.280 N 
HETATM   17  C6  UNL     1      26.358   3.246  50.447  1.00  0.00     0.128 A 
ENDBRANCH   1   7
BRANCH   5  18
HETATM   18  C12 UNL     1      30.577   5.247  48.053  1.00  0.00     0.170 A 
HETATM   19  N5  UNL     1      31.040   4.245  47.291  1.00  0.00    -0.226 NA
HETATM   20  C13 UNL     1      32.372   4.149  47.403  1.00  0.00     0.086 A 
HETATM   21  C14 UNL     1      33.257   3.277  46.809  1.00  0.00     0.034 A 
HETATM   22  C18 UNL     1      32.810   5.127  48.271  1.00  0.00     0.072 A 
HETATM   23  C15 UNL     1      34.607   3.415  47.114  1.00  0.00     0.002 A 
HETATM   24  C16 UNL     1      35.019   4.396  47.981  1.00  0.00     0.002 A 
HETATM   25  C17 UNL     1      34.141   5.286  48.591  1.00  0.00     0.032 A 
HETATM   26  N6  UNL     1      31.677   5.755  48.627  1.00  0.00    -0.269 N 
BRANCH  26  27
HETATM   27  C19 UNL     1      31.705   6.837  49.519  1.00  0.00     0.362 C 
HETATM   28  O1  UNL     1      31.651   8.084  49.553  1.00  0.00    -0.283 OA
ENDBRANCH  26  27
ENDBRANCH   5  18
BRANCH   4  29
HETATM   29  N4  UNL     1      29.677   7.730  46.885  1.00  0.00    -0.285 NA
HETATM   30  H11 UNL     1      29.428   8.420  46.130  1.00  0.00     0.125 HD
HETATM   31  H12 UNL     1      29.424   8.410  46.139  1.00  0.00     0.125 HD
ENDBRANCH   4  29
TORSDOF 4
ENDMDL
