MODEL 1
REMARK VINA RESULT:      -7.8      0.000      0.000
REMARK  7 active torsions:
REMARK  status: ('A' for Active; 'I' for Inactive)
REMARK    1  A    between atoms: O1_2  and  C2_3 
REMARK    2  A    between atoms: C2_3  and  C3_4 
REMARK    3  A    between atoms: C3_4  and  O2_5 
REMARK    4  A    between atoms: O2_5  and  C4_6 
REMARK    5  A    between atoms: C8_12  and  N3_13 
REMARK    6  A    between atoms: N3_13  and  C9_14 
REMARK    7  A    between atoms: C12_18  and  O4_19 
ROOT
HETATM    1  C4  UNL     1      26.350  -0.379  52.978  1.00  0.00     0.107 A 
HETATM    2  C5  UNL     1      25.353  -0.881  53.779  1.00  0.00     0.072 A 
HETATM    3  C6  UNL     1      24.053  -0.451  53.801  1.00  0.00     0.077 A 
HETATM    4  N1  UNL     1      23.151  -0.991  54.605  1.00  0.00    -0.241 NA
HETATM    5  C7  UNL     1      21.876  -0.570  54.629  1.00  0.00     0.236 A 
HETATM    6  N2  UNL     1      21.458   0.444  53.812  1.00  0.00    -0.223 NA
HETATM    7  C8  UNL     1      22.385   0.982  53.002  1.00  0.00     0.145 A 
HETATM    8  C15 UNL     1      23.685   0.574  52.958  1.00  0.00     0.075 A 
HETATM    9  C16 UNL     1      24.625   1.133  52.124  1.00  0.00     0.121 A 
HETATM   10  C17 UNL     1      25.945   0.670  52.125  1.00  0.00     0.136 A 
HETATM   11  O5  UNL     1      26.771   1.334  51.230  1.00  0.00    -0.344 OA
HETATM   12  C18 UNL     1      26.588   2.741  51.026  1.00  0.00     0.202 C 
HETATM   13  C19 UNL     1      25.162   3.129  50.832  1.00  0.00     0.202 C 
HETATM   14  O6  UNL     1      24.252   2.164  51.276  1.00  0.00    -0.345 OA
ENDROOT
BRANCH   7  15
HETATM   15  N3  UNL     1      21.926   2.030  52.166  1.00  0.00    -0.339 N 
HETATM   16  H10 UNL     1      22.061   2.942  51.698  1.00  0.00     0.167 HD
BRANCH  15  17
HETATM   17  C9  UNL     1      20.604   1.878  51.619  1.00  0.00     0.058 A 
HETATM   18  C10 UNL     1      20.172   0.976  50.754  1.00  0.00     0.164 A 
HETATM   19  O3  UNL     1      18.899   0.849  50.243  1.00  0.00    -0.354 OA
HETATM   20  C11 UNL     1      17.894   1.749  50.620  1.00  0.00     0.239 A 
HETATM   21  C12 UNL     1      18.436   2.728  51.583  1.00  0.00     0.072 A 
HETATM   22  C14 UNL     1      19.642   2.882  52.107  1.00  0.00     0.066 A 
BRANCH  21  23
HETATM   23  O4  UNL     1      17.429   3.608  51.956  1.00  0.00    -0.358 OA
HETATM   24  C13 UNL     1      16.571   4.280  51.084  1.00  0.00     0.209 C 
ENDBRANCH  21  23
ENDBRANCH  15  17
ENDBRANCH   7  15
BRANCH   1  25
HETATM   25  O2  UNL     1      27.645  -0.689  52.838  1.00  0.00    -0.346 OA
BRANCH  25  26
HETATM   26  C3  UNL     1      28.766  -0.549  53.640  1.00  0.00     0.201 C 
BRANCH  26  27
HETATM   27  C2  UNL     1      28.506   0.355  54.810  1.00  0.00     0.193 C 
BRANCH  27  28
HETATM   28  O1  UNL     1      29.272   1.502  54.850  1.00  0.00    -0.394 OA
HETATM   29  C1  UNL     1      28.908   2.365  53.833  1.00  0.00     0.201 C 
ENDBRANCH  27  28
ENDBRANCH  26  27
ENDBRANCH  25  26
ENDBRANCH   1  25
TORSDOF 7
ENDMDL
MODEL 2
REMARK VINA RESULT:      -7.6      2.125      8.280
REMARK  7 active torsions:
REMARK  status: ('A' for Active; 'I' for Inactive)
REMARK    1  A    between atoms: O1_2  and  C2_3 
REMARK    2  A    between atoms: C2_3  and  C3_4 
REMARK    3  A    between atoms: C3_4  and  O2_5 
REMARK    4  A    between atoms: O2_5  and  C4_6 
REMARK    5  A    between atoms: C8_12  and  N3_13 
REMARK    6  A    between atoms: N3_13  and  C9_14 
REMARK    7  A    between atoms: C12_18  and  O4_19 
ROOT
HETATM    1  C4  UNL     1      19.107  -0.110  52.284  1.00  0.00     0.107 A 
HETATM    2  C5  UNL     1      19.639  -0.735  53.386  1.00  0.00     0.072 A 
HETATM    3  C6  UNL     1      20.963  -0.746  53.736  1.00  0.00     0.077 A 
HETATM    4  N1  UNL     1      21.395  -1.374  54.818  1.00  0.00    -0.241 NA
HETATM    5  C7  UNL     1      22.693  -1.387  55.163  1.00  0.00     0.236 A 
HETATM    6  N2  UNL     1      23.626  -0.744  54.399  1.00  0.00    -0.223 NA
HETATM    7  C8  UNL     1      23.173  -0.111  53.304  1.00  0.00     0.145 A 
HETATM    8  C15 UNL     1      21.862  -0.082  52.931  1.00  0.00     0.075 A 
HETATM    9  C16 UNL     1      21.409   0.569  51.807  1.00  0.00     0.121 A 
HETATM   10  C17 UNL     1      20.050   0.562  51.477  1.00  0.00     0.136 A 
HETATM   11  O5  UNL     1      19.752   1.261  50.317  1.00  0.00    -0.344 OA
HETATM   12  C18 UNL     1      20.676   1.216  49.221  1.00  0.00     0.202 C 
HETATM   13  C19 UNL     1      22.092   1.432  49.632  1.00  0.00     0.202 C 
HETATM   14  O6  UNL     1      22.316   1.236  50.999  1.00  0.00    -0.345 OA
ENDROOT
BRANCH   7  15
HETATM   15  N3  UNL     1      24.160   0.548  52.530  1.00  0.00    -0.339 N 
HETATM   16  H10 UNL     1      24.464   1.031  51.667  1.00  0.00     0.167 HD
BRANCH  15  17
HETATM   17  C9  UNL     1      25.459   0.682  53.133  1.00  0.00     0.058 A 
HETATM   18  C10 UNL     1      25.950   1.709  53.804  1.00  0.00     0.164 A 
HETATM   19  O3  UNL     1      27.201   1.817  54.375  1.00  0.00    -0.354 OA
HETATM   20  C11 UNL     1      28.121   0.767  54.261  1.00  0.00     0.239 A 
HETATM   21  C12 UNL     1      27.515  -0.347  53.504  1.00  0.00     0.072 A 
HETATM   22  C14 UNL     1      26.323  -0.497  52.948  1.00  0.00     0.066 A 
BRANCH  21  23
HETATM   23  O4  UNL     1      28.433  -1.384  53.406  1.00  0.00    -0.358 OA
HETATM   24  C13 UNL     1      29.806  -1.281  53.633  1.00  0.00     0.209 C 
ENDBRANCH  21  23
ENDBRANCH  15  17
ENDBRANCH   7  15
BRANCH   1  25
HETATM   25  O2  UNL     1      17.857  -0.005  51.815  1.00  0.00    -0.346 OA
BRANCH  25  26
HETATM   26  C3  UNL     1      16.732  -0.810  51.869  1.00  0.00     0.201 C 
BRANCH  26  27
HETATM   27  C2  UNL     1      15.472  -0.002  51.981  1.00  0.00     0.193 C 
BRANCH  27  28
HETATM   28  O1  UNL     1      15.091   0.319  53.268  1.00  0.00    -0.394 OA
HETATM   29  C1  UNL     1      13.903   1.027  53.260  1.00  0.00     0.201 C 
ENDBRANCH  27  28
ENDBRANCH  26  27
ENDBRANCH  25  26
ENDBRANCH   1  25
TORSDOF 7
ENDMDL
MODEL 3
REMARK VINA RESULT:      -7.5      1.245      2.067
REMARK  7 active torsions:
REMARK  status: ('A' for Active; 'I' for Inactive)
REMARK    1  A    between atoms: O1_2  and  C2_3 
REMARK    2  A    between atoms: C2_3  and  C3_4 
REMARK    3  A    between atoms: C3_4  and  O2_5 
REMARK    4  A    between atoms: O2_5  and  C4_6 
REMARK    5  A    between atoms: C8_12  and  N3_13 
REMARK    6  A    between atoms: N3_13  and  C9_14 
REMARK    7  A    between atoms: C12_18  and  O4_19 
ROOT
HETATM    1  C4  UNL     1      26.104   0.408  54.038  1.00  0.00     0.107 A 
HETATM    2  C5  UNL     1      25.128  -0.323  54.672  1.00  0.00     0.072 A 
HETATM    3  C6  UNL     1      23.845  -0.497  54.227  1.00  0.00     0.077 A 
HETATM    4  N1  UNL     1      22.963  -1.220  54.900  1.00  0.00    -0.241 NA
HETATM    5  C7  UNL     1      21.704  -1.392  54.466  1.00  0.00     0.236 A 
HETATM    6  N2  UNL     1      21.282  -0.819  53.298  1.00  0.00    -0.223 NA
HETATM    7  C8  UNL     1      22.188  -0.088  52.627  1.00  0.00     0.145 A 
HETATM    8  C15 UNL     1      23.472   0.102  53.045  1.00  0.00     0.075 A 
HETATM    9  C16 UNL     1      24.390   0.853  52.348  1.00  0.00     0.121 A 
HETATM   10  C17 UNL     1      25.694   1.011  52.830  1.00  0.00     0.136 A 
HETATM   11  O5  UNL     1      26.500   1.794  52.017  1.00  0.00    -0.344 OA
HETATM   12  C18 UNL     1      25.923   2.925  51.348  1.00  0.00     0.202 C 
HETATM   13  C19 UNL     1      24.623   2.621  50.687  1.00  0.00     0.202 C 
HETATM   14  O6  UNL     1      24.012   1.454  51.159  1.00  0.00    -0.345 OA
ENDROOT
BRANCH   7  15
HETATM   15  N3  UNL     1      21.726   0.493  51.421  1.00  0.00    -0.339 N 
HETATM   16  H10 UNL     1      21.800   0.647  50.400  1.00  0.00     0.167 HD
BRANCH  15  17
HETATM   17  C9  UNL     1      20.557   1.327  51.520  1.00  0.00     0.058 A 
HETATM   18  C10 UNL     1      20.399   2.438  52.219  1.00  0.00     0.164 A 
HETATM   19  O3  UNL     1      19.268   3.222  52.300  1.00  0.00    -0.354 OA
HETATM   20  C11 UNL     1      18.107   2.861  51.605  1.00  0.00     0.239 A 
HETATM   21  C12 UNL     1      18.347   1.617  50.847  1.00  0.00     0.072 A 
HETATM   22  C14 UNL     1      19.412   0.838  50.732  1.00  0.00     0.066 A 
BRANCH  21  23
HETATM   23  O4  UNL     1      17.193   1.274  50.155  1.00  0.00    -0.358 OA
HETATM   24  C13 UNL     1      16.787  -0.025  49.842  1.00  0.00     0.209 C 
ENDBRANCH  21  23
ENDBRANCH  15  17
ENDBRANCH   7  15
BRANCH   1  25
HETATM   25  O2  UNL     1      27.383   0.666  54.337  1.00  0.00    -0.346 OA
BRANCH  25  26
HETATM   26  C3  UNL     1      28.485  -0.119  54.635  1.00  0.00     0.201 C 
BRANCH  26  27
HETATM   27  C2  UNL     1      28.983  -0.862  53.430  1.00  0.00     0.193 C 
BRANCH  27  28
HETATM   28  O1  UNL     1      28.741  -2.221  53.434  1.00  0.00    -0.394 OA
HETATM   29  C1  UNL     1      27.623  -2.517  52.675  1.00  0.00     0.201 C 
ENDBRANCH  27  28
ENDBRANCH  26  27
ENDBRANCH  25  26
ENDBRANCH   1  25
TORSDOF 7
ENDMDL
MODEL 4
REMARK VINA RESULT:      -7.4      1.647      7.831
REMARK  7 active torsions:
REMARK  status: ('A' for Active; 'I' for Inactive)
REMARK    1  A    between atoms: O1_2  and  C2_3 
REMARK    2  A    between atoms: C2_3  and  C3_4 
REMARK    3  A    between atoms: C3_4  and  O2_5 
REMARK    4  A    between atoms: O2_5  and  C4_6 
REMARK    5  A    between atoms: C8_12  and  N3_13 
REMARK    6  A    between atoms: N3_13  and  C9_14 
REMARK    7  A    between atoms: C12_18  and  O4_19 
ROOT
HETATM    1  C4  UNL     1      20.415   2.773  52.359  1.00  0.00     0.107 A 
HETATM    2  C5  UNL     1      20.503   1.685  53.193  1.00  0.00     0.072 A 
HETATM    3  C6  UNL     1      21.613   0.903  53.373  1.00  0.00     0.077 A 
HETATM    4  N1  UNL     1      21.615  -0.130  54.199  1.00  0.00    -0.241 NA
HETATM    5  C7  UNL     1      22.702  -0.899  54.376  1.00  0.00     0.236 A 
HETATM    6  N2  UNL     1      23.861  -0.636  53.701  1.00  0.00    -0.223 NA
HETATM    7  C8  UNL     1      23.845   0.417  52.866  1.00  0.00     0.145 A 
HETATM    8  C15 UNL     1      22.755   1.212  52.668  1.00  0.00     0.075 A 
HETATM    9  C16 UNL     1      22.750   2.287  51.809  1.00  0.00     0.121 A 
HETATM   10  C17 UNL     1      21.599   3.065  51.649  1.00  0.00     0.136 A 
HETATM   11  O5  UNL     1      21.752   4.111  50.751  1.00  0.00    -0.344 OA
HETATM   12  C18 UNL     1      22.556   3.911  49.581  1.00  0.00     0.202 C 
HETATM   13  C19 UNL     1      23.862   3.251  49.867  1.00  0.00     0.202 C 
HETATM   14  O6  UNL     1      23.900   2.595  51.102  1.00  0.00    -0.345 OA
ENDROOT
BRANCH   7  15
HETATM   15  N3  UNL     1      25.058   0.667  52.179  1.00  0.00    -0.339 N 
HETATM   16  H10 UNL     1      25.589   0.839  51.308  1.00  0.00     0.167 HD
BRANCH  15  17
HETATM   17  C9  UNL     1      26.245   0.744  52.988  1.00  0.00     0.058 A 
HETATM   18  C10 UNL     1      26.660   1.747  53.743  1.00  0.00     0.164 A 
HETATM   19  O3  UNL     1      27.804   1.799  54.512  1.00  0.00    -0.354 OA
HETATM   20  C11 UNL     1      28.687   0.713  54.537  1.00  0.00     0.239 A 
HETATM   21  C12 UNL     1      28.170  -0.371  53.678  1.00  0.00     0.072 A 
HETATM   22  C14 UNL     1      27.080  -0.469  52.933  1.00  0.00     0.066 A 
BRANCH  21  23
HETATM   23  O4  UNL     1      29.049  -1.445  53.719  1.00  0.00    -0.358 OA
HETATM   24  C13 UNL     1      28.824  -2.702  53.154  1.00  0.00     0.209 C 
ENDBRANCH  21  23
ENDBRANCH  15  17
ENDBRANCH   7  15
BRANCH   1  25
HETATM   25  O2  UNL     1      19.421   3.626  52.081  1.00  0.00    -0.346 OA
BRANCH  25  26
HETATM   26  C3  UNL     1      18.433   3.678  51.112  1.00  0.00     0.201 C 
BRANCH  26  27
HETATM   27  C2  UNL     1      17.333   2.693  51.382  1.00  0.00     0.193 C 
BRANCH  27  28
HETATM   28  O1  UNL     1      17.513   1.443  50.826  1.00  0.00    -0.394 OA
HETATM   29  C1  UNL     1      17.175   0.454  51.732  1.00  0.00     0.201 C 
ENDBRANCH  27  28
ENDBRANCH  26  27
ENDBRANCH  25  26
ENDBRANCH   1  25
TORSDOF 7
ENDMDL
MODEL 5
REMARK VINA RESULT:      -7.3      1.936      8.316
REMARK  7 active torsions:
REMARK  status: ('A' for Active; 'I' for Inactive)
REMARK    1  A    between atoms: O1_2  and  C2_3 
REMARK    2  A    between atoms: C2_3  and  C3_4 
REMARK    3  A    between atoms: C3_4  and  O2_5 
REMARK    4  A    between atoms: O2_5  and  C4_6 
REMARK    5  A    between atoms: C8_12  and  N3_13 
REMARK    6  A    between atoms: N3_13  and  C9_14 
REMARK    7  A    between atoms: C12_18  and  O4_19 
ROOT
HETATM    1  C4  UNL     1      20.607   2.992  52.113  1.00  0.00     0.107 A 
HETATM    2  C5  UNL     1      21.592   3.693  51.460  1.00  0.00     0.072 A 
HETATM    3  C6  UNL     1      22.895   3.298  51.319  1.00  0.00     0.077 A 
HETATM    4  N1  UNL     1      23.784   4.034  50.672  1.00  0.00    -0.241 NA
HETATM    5  C7  UNL     1      25.062   3.649  50.532  1.00  0.00     0.236 A 
HETATM    6  N2  UNL     1      25.497   2.465  51.060  1.00  0.00    -0.223 NA
HETATM    7  C8  UNL     1      24.584   1.727  51.714  1.00  0.00     0.145 A 
HETATM    8  C15 UNL     1      23.281   2.096  51.870  1.00  0.00     0.075 A 
HETATM    9  C16 UNL     1      22.354   1.332  52.542  1.00  0.00     0.121 A 
HETATM   10  C17 UNL     1      21.031   1.765  52.668  1.00  0.00     0.136 A 
HETATM   11  O5  UNL     1      20.219   0.887  53.371  1.00  0.00    -0.344 OA
HETATM   12  C18 UNL     1      20.769   0.175  54.488  1.00  0.00     0.202 C 
HETATM   13  C19 UNL     1      22.101  -0.430  54.207  1.00  0.00     0.202 C 
HETATM   14  O6  UNL     1      22.745   0.123  53.094  1.00  0.00    -0.345 OA
ENDROOT
BRANCH   7  15
HETATM   15  N3  UNL     1      25.060   0.506  52.250  1.00  0.00    -0.339 N 
HETATM   16  H10 UNL     1      24.989  -0.519  52.377  1.00  0.00     0.167 HD
BRANCH  15  17
HETATM   17  C9  UNL     1      26.248   0.583  53.057  1.00  0.00     0.058 A 
HETATM   18  C10 UNL     1      26.629   1.556  53.866  1.00  0.00     0.164 A 
HETATM   19  O3  UNL     1      27.774   1.609  54.632  1.00  0.00    -0.354 OA
HETATM   20  C11 UNL     1      28.699   0.557  54.592  1.00  0.00     0.239 A 
HETATM   21  C12 UNL     1      28.219  -0.495  53.674  1.00  0.00     0.072 A 
HETATM   22  C14 UNL     1      27.129  -0.592  52.929  1.00  0.00     0.066 A 
BRANCH  21  23
HETATM   23  O4  UNL     1      29.138  -1.535  53.650  1.00  0.00    -0.358 OA
HETATM   24  C13 UNL     1      28.902  -2.818  53.154  1.00  0.00     0.209 C 
ENDBRANCH  21  23
ENDBRANCH  15  17
ENDBRANCH   7  15
BRANCH   1  25
HETATM   25  O2  UNL     1      19.309   3.238  52.330  1.00  0.00    -0.346 OA
BRANCH  25  26
HETATM   26  C3  UNL     1      18.236   3.564  51.517  1.00  0.00     0.201 C 
BRANCH  26  27
HETATM   27  C2  UNL     1      17.185   2.494  51.524  1.00  0.00     0.193 C 
BRANCH  27  28
HETATM   28  O1  UNL     1      17.657   1.203  51.403  1.00  0.00    -0.394 OA
HETATM   29  C1  UNL     1      17.868   0.885  50.074  1.00  0.00     0.201 C 
ENDBRANCH  27  28
ENDBRANCH  26  27
ENDBRANCH  25  26
ENDBRANCH   1  25
TORSDOF 7
ENDMDL
MODEL 6
REMARK VINA RESULT:      -7.2      1.435      1.976
REMARK  7 active torsions:
REMARK  status: ('A' for Active; 'I' for Inactive)
REMARK    1  A    between atoms: O1_2  and  C2_3 
REMARK    2  A    between atoms: C2_3  and  C3_4 
REMARK    3  A    between atoms: C3_4  and  O2_5 
REMARK    4  A    between atoms: O2_5  and  C4_6 
REMARK    5  A    between atoms: C8_12  and  N3_13 
REMARK    6  A    between atoms: N3_13  and  C9_14 
REMARK    7  A    between atoms: C12_18  and  O4_19 
ROOT
HETATM    1  C4  UNL     1      24.874   0.102  53.546  1.00  0.00     0.107 A 
HETATM    2  C5  UNL     1      23.848  -0.558  54.178  1.00  0.00     0.072 A 
HETATM    3  C6  UNL     1      22.542  -0.582  53.769  1.00  0.00     0.077 A 
HETATM    4  N1  UNL     1      21.612  -1.246  54.437  1.00  0.00    -0.241 NA
HETATM    5  C7  UNL     1      20.330  -1.271  54.038  1.00  0.00     0.236 A 
HETATM    6  N2  UNL     1      19.934  -0.603  52.912  1.00  0.00    -0.223 NA
HETATM    7  C8  UNL     1      20.889   0.066  52.245  1.00  0.00     0.145 A 
HETATM    8  C15 UNL     1      22.197   0.107  52.628  1.00  0.00     0.075 A 
HETATM    9  C16 UNL     1      23.166   0.796  51.936  1.00  0.00     0.121 A 
HETATM   10  C17 UNL     1      24.492   0.801  52.381  1.00  0.00     0.136 A 
HETATM   11  O5  UNL     1      25.349   1.539  51.578  1.00  0.00    -0.344 OA
HETATM   12  C18 UNL     1      24.871   2.752  50.981  1.00  0.00     0.202 C 
HETATM   13  C19 UNL     1      23.528   2.611  50.350  1.00  0.00     0.202 C 
HETATM   14  O6  UNL     1      22.817   1.489  50.789  1.00  0.00    -0.345 OA
ENDROOT
BRANCH   7  15
HETATM   15  N3  UNL     1      20.454   0.748  51.082  1.00  0.00    -0.339 N 
HETATM   16  H10 UNL     1      20.504   0.933  50.065  1.00  0.00     0.167 HD
BRANCH  15  17
HETATM   17  C9  UNL     1      19.404   1.715  51.265  1.00  0.00     0.058 A 
HETATM   18  C10 UNL     1      19.441   2.847  51.947  1.00  0.00     0.164 A 
HETATM   19  O3  UNL     1      18.421   3.760  52.110  1.00  0.00    -0.354 OA
HETATM   20  C11 UNL     1      17.167   3.529  51.531  1.00  0.00     0.239 A 
HETATM   21  C12 UNL     1      17.190   2.254  50.785  1.00  0.00     0.072 A 
HETATM   22  C14 UNL     1      18.143   1.354  50.595  1.00  0.00     0.066 A 
BRANCH  21  23
HETATM   23  O4  UNL     1      15.946   2.040  50.208  1.00  0.00    -0.358 OA
HETATM   24  C13 UNL     1      15.662   1.108  49.208  1.00  0.00     0.209 C 
ENDBRANCH  21  23
ENDBRANCH  15  17
ENDBRANCH   7  15
BRANCH   1  25
HETATM   25  O2  UNL     1      26.181   0.217  53.814  1.00  0.00    -0.346 OA
BRANCH  25  26
HETATM   26  C3  UNL     1      26.931   0.260  54.977  1.00  0.00     0.201 C 
BRANCH  26  27
HETATM   27  C2  UNL     1      28.398   0.401  54.691  1.00  0.00     0.193 C 
BRANCH  27  28
HETATM   28  O1  UNL     1      28.904   1.678  54.824  1.00  0.00    -0.394 OA
HETATM   29  C1  UNL     1      28.721   2.397  53.658  1.00  0.00     0.201 C 
ENDBRANCH  27  28
ENDBRANCH  26  27
ENDBRANCH  25  26
ENDBRANCH   1  25
TORSDOF 7
ENDMDL
MODEL 7
REMARK VINA RESULT:      -7.1      1.774      3.486
REMARK  7 active torsions:
REMARK  status: ('A' for Active; 'I' for Inactive)
REMARK    1  A    between atoms: O1_2  and  C2_3 
REMARK    2  A    between atoms: C2_3  and  C3_4 
REMARK    3  A    between atoms: C3_4  and  O2_5 
REMARK    4  A    between atoms: O2_5  and  C4_6 
REMARK    5  A    between atoms: C8_12  and  N3_13 
REMARK    6  A    between atoms: N3_13  and  C9_14 
REMARK    7  A    between atoms: C12_18  and  O4_19 
ROOT
HETATM    1  C4  UNL     1      26.364   2.108  52.623  1.00  0.00     0.107 A 
HETATM    2  C5  UNL     1      26.067   2.739  51.439  1.00  0.00     0.072 A 
HETATM    3  C6  UNL     1      24.890   2.627  50.748  1.00  0.00     0.077 A 
HETATM    4  N1  UNL     1      24.683   3.272  49.611  1.00  0.00    -0.241 NA
HETATM    5  C7  UNL     1      23.531   3.163  48.930  1.00  0.00     0.236 A 
HETATM    6  N2  UNL     1      22.516   2.373  49.394  1.00  0.00    -0.223 NA
HETATM    7  C8  UNL     1      22.741   1.725  50.550  1.00  0.00     0.145 A 
HETATM    8  C15 UNL     1      23.901   1.818  51.260  1.00  0.00     0.075 A 
HETATM    9  C16 UNL     1      24.120   1.149  52.442  1.00  0.00     0.121 A 
HETATM   10  C17 UNL     1      25.333   1.285  53.124  1.00  0.00     0.136 A 
HETATM   11  O5  UNL     1      25.400   0.549  54.298  1.00  0.00    -0.344 OA
HETATM   12  C18 UNL     1      24.782  -0.744  54.345  1.00  0.00     0.202 C 
HETATM   13  C19 UNL     1      23.404  -0.762  53.775  1.00  0.00     0.202 C 
HETATM   14  O6  UNL     1      23.122   0.335  52.955  1.00  0.00    -0.345 OA
ENDROOT
BRANCH   7  15
HETATM   15  N3  UNL     1      21.674   0.914  51.009  1.00  0.00    -0.339 N 
HETATM   16  H10 UNL     1      21.290  -0.002  51.299  1.00  0.00     0.167 HD
BRANCH  15  17
HETATM   17  C9  UNL     1      20.414   1.576  51.221  1.00  0.00     0.058 A 
HETATM   18  C10 UNL     1      20.162   2.643  51.959  1.00  0.00     0.164 A 
HETATM   19  O3  UNL     1      18.945   3.261  52.149  1.00  0.00    -0.354 OA
HETATM   20  C11 UNL     1      17.792   2.753  51.536  1.00  0.00     0.239 A 
HETATM   21  C12 UNL     1      18.138   1.567  50.729  1.00  0.00     0.072 A 
HETATM   22  C14 UNL     1      19.287   0.945  50.512  1.00  0.00     0.066 A 
BRANCH  21  23
HETATM   23  O4  UNL     1      16.990   1.077  50.120  1.00  0.00    -0.358 OA
HETATM   24  C13 UNL     1      16.764  -0.252  49.759  1.00  0.00     0.209 C 
ENDBRANCH  21  23
ENDBRANCH  15  17
ENDBRANCH   7  15
BRANCH   1  25
HETATM   25  O2  UNL     1      27.447   2.117  53.411  1.00  0.00    -0.346 OA
BRANCH  25  26
HETATM   26  C3  UNL     1      28.693   1.516  53.350  1.00  0.00     0.201 C 
BRANCH  26  27
HETATM   27  C2  UNL     1      28.972   0.686  54.569  1.00  0.00     0.193 C 
BRANCH  27  28
HETATM   28  O1  UNL     1      28.440  -0.587  54.549  1.00  0.00    -0.394 OA
HETATM   29  C1  UNL     1      28.707  -1.207  53.342  1.00  0.00     0.201 C 
ENDBRANCH  27  28
ENDBRANCH  26  27
ENDBRANCH  25  26
ENDBRANCH   1  25
TORSDOF 7
ENDMDL
MODEL 8
REMARK VINA RESULT:      -7.0      2.666      3.797
REMARK  7 active torsions:
REMARK  status: ('A' for Active; 'I' for Inactive)
REMARK    1  A    between atoms: O1_2  and  C2_3 
REMARK    2  A    between atoms: C2_3  and  C3_4 
REMARK    3  A    between atoms: C3_4  and  O2_5 
REMARK    4  A    between atoms: O2_5  and  C4_6 
REMARK    5  A    between atoms: C8_12  and  N3_13 
REMARK    6  A    between atoms: N3_13  and  C9_14 
REMARK    7  A    between atoms: C12_18  and  O4_19 
ROOT
HETATM    1  C4  UNL     1      26.214  -0.196  52.694  1.00  0.00     0.107 A 
HETATM    2  C5  UNL     1      26.799   0.755  51.893  1.00  0.00     0.072 A 
HETATM    3  C6  UNL     1      26.186   1.881  51.412  1.00  0.00     0.077 A 
HETATM    4  N1  UNL     1      26.823   2.750  50.644  1.00  0.00    -0.241 NA
HETATM    5  C7  UNL     1      26.225   3.854  50.170  1.00  0.00     0.236 A 
HETATM    6  N2  UNL     1      24.918   4.124  50.468  1.00  0.00    -0.223 NA
HETATM    7  C8  UNL     1      24.284   3.233  51.249  1.00  0.00     0.145 A 
HETATM    8  C15 UNL     1      24.869   2.105  51.742  1.00  0.00     0.075 A 
HETATM    9  C16 UNL     1      24.209   1.199  52.541  1.00  0.00     0.121 A 
HETATM   10  C17 UNL     1      24.864   0.059  53.016  1.00  0.00     0.136 A 
HETATM   11  O5  UNL     1      24.066  -0.756  53.807  1.00  0.00    -0.344 OA
HETATM   12  C18 UNL     1      22.680  -0.907  53.473  1.00  0.00     0.202 C 
HETATM   13  C19 UNL     1      22.000   0.384  53.171  1.00  0.00     0.202 C 
HETATM   14  O6  UNL     1      22.883   1.427  52.872  1.00  0.00    -0.345 OA
ENDROOT
BRANCH   7  15
HETATM   15  N3  UNL     1      22.932   3.537  51.543  1.00  0.00    -0.339 N 
HETATM   16  H10 UNL     1      22.186   3.802  52.209  1.00  0.00     0.167 HD
BRANCH  15  17
HETATM   17  C9  UNL     1      22.011   3.485  50.439  1.00  0.00     0.058 A 
HETATM   18  C10 UNL     1      21.638   2.435  49.730  1.00  0.00     0.164 A 
HETATM   19  O3  UNL     1      20.752   2.409  48.674  1.00  0.00    -0.354 OA
HETATM   20  C11 UNL     1      20.148   3.592  48.230  1.00  0.00     0.239 A 
HETATM   21  C12 UNL     1      20.603   4.725  49.059  1.00  0.00     0.072 A 
HETATM   22  C14 UNL     1      21.440   4.797  50.083  1.00  0.00     0.066 A 
BRANCH  21  23
HETATM   23  O4  UNL     1      19.991   5.890  48.617  1.00  0.00    -0.358 OA
HETATM   24  C13 UNL     1      19.612   6.967  49.421  1.00  0.00     0.209 C 
ENDBRANCH  21  23
ENDBRANCH  15  17
ENDBRANCH   7  15
BRANCH   1  25
HETATM   25  O2  UNL     1      26.672  -1.329  53.241  1.00  0.00    -0.346 OA
BRANCH  25  26
HETATM   26  C3  UNL     1      27.404  -2.405  52.768  1.00  0.00     0.201 C 
BRANCH  26  27
HETATM   27  C2  UNL     1      28.858  -2.290  53.122  1.00  0.00     0.193 C 
BRANCH  27  28
HETATM   28  O1  UNL     1      29.160  -1.329  54.065  1.00  0.00    -0.394 OA
HETATM   29  C1  UNL     1      30.011  -0.377  53.534  1.00  0.00     0.201 C 
ENDBRANCH  27  28
ENDBRANCH  26  27
ENDBRANCH  25  26
ENDBRANCH   1  25
TORSDOF 7
ENDMDL
MODEL 9
REMARK VINA RESULT:      -6.9      3.177      7.795
REMARK  7 active torsions:
REMARK  status: ('A' for Active; 'I' for Inactive)
REMARK    1  A    between atoms: O1_2  and  C2_3 
REMARK    2  A    between atoms: C2_3  and  C3_4 
REMARK    3  A    between atoms: C3_4  and  O2_5 
REMARK    4  A    between atoms: O2_5  and  C4_6 
REMARK    5  A    between atoms: C8_12  and  N3_13 
REMARK    6  A    between atoms: N3_13  and  C9_14 
REMARK    7  A    between atoms: C12_18  and  O4_19 
ROOT
HETATM    1  C4  UNL     1      22.190   5.525  51.378  1.00  0.00     0.107 A 
HETATM    2  C5  UNL     1      21.471   4.457  51.857  1.00  0.00     0.072 A 
HETATM    3  C6  UNL     1      21.947   3.185  52.027  1.00  0.00     0.077 A 
HETATM    4  N1  UNL     1      21.186   2.209  52.497  1.00  0.00    -0.241 NA
HETATM    5  C7  UNL     1      21.650   0.961  52.664  1.00  0.00     0.236 A 
HETATM    6  N2  UNL     1      22.944   0.648  52.352  1.00  0.00    -0.223 NA
HETATM    7  C8  UNL     1      23.705   1.649  51.876  1.00  0.00     0.145 A 
HETATM    8  C15 UNL     1      23.258   2.924  51.697  1.00  0.00     0.075 A 
HETATM    9  C16 UNL     1      24.047   3.940  51.209  1.00  0.00     0.121 A 
HETATM   10  C17 UNL     1      23.529   5.229  51.047  1.00  0.00     0.136 A 
HETATM   11  O5  UNL     1      24.447   6.142  50.546  1.00  0.00    -0.344 OA
HETATM   12  C18 UNL     1      25.395   5.705  49.563  1.00  0.00     0.202 C 
HETATM   13  C19 UNL     1      26.054   4.414  49.909  1.00  0.00     0.202 C 
HETATM   14  O6  UNL     1      25.366   3.675  50.878  1.00  0.00    -0.345 OA
ENDROOT
BRANCH   7  15
HETATM   15  N3  UNL     1      25.041   1.299  51.561  1.00  0.00    -0.339 N 
HETATM   16  H10 UNL     1      25.800   1.136  50.876  1.00  0.00     0.167 HD
BRANCH  15  17
HETATM   17  C9  UNL     1      25.896   0.976  52.673  1.00  0.00     0.058 A 
HETATM   18  C10 UNL     1      26.033   1.622  53.818  1.00  0.00     0.164 A 
HETATM   19  O3  UNL     1      26.860   1.294  54.871  1.00  0.00    -0.354 OA
HETATM   20  C11 UNL     1      27.693   0.171  54.791  1.00  0.00     0.239 A 
HETATM   21  C12 UNL     1      27.494  -0.506  53.494  1.00  0.00     0.072 A 
HETATM   22  C14 UNL     1      26.710  -0.234  52.462  1.00  0.00     0.066 A 
BRANCH  21  23
HETATM   23  O4  UNL     1      28.317  -1.622  53.430  1.00  0.00    -0.358 OA
HETATM   24  C13 UNL     1      29.713  -1.607  53.461  1.00  0.00     0.209 C 
ENDBRANCH  21  23
ENDBRANCH  15  17
ENDBRANCH   7  15
BRANCH   1  25
HETATM   25  O2  UNL     1      21.875   6.808  51.161  1.00  0.00    -0.346 OA
BRANCH  25  26
HETATM   26  C3  UNL     1      21.040   7.463  50.271  1.00  0.00     0.201 C 
BRANCH  26  27
HETATM   27  C2  UNL     1      21.696   7.662  48.935  1.00  0.00     0.193 C 
BRANCH  27  28
HETATM   28  O1  UNL     1      21.099   7.000  47.881  1.00  0.00    -0.394 OA
HETATM   29  C1  UNL     1      20.924   7.855  46.808  1.00  0.00     0.201 C 
ENDBRANCH  27  28
ENDBRANCH  26  27
ENDBRANCH  25  26
ENDBRANCH   1  25
TORSDOF 7
ENDMDL
