MODEL 1
REMARK VINA RESULT:      -8.0      0.000      0.000
REMARK  7 active torsions:
REMARK  status: ('A' for Active; 'I' for Inactive)
REMARK    1  A    between atoms: C2_2  and  C3_3 
REMARK    2  A    between atoms: C3_3  and  C4_4 
REMARK    3  A    between atoms: C4_4  and  C5_5 
REMARK    4  A    between atoms: C12_12  and  C13_14 
REMARK    5  A    between atoms: C13_14  and  C14_15 
REMARK    6  A    between atoms: C14_15  and  C15_16 
REMARK    7  A    between atoms: C15_16  and  O3_18 
ROOT
HETATM    1  C5  UNL     1      21.914   0.413  51.896  1.00  0.00    -0.052 A 
HETATM    2  C6  UNL     1      22.149  -0.193  53.048  1.00  0.00     0.006 A 
HETATM    3  C7  UNL     1      23.463   0.183  53.588  1.00  0.00     0.010 A 
HETATM    4  C8  UNL     1      23.992   1.042  52.697  1.00  0.00    -0.023 A 
HETATM    5  C9  UNL     1      25.099   1.942  52.250  1.00  0.00    -0.022 C 
HETATM    6  C10 UNL     1      26.281   1.601  52.702  1.00  0.00     0.067 A 
HETATM    7  C11 UNL     1      27.670   1.859  52.760  1.00  0.00     0.010 A 
HETATM    8  C12 UNL     1      28.068   0.858  53.539  1.00  0.00    -0.076 A 
HETATM    9  O1  UNL     1      26.732   0.456  53.592  1.00  0.00     0.000 OA
HETATM   10  C16 UNL     1      24.335   2.921  51.422  1.00  0.00     0.013 C 
HETATM   11  C17 UNL     1      25.030   3.930  50.841  1.00  0.00     0.063 C 
HETATM   12  N1  UNL     1      22.953   2.611  51.399  1.00  0.00    -0.380 N 
HETATM   13  C18 UNL     1      23.060   1.198  51.506  1.00  0.00     0.144 A 
HETATM   14  H10 UNL     1      26.276   0.584  54.502  1.00  0.00     0.000 HD
HETATM   15  H18 UNL     1      22.246   3.359  51.322  1.00  0.00     0.160 HD
ENDROOT
BRANCH   1  16
HETATM   16  C4  UNL     1      20.688   0.261  51.096  1.00  0.00     0.054 C 
BRANCH  16  17
HETATM   17  C3  UNL     1      19.528   0.657  51.878  1.00  0.00     0.071 C 
BRANCH  17  18
HETATM   18  C2  UNL     1      18.539  -0.213  51.999  1.00  0.00    -0.176 C 
HETATM   19  C1  UNL     1      17.464  -0.932  52.272  1.00  0.00     0.091 C 
ENDBRANCH  17  18
ENDBRANCH  16  17
ENDBRANCH   1  16
BRANCH   8  20
HETATM   20  C13 UNL     1      28.887  -0.095  54.358  1.00  0.00     0.045 C 
BRANCH  20  21
HETATM   21  C14 UNL     1      29.683  -0.940  53.344  1.00  0.00     0.114 C 
BRANCH  21  22
HETATM   22  C15 UNL     1      29.099  -2.282  53.329  1.00  0.00     0.139 C 
HETATM   23  O2  UNL     1      27.842  -2.315  53.152  1.00  0.00    -0.650 OA
BRANCH  22  24
HETATM   24  O3  UNL     1      28.648  -3.583  53.330  1.00  0.00    -0.776 OA
HETATM   25  H15 UNL     1      28.240  -4.026  54.146  1.00  0.00     0.167 HD
ENDBRANCH  22  24
ENDBRANCH  21  22
ENDBRANCH  20  21
ENDBRANCH   8  20
TORSDOF 7
ENDMDL
MODEL 2
REMARK VINA RESULT:      -7.7      1.421      2.172
REMARK  7 active torsions:
REMARK  status: ('A' for Active; 'I' for Inactive)
REMARK    1  A    between atoms: C2_2  and  C3_3 
REMARK    2  A    between atoms: C3_3  and  C4_4 
REMARK    3  A    between atoms: C4_4  and  C5_5 
REMARK    4  A    between atoms: C12_12  and  C13_14 
REMARK    5  A    between atoms: C13_14  and  C14_15 
REMARK    6  A    between atoms: C14_15  and  C15_16 
REMARK    7  A    between atoms: C15_16  and  O3_18 
ROOT
HETATM    1  C5  UNL     1      22.155   1.004  51.247  1.00  0.00    -0.052 A 
HETATM    2  C6  UNL     1      22.224   0.378  52.409  1.00  0.00     0.006 A 
HETATM    3  C7  UNL     1      23.503   0.646  53.081  1.00  0.00     0.010 A 
HETATM    4  C8  UNL     1      24.185   1.463  52.257  1.00  0.00    -0.023 A 
HETATM    5  C9  UNL     1      25.399   2.272  51.932  1.00  0.00    -0.022 C 
HETATM    6  C10 UNL     1      26.499   1.837  52.496  1.00  0.00     0.067 A 
HETATM    7  C11 UNL     1      27.892   1.983  52.694  1.00  0.00     0.010 A 
HETATM    8  C12 UNL     1      28.129   0.951  53.497  1.00  0.00    -0.076 A 
HETATM    9  O1  UNL     1      26.767   0.656  53.413  1.00  0.00     0.000 OA
HETATM   10  C16 UNL     1      24.802   3.312  51.043  1.00  0.00     0.013 C 
HETATM   11  C17 UNL     1      25.629   4.265  50.545  1.00  0.00     0.063 C 
HETATM   12  N1  UNL     1      23.409   3.114  50.879  1.00  0.00    -0.380 N 
HETATM   13  C18 UNL     1      23.392   1.696  50.981  1.00  0.00     0.144 A 
HETATM   14  H10 UNL     1      26.234   0.817  54.274  1.00  0.00     0.000 HD
HETATM   15  H18 UNL     1      22.774   3.916  50.741  1.00  0.00     0.160 HD
ENDROOT
BRANCH   1  16
HETATM   16  C4  UNL     1      21.007   0.953  50.327  1.00  0.00     0.054 C 
BRANCH  16  17
HETATM   17  C3  UNL     1      21.468   0.775  48.959  1.00  0.00     0.071 C 
BRANCH  17  18
HETATM   18  C2  UNL     1      21.531   1.846  48.184  1.00  0.00    -0.176 C 
HETATM   19  C1  UNL     1      21.822   2.894  47.436  1.00  0.00     0.091 C 
ENDBRANCH  17  18
ENDBRANCH  16  17
ENDBRANCH   1  16
BRANCH   8  20
HETATM   20  C13 UNL     1      28.784  -0.067  54.383  1.00  0.00     0.045 C 
BRANCH  20  21
HETATM   21  C14 UNL     1      29.675  -0.917  53.455  1.00  0.00     0.114 C 
BRANCH  21  22
HETATM   22  C15 UNL     1      29.096  -2.259  53.388  1.00  0.00     0.139 C 
HETATM   23  O2  UNL     1      27.879  -2.297  53.028  1.00  0.00    -0.650 OA
BRANCH  22  24
HETATM   24  O3  UNL     1      28.645  -3.560  53.357  1.00  0.00    -0.776 OA
HETATM   25  H15 UNL     1      29.182  -4.341  53.717  1.00  0.00     0.167 HD
ENDBRANCH  22  24
ENDBRANCH  21  22
ENDBRANCH  20  21
ENDBRANCH   8  20
TORSDOF 7
ENDMDL
MODEL 3
REMARK VINA RESULT:      -7.6      2.109      3.278
REMARK  7 active torsions:
REMARK  status: ('A' for Active; 'I' for Inactive)
REMARK    1  A    between atoms: C2_2  and  C3_3 
REMARK    2  A    between atoms: C3_3  and  C4_4 
REMARK    3  A    between atoms: C4_4  and  C5_5 
REMARK    4  A    between atoms: C12_12  and  C13_14 
REMARK    5  A    between atoms: C13_14  and  C14_15 
REMARK    6  A    between atoms: C14_15  and  C15_16 
REMARK    7  A    between atoms: C15_16  and  O3_18 
ROOT
HETATM    1  C5  UNL     1      19.968  -0.882  53.454  1.00  0.00    -0.052 A 
HETATM    2  C6  UNL     1      20.777  -1.500  54.299  1.00  0.00     0.006 A 
HETATM    3  C7  UNL     1      22.115  -0.894  54.293  1.00  0.00     0.010 A 
HETATM    4  C8  UNL     1      22.056   0.114  53.403  1.00  0.00    -0.023 A 
HETATM    5  C9  UNL     1      22.696   1.254  52.677  1.00  0.00    -0.022 C 
HETATM    6  C10 UNL     1      23.994   1.139  52.539  1.00  0.00     0.067 A 
HETATM    7  C11 UNL     1      25.207   1.678  52.052  1.00  0.00     0.010 A 
HETATM    8  C12 UNL     1      26.060   0.733  52.434  1.00  0.00    -0.076 A 
HETATM    9  O1  UNL     1      24.966   0.057  52.976  1.00  0.00     0.000 OA
HETATM   10  C16 UNL     1      21.500   2.104  52.399  1.00  0.00     0.013 C 
HETATM   11  C17 UNL     1      21.699   3.273  51.741  1.00  0.00     0.063 C 
HETATM   12  N1  UNL     1      20.318   1.514  52.907  1.00  0.00    -0.380 N 
HETATM   13  C18 UNL     1      20.685   0.150  52.746  1.00  0.00     0.144 A 
HETATM   14  H10 UNL     1      24.940   0.026  54.002  1.00  0.00     0.000 HD
HETATM   15  H18 UNL     1      19.538   2.100  53.245  1.00  0.00     0.160 HD
ENDROOT
BRANCH   1  16
HETATM   16  C4  UNL     1      18.558  -1.234  53.224  1.00  0.00     0.054 C 
BRANCH  16  17
HETATM   17  C3  UNL     1      18.244  -2.496  53.875  1.00  0.00     0.071 C 
BRANCH  17  18
HETATM   18  C2  UNL     1      17.152  -3.135  53.488  1.00  0.00    -0.176 C 
HETATM   19  C1  UNL     1      16.159  -3.770  52.891  1.00  0.00     0.091 C 
ENDBRANCH  17  18
ENDBRANCH  16  17
ENDBRANCH   1  16
BRANCH   8  20
HETATM   20  C13 UNL     1      27.296  -0.079  52.684  1.00  0.00     0.045 C 
BRANCH  20  21
HETATM   21  C14 UNL     1      27.959   0.542  53.930  1.00  0.00     0.114 C 
BRANCH  21  22
HETATM   22  C15 UNL     1      28.578   1.803  53.522  1.00  0.00     0.139 C 
HETATM   23  O2  UNL     1      29.212   2.408  54.441  1.00  0.00    -0.650 OA
BRANCH  22  24
HETATM   24  O3  UNL     1      29.121   2.974  53.041  1.00  0.00    -0.776 OA
HETATM   25  H15 UNL     1      29.232   3.167  52.051  1.00  0.00     0.167 HD
ENDBRANCH  22  24
ENDBRANCH  21  22
ENDBRANCH  20  21
ENDBRANCH   8  20
TORSDOF 7
ENDMDL
MODEL 4
REMARK VINA RESULT:      -7.6      1.553      2.257
REMARK  7 active torsions:
REMARK  status: ('A' for Active; 'I' for Inactive)
REMARK    1  A    between atoms: C2_2  and  C3_3 
REMARK    2  A    between atoms: C3_3  and  C4_4 
REMARK    3  A    between atoms: C4_4  and  C5_5 
REMARK    4  A    between atoms: C12_12  and  C13_14 
REMARK    5  A    between atoms: C13_14  and  C14_15 
REMARK    6  A    between atoms: C14_15  and  C15_16 
REMARK    7  A    between atoms: C15_16  and  O3_18 
ROOT
HETATM    1  C5  UNL     1      20.818  -0.578  53.611  1.00  0.00    -0.052 A 
HETATM    2  C6  UNL     1      21.434  -1.248  54.570  1.00  0.00     0.006 A 
HETATM    3  C7  UNL     1      22.885  -1.018  54.530  1.00  0.00     0.010 A 
HETATM    4  C8  UNL     1      23.093  -0.177  53.501  1.00  0.00    -0.023 A 
HETATM    5  C9  UNL     1      24.011   0.633  52.642  1.00  0.00    -0.022 C 
HETATM    6  C10 UNL     1      25.234   0.167  52.576  1.00  0.00     0.067 A 
HETATM    7  C11 UNL     1      26.547   0.292  52.066  1.00  0.00     0.010 A 
HETATM    8  C12 UNL     1      27.121  -0.772  52.617  1.00  0.00    -0.076 A 
HETATM    9  O1  UNL     1      25.887  -1.050  53.207  1.00  0.00     0.000 OA
HETATM   10  C16 UNL     1      23.080   1.712  52.193  1.00  0.00     0.013 C 
HETATM   11  C17 UNL     1      23.580   2.675  51.380  1.00  0.00     0.063 C 
HETATM   12  N1  UNL     1      21.784   1.533  52.733  1.00  0.00    -0.380 N 
HETATM   13  C18 UNL     1      21.781   0.112  52.789  1.00  0.00     0.144 A 
HETATM   14  H10 UNL     1      25.853  -0.917  54.224  1.00  0.00     0.000 HD
HETATM   15  H18 UNL     1      21.185   2.345  52.949  1.00  0.00     0.160 HD
ENDROOT
BRANCH   1  16
HETATM   16  C4  UNL     1      19.364  -0.584  53.377  1.00  0.00     0.054 C 
BRANCH  16  17
HETATM   17  C3  UNL     1      19.079  -0.224  51.997  1.00  0.00     0.071 C 
BRANCH  17  18
HETATM   18  C2  UNL     1      17.827  -0.326  51.579  1.00  0.00    -0.176 C 
HETATM   19  C1  UNL     1      16.671  -0.513  50.968  1.00  0.00     0.091 C 
ENDBRANCH  17  18
ENDBRANCH  16  17
ENDBRANCH   1  16
BRANCH   8  20
HETATM   20  C13 UNL     1      28.100  -1.828  53.035  1.00  0.00     0.045 C 
BRANCH  20  21
HETATM   21  C14 UNL     1      29.395  -1.077  53.403  1.00  0.00     0.114 C 
BRANCH  21  22
HETATM   22  C15 UNL     1      29.041  -0.019  54.350  1.00  0.00     0.139 C 
HETATM   23  O2  UNL     1      29.554   1.115  54.099  1.00  0.00    -0.650 OA
BRANCH  22  24
HETATM   24  O3  UNL     1      28.650   0.904  55.294  1.00  0.00    -0.776 OA
HETATM   25  H15 UNL     1      27.898   0.737  55.954  1.00  0.00     0.167 HD
ENDBRANCH  22  24
ENDBRANCH  21  22
ENDBRANCH  20  21
ENDBRANCH   8  20
TORSDOF 7
ENDMDL
MODEL 5
REMARK VINA RESULT:      -7.3      3.437      6.972
REMARK  7 active torsions:
REMARK  status: ('A' for Active; 'I' for Inactive)
REMARK    1  A    between atoms: C2_2  and  C3_3 
REMARK    2  A    between atoms: C3_3  and  C4_4 
REMARK    3  A    between atoms: C4_4  and  C5_5 
REMARK    4  A    between atoms: C12_12  and  C13_14 
REMARK    5  A    between atoms: C13_14  and  C14_15 
REMARK    6  A    between atoms: C14_15  and  C15_16 
REMARK    7  A    between atoms: C15_16  and  O3_18 
ROOT
HETATM    1  C5  UNL     1      26.782   6.528  48.720  1.00  0.00    -0.052 A 
HETATM    2  C6  UNL     1      27.758   5.682  48.436  1.00  0.00     0.006 A 
HETATM    3  C7  UNL     1      27.433   4.324  48.895  1.00  0.00     0.010 A 
HETATM    4  C8  UNL     1      26.215   4.411  49.461  1.00  0.00    -0.023 A 
HETATM    5  C9  UNL     1      25.051   3.781  50.157  1.00  0.00    -0.022 C 
HETATM    6  C10 UNL     1      25.357   2.714  50.853  1.00  0.00     0.067 A 
HETATM    7  C11 UNL     1      24.931   1.661  51.696  1.00  0.00     0.010 A 
HETATM    8  C12 UNL     1      26.086   1.038  51.903  1.00  0.00    -0.076 A 
HETATM    9  O1  UNL     1      26.678   2.004  51.088  1.00  0.00     0.000 OA
HETATM   10  C16 UNL     1      23.953   4.698  49.729  1.00  0.00     0.013 C 
HETATM   11  C17 UNL     1      22.699   4.426  50.171  1.00  0.00     0.063 C 
HETATM   12  N1  UNL     1      24.438   5.730  48.891  1.00  0.00    -0.380 N 
HETATM   13  C18 UNL     1      25.738   5.855  49.452  1.00  0.00     0.144 A 
HETATM   14  H10 UNL     1      27.003   1.663  50.177  1.00  0.00     0.000 HD
HETATM   15  H18 UNL     1      23.844   6.130  48.147  1.00  0.00     0.160 HD
ENDROOT
BRANCH   1  16
HETATM   16  C4  UNL     1      26.786   7.963  48.391  1.00  0.00     0.054 C 
BRANCH  16  17
HETATM   17  C3  UNL     1      27.392   8.722  49.473  1.00  0.00     0.071 C 
BRANCH  17  18
HETATM   18  C2  UNL     1      28.640   9.132  49.315  1.00  0.00    -0.176 C 
HETATM   19  C1  UNL     1      29.882   9.577  49.387  1.00  0.00     0.091 C 
ENDBRANCH  17  18
ENDBRANCH  16  17
ENDBRANCH   1  16
BRANCH   8  20
HETATM   20  C13 UNL     1      27.149   0.085  52.364  1.00  0.00     0.045 C 
BRANCH  20  21
HETATM   21  C14 UNL     1      26.422  -1.244  52.653  1.00  0.00     0.114 C 
BRANCH  21  22
HETATM   22  C15 UNL     1      27.437  -2.291  52.767  1.00  0.00     0.139 C 
HETATM   23  O2  UNL     1      28.447  -1.980  53.472  1.00  0.00    -0.650 OA
BRANCH  22  24
HETATM   24  O3  UNL     1      28.331  -3.337  52.814  1.00  0.00    -0.776 OA
HETATM   25  H15 UNL     1      28.058  -4.290  53.026  1.00  0.00     0.167 HD
ENDBRANCH  22  24
ENDBRANCH  21  22
ENDBRANCH  20  21
ENDBRANCH   8  20
TORSDOF 7
ENDMDL
MODEL 6
REMARK VINA RESULT:      -7.3      2.835      6.041
REMARK  7 active torsions:
REMARK  status: ('A' for Active; 'I' for Inactive)
REMARK    1  A    between atoms: C2_2  and  C3_3 
REMARK    2  A    between atoms: C3_3  and  C4_4 
REMARK    3  A    between atoms: C4_4  and  C5_5 
REMARK    4  A    between atoms: C12_12  and  C13_14 
REMARK    5  A    between atoms: C13_14  and  C14_15 
REMARK    6  A    between atoms: C14_15  and  C15_16 
REMARK    7  A    between atoms: C15_16  and  O3_18 
ROOT
HETATM    1  C5  UNL     1      25.707   5.391  49.405  1.00  0.00    -0.052 A 
HETATM    2  C6  UNL     1      26.725   4.695  48.928  1.00  0.00     0.006 A 
HETATM    3  C7  UNL     1      26.756   3.341  49.499  1.00  0.00     0.010 A 
HETATM    4  C8  UNL     1      25.704   3.273  50.335  1.00  0.00    -0.023 A 
HETATM    5  C9  UNL     1      24.858   2.517  51.309  1.00  0.00    -0.022 C 
HETATM    6  C10 UNL     1      25.496   1.570  51.950  1.00  0.00     0.067 A 
HETATM    7  C11 UNL     1      25.464   0.529  52.907  1.00  0.00     0.010 A 
HETATM    8  C12 UNL     1      26.727   0.118  52.856  1.00  0.00    -0.076 A 
HETATM    9  O1  UNL     1      26.940   1.103  51.890  1.00  0.00     0.000 OA
HETATM   10  C16 UNL     1      23.548   3.209  51.123  1.00  0.00     0.013 C 
HETATM   11  C17 UNL     1      22.495   2.772  51.858  1.00  0.00     0.063 C 
HETATM   12  N1  UNL     1      23.641   4.240  50.156  1.00  0.00    -0.380 N 
HETATM   13  C18 UNL     1      24.992   4.616  50.388  1.00  0.00     0.144 A 
HETATM   14  H10 UNL     1      27.103   0.750  50.940  1.00  0.00     0.000 HD
HETATM   15  H18 UNL     1      22.832   4.481  49.561  1.00  0.00     0.160 HD
ENDROOT
BRANCH   1  16
HETATM   16  C4  UNL     1      25.385   6.779  49.034  1.00  0.00     0.054 C 
BRANCH  16  17
HETATM   17  C3  UNL     1      25.549   7.655  50.183  1.00  0.00     0.071 C 
BRANCH  17  18
HETATM   18  C2  UNL     1      26.561   8.508  50.169  1.00  0.00    -0.176 C 
HETATM   19  C1  UNL     1      27.656   9.225  49.986  1.00  0.00     0.091 C 
ENDBRANCH  17  18
ENDBRANCH  16  17
ENDBRANCH   1  16
BRANCH   8  20
HETATM   20  C13 UNL     1      28.017  -0.613  53.085  1.00  0.00     0.045 C 
BRANCH  20  21
HETATM   21  C14 UNL     1      28.676   0.072  54.299  1.00  0.00     0.114 C 
BRANCH  21  22
HETATM   22  C15 UNL     1      28.991   1.449  53.915  1.00  0.00     0.139 C 
HETATM   23  O2  UNL     1      29.328   2.207  54.877  1.00  0.00    -0.650 OA
BRANCH  22  24
HETATM   24  O3  UNL     1      29.268   2.716  53.453  1.00  0.00    -0.776 OA
HETATM   25  H15 UNL     1      29.959   2.906  52.736  1.00  0.00     0.167 HD
ENDBRANCH  22  24
ENDBRANCH  21  22
ENDBRANCH  20  21
ENDBRANCH   8  20
TORSDOF 7
ENDMDL
MODEL 7
REMARK VINA RESULT:      -7.2      3.956      6.393
REMARK  7 active torsions:
REMARK  status: ('A' for Active; 'I' for Inactive)
REMARK    1  A    between atoms: C2_2  and  C3_3 
REMARK    2  A    between atoms: C3_3  and  C4_4 
REMARK    3  A    between atoms: C4_4  and  C5_5 
REMARK    4  A    between atoms: C12_12  and  C13_14 
REMARK    5  A    between atoms: C13_14  and  C14_15 
REMARK    6  A    between atoms: C14_15  and  C15_16 
REMARK    7  A    between atoms: C15_16  and  O3_18 
ROOT
HETATM    1  C5  UNL     1      25.730   0.435  52.609  1.00  0.00    -0.052 A 
HETATM    2  C6  UNL     1      26.985   0.804  52.804  1.00  0.00     0.006 A 
HETATM    3  C7  UNL     1      27.262   2.100  52.168  1.00  0.00     0.010 A 
HETATM    4  C8  UNL     1      26.107   2.478  51.590  1.00  0.00    -0.023 A 
HETATM    5  C9  UNL     1      25.305   3.457  50.794  1.00  0.00    -0.022 C 
HETATM    6  C10 UNL     1      26.016   4.191  49.974  1.00  0.00     0.067 A 
HETATM    7  C11 UNL     1      26.057   5.209  48.994  1.00  0.00     0.010 A 
HETATM    8  C12 UNL     1      27.360   5.241  48.735  1.00  0.00    -0.076 A 
HETATM    9  O1  UNL     1      27.506   4.223  49.680  1.00  0.00     0.000 OA
HETATM   10  C16 UNL     1      23.934   3.167  51.311  1.00  0.00     0.013 C 
HETATM   11  C17 UNL     1      22.906   3.897  50.810  1.00  0.00     0.063 C 
HETATM   12  N1  UNL     1      23.955   2.140  52.285  1.00  0.00    -0.380 N 
HETATM   13  C18 UNL     1      25.054   1.396  51.773  1.00  0.00     0.144 A 
HETATM   14  H10 UNL     1      27.978   4.502  50.547  1.00  0.00     0.000 HD
HETATM   15  H18 UNL     1      23.274   2.133  53.060  1.00  0.00     0.160 HD
ENDROOT
BRANCH   1  16
HETATM   16  C4  UNL     1      25.126  -0.807  53.119  1.00  0.00     0.054 C 
BRANCH  16  17
HETATM   17  C3  UNL     1      24.360  -0.533  54.324  1.00  0.00     0.071 C 
BRANCH  17  18
HETATM   18  C2  UNL     1      23.063  -0.798  54.305  1.00  0.00    -0.176 C 
HETATM   19  C1  UNL     1      21.812  -1.182  54.480  1.00  0.00     0.091 C 
ENDBRANCH  17  18
ENDBRANCH  16  17
ENDBRANCH   1  16
BRANCH   8  20
HETATM   20  C13 UNL     1      28.713   5.575  48.179  1.00  0.00     0.045 C 
BRANCH  20  21
HETATM   21  C14 UNL     1      28.594   7.008  47.625  1.00  0.00     0.114 C 
BRANCH  21  22
HETATM   22  C15 UNL     1      29.010   7.930  48.683  1.00  0.00     0.139 C 
HETATM   23  O2  UNL     1      28.075   8.636  49.172  1.00  0.00    -0.650 OA
BRANCH  22  24
HETATM   24  O3  UNL     1      29.499   8.760  49.666  1.00  0.00    -0.776 OA
HETATM   25  H15 UNL     1      30.486   8.836  49.886  1.00  0.00     0.167 HD
ENDBRANCH  22  24
ENDBRANCH  21  22
ENDBRANCH  20  21
ENDBRANCH   8  20
TORSDOF 7
ENDMDL
MODEL 8
REMARK VINA RESULT:      -7.2      3.162      7.829
REMARK  7 active torsions:
REMARK  status: ('A' for Active; 'I' for Inactive)
REMARK    1  A    between atoms: C2_2  and  C3_3 
REMARK    2  A    between atoms: C3_3  and  C4_4 
REMARK    3  A    between atoms: C4_4  and  C5_5 
REMARK    4  A    between atoms: C12_12  and  C13_14 
REMARK    5  A    between atoms: C13_14  and  C14_15 
REMARK    6  A    between atoms: C14_15  and  C15_16 
REMARK    7  A    between atoms: C15_16  and  O3_18 
ROOT
HETATM    1  C5  UNL     1      27.035  -0.399  52.817  1.00  0.00    -0.052 A 
HETATM    2  C6  UNL     1      26.853   0.619  51.992  1.00  0.00     0.006 A 
HETATM    3  C7  UNL     1      25.439   1.015  51.941  1.00  0.00     0.010 A 
HETATM    4  C8  UNL     1      24.796   0.181  52.779  1.00  0.00    -0.023 A 
HETATM    5  C9  UNL     1      23.541  -0.292  53.442  1.00  0.00    -0.022 C 
HETATM    6  C10 UNL     1      22.451  -0.059  52.753  1.00  0.00     0.067 A 
HETATM    7  C11 UNL     1      21.045  -0.161  52.651  1.00  0.00     0.010 A 
HETATM    8  C12 UNL     1      20.848   0.415  51.469  1.00  0.00    -0.076 A 
HETATM    9  O1  UNL     1      22.230   0.599  51.402  1.00  0.00     0.000 OA
HETATM   10  C16 UNL     1      24.101  -0.869  54.700  1.00  0.00     0.013 C 
HETATM   11  C17 UNL     1      23.228  -1.402  55.590  1.00  0.00     0.063 C 
HETATM   12  N1  UNL     1      25.510  -0.740  54.746  1.00  0.00    -0.380 N 
HETATM   13  C18 UNL     1      25.769  -0.838  53.351  1.00  0.00     0.144 A 
HETATM   14  H10 UNL     1      22.542   1.573  51.487  1.00  0.00     0.000 HD
HETATM   15  H18 UNL     1      26.001  -0.618  55.646  1.00  0.00     0.160 HD
ENDROOT
BRANCH   1  16
HETATM   16  C4  UNL     1      28.332  -1.034  53.103  1.00  0.00     0.054 C 
BRANCH  16  17
HETATM   17  C3  UNL     1      28.941  -0.423  54.274  1.00  0.00     0.071 C 
BRANCH  17  18
HETATM   18  C2  UNL     1      29.021   0.898  54.309  1.00  0.00    -0.176 C 
HETATM   19  C1  UNL     1      29.325   2.183  54.296  1.00  0.00     0.091 C 
ENDBRANCH  17  18
ENDBRANCH  16  17
ENDBRANCH   1  16
BRANCH   8  20
HETATM   20  C13 UNL     1      20.230   0.978  50.224  1.00  0.00     0.045 C 
BRANCH  20  21
HETATM   21  C14 UNL     1      19.125   1.941  50.704  1.00  0.00     0.114 C 
BRANCH  21  22
HETATM   22  C15 UNL     1      19.777   3.143  51.222  1.00  0.00     0.139 C 
HETATM   23  O2  UNL     1      19.399   3.498  52.381  1.00  0.00    -0.650 OA
BRANCH  22  24
HETATM   24  O3  UNL     1      20.447   4.280  51.619  1.00  0.00    -0.776 OA
HETATM   25  H15 UNL     1      20.301   5.187  51.189  1.00  0.00     0.167 HD
ENDBRANCH  22  24
ENDBRANCH  21  22
ENDBRANCH  20  21
ENDBRANCH   8  20
TORSDOF 7
ENDMDL
MODEL 9
REMARK VINA RESULT:      -7.1      3.964      5.778
REMARK  7 active torsions:
REMARK  status: ('A' for Active; 'I' for Inactive)
REMARK    1  A    between atoms: C2_2  and  C3_3 
REMARK    2  A    between atoms: C3_3  and  C4_4 
REMARK    3  A    between atoms: C4_4  and  C5_5 
REMARK    4  A    between atoms: C12_12  and  C13_14 
REMARK    5  A    between atoms: C13_14  and  C14_15 
REMARK    6  A    between atoms: C14_15  and  C15_16 
REMARK    7  A    between atoms: C15_16  and  O3_18 
ROOT
HETATM    1  C5  UNL     1      24.343   1.641  51.679  1.00  0.00    -0.052 A 
HETATM    2  C6  UNL     1      25.615   1.368  51.916  1.00  0.00     0.006 A 
HETATM    3  C7  UNL     1      26.489   2.440  51.420  1.00  0.00     0.010 A 
HETATM    4  C8  UNL     1      25.669   3.361  50.881  1.00  0.00    -0.023 A 
HETATM    5  C9  UNL     1      25.448   4.668  50.189  1.00  0.00    -0.022 C 
HETATM    6  C10 UNL     1      26.459   5.060  49.452  1.00  0.00     0.067 A 
HETATM    7  C11 UNL     1      27.013   6.029  48.584  1.00  0.00     0.010 A 
HETATM    8  C12 UNL     1      28.196   5.478  48.334  1.00  0.00    -0.076 A 
HETATM    9  O1  UNL     1      27.809   4.428  49.168  1.00  0.00     0.000 OA
HETATM   10  C16 UNL     1      24.073   4.999  50.667  1.00  0.00     0.013 C 
HETATM   11  C17 UNL     1      23.523   6.163  50.242  1.00  0.00     0.063 C 
HETATM   12  N1  UNL     1      23.570   3.994  51.529  1.00  0.00    -0.380 N 
HETATM   13  C18 UNL     1      24.228   2.877  50.946  1.00  0.00     0.144 A 
HETATM   14  H10 UNL     1      28.311   4.375  50.062  1.00  0.00     0.000 HD
HETATM   15  H18 UNL     1      22.922   4.233  52.296  1.00  0.00     0.160 HD
ENDROOT
BRANCH   1  16
HETATM   16  C4  UNL     1      23.210   0.779  52.054  1.00  0.00     0.054 C 
BRANCH  16  17
HETATM   17  C3  UNL     1      23.574  -0.061  53.184  1.00  0.00     0.071 C 
BRANCH  17  18
HETATM   18  C2  UNL     1      22.599  -0.682  53.830  1.00  0.00    -0.176 C 
HETATM   19  C1  UNL     1      21.599  -1.100  54.585  1.00  0.00     0.091 C 
ENDBRANCH  17  18
ENDBRANCH  16  17
ENDBRANCH   1  16
BRANCH   8  20
HETATM   20  C13 UNL     1      29.578   5.197  47.822  1.00  0.00     0.045 C 
BRANCH  20  21
HETATM   21  C14 UNL     1      30.451   6.370  48.311  1.00  0.00     0.114 C 
BRANCH  21  22
HETATM   22  C15 UNL     1      31.091   5.956  49.560  1.00  0.00     0.139 C 
HETATM   23  O2  UNL     1      32.359   6.032  49.561  1.00  0.00    -0.650 OA
BRANCH  22  24
HETATM   24  O3  UNL     1      31.596   5.547  50.775  1.00  0.00    -0.776 OA
HETATM   25  H15 UNL     1      32.578   5.623  51.020  1.00  0.00     0.167 HD
ENDBRANCH  22  24
ENDBRANCH  21  22
ENDBRANCH  20  21
ENDBRANCH   8  20
TORSDOF 7
ENDMDL
