MODEL 1
REMARK VINA RESULT:      -8.4      0.000      0.000
REMARK  3 active torsions:
REMARK  status: ('A' for Active; 'I' for Inactive)
REMARK    1  A    between atoms: C5_5  and  N1_7 
REMARK    2  A    between atoms: C10_13  and  O1_14 
REMARK    3  A    between atoms: O1_14  and  C11_15 
ROOT
HETATM    1  C1  UNL     1      18.904   0.485  50.541  1.00  0.00     0.017 C 
HETATM    2  C2  UNL     1      19.963   1.093  50.648  1.00  0.00    -0.082 C 
HETATM    3  C3  UNL     1      21.214   1.789  50.761  1.00  0.00    -0.005 A 
HETATM    4  C4  UNL     1      21.608   2.708  51.548  1.00  0.00     0.016 A 
HETATM    5  C5  UNL     1      22.967   2.763  50.918  1.00  0.00     0.053 A 
HETATM    6  C6  UNL     1      23.183   4.071  50.170  1.00  0.00     0.039 C 
HETATM    7  C18 UNL     1      22.480   1.707  50.051  1.00  0.00     0.078 A 
ENDROOT
BRANCH   5   8
HETATM    8  N1  UNL     1      23.914   2.503  51.988  1.00  0.00    -0.202 NA
HETATM    9  N2  UNL     1      24.879   3.563  51.852  1.00  0.00    -0.311 N 
HETATM   10  C7  UNL     1      25.830   3.425  50.775  1.00  0.00     0.218 C 
HETATM   11  H6  UNL     1      24.983   4.443  52.433  1.00  0.00     0.181 HD
HETATM   12  N3  UNL     1      26.420   2.236  50.791  1.00  0.00    -0.245 NA
HETATM   13  C8  UNL     1      26.026   1.324  51.848  1.00  0.00     0.062 A 
HETATM   14  C9  UNL     1      27.042   0.710  52.477  1.00  0.00     0.069 A 
HETATM   15  C17 UNL     1      24.538   1.241  52.000  1.00  0.00     0.170 A 
HETATM   16  C10 UNL     1      26.638  -0.196  53.542  1.00  0.00     0.104 A 
HETATM   17  C13 UNL     1      25.369  -0.379  53.846  1.00  0.00     0.115 A 
HETATM   18  O2  UNL     1      25.173  -1.281  54.895  1.00  0.00    -0.322 OA
HETATM   19  C16 UNL     1      24.291   0.324  53.126  1.00  0.00     0.026 A 
HETATM   20  C14 UNL     1      23.925  -1.237  55.608  1.00  0.00     0.350 C 
HETATM   21  O3  UNL     1      22.886  -0.918  54.670  1.00  0.00    -0.337 OA
HETATM   22  C15 UNL     1      23.125  -0.032  53.630  1.00  0.00     0.149 C 
BRANCH  16  23
HETATM   23  O1  UNL     1      27.681  -0.838  54.195  1.00  0.00    -0.349 OA
BRANCH  23  24
HETATM   24  C11 UNL     1      28.946  -0.210  54.196  1.00  0.00     0.171 C 
HETATM   25  C12 UNL     1      30.019  -1.160  53.696  1.00  0.00     0.034 C 
ENDBRANCH  23  24
ENDBRANCH  16  23
ENDBRANCH   5   8
TORSDOF 3
ENDMDL
MODEL 2
REMARK VINA RESULT:      -7.5      3.161      5.106
REMARK  3 active torsions:
REMARK  status: ('A' for Active; 'I' for Inactive)
REMARK    1  A    between atoms: C5_5  and  N1_7 
REMARK    2  A    between atoms: C10_13  and  O1_14 
REMARK    3  A    between atoms: O1_14  and  C11_15 
ROOT
HETATM    1  C1  UNL     1      18.294  -1.265  53.432  1.00  0.00     0.017 C 
HETATM    2  C2  UNL     1      19.500  -1.070  53.524  1.00  0.00    -0.082 C 
HETATM    3  C3  UNL     1      20.909  -0.817  53.636  1.00  0.00    -0.005 A 
HETATM    4  C4  UNL     1      21.925  -1.476  53.245  1.00  0.00     0.016 A 
HETATM    5  C5  UNL     1      22.883  -0.463  53.794  1.00  0.00     0.053 A 
HETATM    6  C6  UNL     1      23.666  -1.018  54.976  1.00  0.00     0.039 C 
HETATM    7  C18 UNL     1      21.697   0.261  54.211  1.00  0.00     0.078 A 
ENDROOT
BRANCH   5   8
HETATM    8  N1  UNL     1      23.693  -0.027  52.669  1.00  0.00    -0.202 NA
HETATM    9  N2  UNL     1      25.041  -0.292  53.100  1.00  0.00    -0.311 N 
HETATM   10  C7  UNL     1      25.600   0.636  54.054  1.00  0.00     0.218 C 
HETATM   11  H6  UNL     1      25.683  -1.086  52.818  1.00  0.00     0.181 HD
HETATM   12  N3  UNL     1      25.460   1.894  53.653  1.00  0.00    -0.245 NA
HETATM   13  C8  UNL     1      24.804   2.106  52.378  1.00  0.00     0.062 A 
HETATM   14  C9  UNL     1      25.417   2.979  51.561  1.00  0.00     0.069 A 
HETATM   15  C17 UNL     1      23.542   1.308  52.249  1.00  0.00     0.170 A 
HETATM   16  C10 UNL     1      24.757   3.178  50.280  1.00  0.00     0.104 A 
HETATM   17  C13 UNL     1      23.647   2.538  49.970  1.00  0.00     0.115 A 
HETATM   18  O2  UNL     1      23.160   2.854  48.698  1.00  0.00    -0.322 OA
HETATM   19  C16 UNL     1      23.016   1.585  50.903  1.00  0.00     0.026 A 
HETATM   20  C14 UNL     1      22.249   1.935  48.071  1.00  0.00     0.350 C 
HETATM   21  O3  UNL     1      21.413   1.367  49.090  1.00  0.00    -0.337 OA
HETATM   22  C15 UNL     1      21.930   1.085  50.346  1.00  0.00     0.149 C 
BRANCH  16  23
HETATM   23  O1  UNL     1      25.381   4.081  49.430  1.00  0.00    -0.349 OA
BRANCH  23  24
HETATM   24  C11 UNL     1      26.787   4.017  49.317  1.00  0.00     0.171 C 
HETATM   25  C12 UNL     1      27.328   5.258  48.631  1.00  0.00     0.034 C 
ENDBRANCH  23  24
ENDBRANCH  16  23
ENDBRANCH   5   8
TORSDOF 3
ENDMDL
MODEL 3
REMARK VINA RESULT:      -7.5      3.062      6.889
REMARK  3 active torsions:
REMARK  status: ('A' for Active; 'I' for Inactive)
REMARK    1  A    between atoms: C5_5  and  N1_7 
REMARK    2  A    between atoms: C10_13  and  O1_14 
REMARK    3  A    between atoms: O1_14  and  C11_15 
ROOT
HETATM    1  C1  UNL     1      29.785  -0.377  53.548  1.00  0.00     0.017 C 
HETATM    2  C2  UNL     1      28.571  -0.215  53.520  1.00  0.00    -0.082 C 
HETATM    3  C3  UNL     1      27.148  -0.035  53.465  1.00  0.00    -0.005 A 
HETATM    4  C4  UNL     1      26.357   0.702  54.138  1.00  0.00     0.016 A 
HETATM    5  C5  UNL     1      25.153   0.217  53.388  1.00  0.00     0.053 A 
HETATM    6  C6  UNL     1      24.243  -0.621  54.275  1.00  0.00     0.039 C 
HETATM    7  C18 UNL     1      26.091  -0.596  52.638  1.00  0.00     0.078 A 
ENDROOT
BRANCH   5   8
HETATM    8  N1  UNL     1      24.535   1.401  52.816  1.00  0.00    -0.202 NA
HETATM    9  N2  UNL     1      23.234   1.436  53.433  1.00  0.00    -0.311 N 
HETATM   10  C7  UNL     1      22.261   0.498  52.924  1.00  0.00     0.218 C 
HETATM   11  H6  UNL     1      22.892   2.053  54.223  1.00  0.00     0.181 HD
HETATM   12  N3  UNL     1      22.168   0.559  51.601  1.00  0.00    -0.245 NA
HETATM   13  C8  UNL     1      23.020   1.520  50.928  1.00  0.00     0.062 A 
HETATM   14  C9  UNL     1      22.409   2.265  49.993  1.00  0.00     0.069 A 
HETATM   15  C17 UNL     1      24.437   1.459  51.413  1.00  0.00     0.170 A 
HETATM   16  C10 UNL     1      23.269   3.233  49.329  1.00  0.00     0.104 A 
HETATM   17  C13 UNL     1      24.544   3.350  49.643  1.00  0.00     0.115 A 
HETATM   18  O2  UNL     1      25.211   4.332  48.904  1.00  0.00    -0.322 OA
HETATM   19  C16 UNL     1      25.167   2.509  50.682  1.00  0.00     0.026 A 
HETATM   20  C14 UNL     1      26.439   4.863  49.429  1.00  0.00     0.350 C 
HETATM   21  O3  UNL     1      27.138   3.799  50.092  1.00  0.00    -0.337 OA
HETATM   22  C15 UNL     1      26.440   2.833  50.800  1.00  0.00     0.149 C 
BRANCH  16  23
HETATM   23  O1  UNL     1      22.647   4.005  48.358  1.00  0.00    -0.349 OA
BRANCH  23  24
HETATM   24  C11 UNL     1      21.947   3.336  47.331  1.00  0.00     0.171 C 
HETATM   25  C12 UNL     1      21.957   4.152  46.052  1.00  0.00     0.034 C 
ENDBRANCH  23  24
ENDBRANCH  16  23
ENDBRANCH   5   8
TORSDOF 3
ENDMDL
MODEL 4
REMARK VINA RESULT:      -7.4      2.462      3.977
REMARK  3 active torsions:
REMARK  status: ('A' for Active; 'I' for Inactive)
REMARK    1  A    between atoms: C5_5  and  N1_7 
REMARK    2  A    between atoms: C10_13  and  O1_14 
REMARK    3  A    between atoms: O1_14  and  C11_15 
ROOT
HETATM    1  C1  UNL     1      19.594   4.215  50.637  1.00  0.00     0.017 C 
HETATM    2  C2  UNL     1      19.913   3.175  51.202  1.00  0.00    -0.082 C 
HETATM    3  C3  UNL     1      20.296   1.970  51.881  1.00  0.00    -0.005 A 
HETATM    4  C4  UNL     1      20.483   0.781  51.466  1.00  0.00     0.016 A 
HETATM    5  C5  UNL     1      20.832   0.281  52.835  1.00  0.00     0.053 A 
HETATM    6  C6  UNL     1      19.766  -0.663  53.374  1.00  0.00     0.039 C 
HETATM    7  C18 UNL     1      20.621   1.651  53.263  1.00  0.00     0.078 A 
ENDROOT
BRANCH   5   8
HETATM    8  N1  UNL     1      22.163  -0.292  52.724  1.00  0.00    -0.202 NA
HETATM    9  N2  UNL     1      21.977  -1.661  53.130  1.00  0.00    -0.311 N 
HETATM   10  C7  UNL     1      21.833  -1.892  54.548  1.00  0.00     0.218 C 
HETATM   11  H6  UNL     1      21.921  -2.530  52.526  1.00  0.00     0.181 HD
HETATM   12  N3  UNL     1      22.807  -1.313  55.239  1.00  0.00    -0.245 NA
HETATM   13  C8  UNL     1      23.806  -0.585  54.481  1.00  0.00     0.062 A 
HETATM   14  C9  UNL     1      25.078  -0.831  54.832  1.00  0.00     0.069 A 
HETATM   15  C17 UNL     1      23.191   0.325  53.461  1.00  0.00     0.170 A 
HETATM   16  C10 UNL     1      26.074  -0.105  54.059  1.00  0.00     0.104 A 
HETATM   17  C13 UNL     1      25.727   0.723  53.094  1.00  0.00     0.115 A 
HETATM   18  O2  UNL     1      26.816   1.329  52.462  1.00  0.00    -0.322 OA
HETATM   19  C16 UNL     1      24.313   0.956  52.745  1.00  0.00     0.026 A 
HETATM   20  C14 UNL     1      26.621   1.883  51.150  1.00  0.00     0.350 C 
HETATM   21  O3  UNL     1      25.298   2.438  51.092  1.00  0.00    -0.337 OA
HETATM   22  C15 UNL     1      24.246   1.817  51.748  1.00  0.00     0.149 C 
BRANCH  16  23
HETATM   23  O1  UNL     1      27.392  -0.350  54.418  1.00  0.00    -0.349 OA
BRANCH  23  24
HETATM   24  C11 UNL     1      28.171  -1.155  53.559  1.00  0.00     0.171 C 
HETATM   25  C12 UNL     1      29.606  -0.664  53.514  1.00  0.00     0.034 C 
ENDBRANCH  23  24
ENDBRANCH  16  23
ENDBRANCH   5   8
TORSDOF 3
ENDMDL
MODEL 5
REMARK VINA RESULT:      -7.4      1.908      6.151
REMARK  3 active torsions:
REMARK  status: ('A' for Active; 'I' for Inactive)
REMARK    1  A    between atoms: C5_5  and  N1_7 
REMARK    2  A    between atoms: C10_13  and  O1_14 
REMARK    3  A    between atoms: O1_14  and  C11_15 
ROOT
HETATM    1  C1  UNL     1      29.704  -1.662  53.462  1.00  0.00     0.017 C 
HETATM    2  C2  UNL     1      28.723  -0.927  53.440  1.00  0.00    -0.082 C 
HETATM    3  C3  UNL     1      27.565  -0.079  53.432  1.00  0.00    -0.005 A 
HETATM    4  C4  UNL     1      27.078   0.689  52.541  1.00  0.00     0.016 A 
HETATM    5  C5  UNL     1      25.942   1.110  53.422  1.00  0.00     0.053 A 
HETATM    6  C6  UNL     1      26.063   2.571  53.831  1.00  0.00     0.039 C 
HETATM    7  C18 UNL     1      26.523   0.214  54.404  1.00  0.00     0.078 A 
ENDROOT
BRANCH   5   8
HETATM    8  N1  UNL     1      24.728   0.772  52.698  1.00  0.00    -0.202 NA
HETATM    9  N2  UNL     1      24.941   1.345  51.394  1.00  0.00    -0.311 N 
HETATM   10  C7  UNL     1      24.782   2.776  51.293  1.00  0.00     0.218 C 
HETATM   11  H6  UNL     1      25.211   0.859  50.492  1.00  0.00     0.181 HD
HETATM   12  N3  UNL     1      23.629   3.179  51.813  1.00  0.00    -0.245 NA
HETATM   13  C8  UNL     1      22.765   2.153  52.364  1.00  0.00     0.062 A 
HETATM   14  C9  UNL     1      21.474   2.244  52.006  1.00  0.00     0.069 A 
HETATM   15  C17 UNL     1      23.509   1.203  53.253  1.00  0.00     0.170 A 
HETATM   16  C10 UNL     1      20.616   1.205  52.555  1.00  0.00     0.104 A 
HETATM   17  C13 UNL     1      21.096   0.259  53.338  1.00  0.00     0.115 A 
HETATM   18  O2  UNL     1      20.126  -0.652  53.767  1.00  0.00    -0.322 OA
HETATM   19  C16 UNL     1      22.525   0.201  53.698  1.00  0.00     0.026 A 
HETATM   20  C14 UNL     1      20.561  -1.940  54.235  1.00  0.00     0.350 C 
HETATM   21  O3  UNL     1      21.807  -1.767  54.926  1.00  0.00    -0.337 OA
HETATM   22  C15 UNL     1      22.736  -0.839  54.480  1.00  0.00     0.149 C 
BRANCH  16  23
HETATM   23  O1  UNL     1      19.279   1.293  52.194  1.00  0.00    -0.349 OA
BRANCH  23  24
HETATM   24  C11 UNL     1      18.921   0.898  50.887  1.00  0.00     0.171 C 
HETATM   25  C12 UNL     1      17.798  -0.122  50.920  1.00  0.00     0.034 C 
ENDBRANCH  23  24
ENDBRANCH  16  23
ENDBRANCH   5   8
TORSDOF 3
ENDMDL
MODEL 6
REMARK VINA RESULT:      -6.9      2.556      4.173
REMARK  3 active torsions:
REMARK  status: ('A' for Active; 'I' for Inactive)
REMARK    1  A    between atoms: C5_5  and  N1_7 
REMARK    2  A    between atoms: C10_13  and  O1_14 
REMARK    3  A    between atoms: O1_14  and  C11_15 
ROOT
HETATM    1  C1  UNL     1      19.838   6.314  49.641  1.00  0.00     0.017 C 
HETATM    2  C2  UNL     1      20.081   5.203  50.099  1.00  0.00    -0.082 C 
HETATM    3  C3  UNL     1      20.376   3.913  50.655  1.00  0.00    -0.005 A 
HETATM    4  C4  UNL     1      20.440   2.755  50.130  1.00  0.00     0.016 A 
HETATM    5  C5  UNL     1      20.789   2.105  51.434  1.00  0.00     0.053 A 
HETATM    6  C6  UNL     1      19.660   1.212  51.932  1.00  0.00     0.039 C 
HETATM    7  C18 UNL     1      20.716   3.443  51.988  1.00  0.00     0.078 A 
ENDROOT
BRANCH   5   8
HETATM    8  N1  UNL     1      22.057   1.430  51.219  1.00  0.00    -0.202 NA
HETATM    9  N2  UNL     1      21.776   0.060  51.563  1.00  0.00    -0.311 N 
HETATM   10  C7  UNL     1      21.687  -0.237  52.973  1.00  0.00     0.218 C 
HETATM   11  H6  UNL     1      21.614  -0.765  50.919  1.00  0.00     0.181 HD
HETATM   12  N3  UNL     1      22.741   0.220  53.637  1.00  0.00    -0.245 NA
HETATM   13  C8  UNL     1      23.758   0.904  52.862  1.00  0.00     0.062 A 
HETATM   14  C9  UNL     1      25.021   0.534  53.128  1.00  0.00     0.069 A 
HETATM   15  C17 UNL     1      23.172   1.918  51.927  1.00  0.00     0.170 A 
HETATM   16  C10 UNL     1      26.034   1.218  52.339  1.00  0.00     0.104 A 
HETATM   17  C13 UNL     1      25.709   2.124  51.439  1.00  0.00     0.115 A 
HETATM   18  O2  UNL     1      26.813   2.672  50.778  1.00  0.00    -0.322 OA
HETATM   19  C16 UNL     1      24.304   2.493  51.182  1.00  0.00     0.026 A 
HETATM   20  C14 UNL     1      26.598   3.313  49.509  1.00  0.00     0.350 C 
HETATM   21  O3  UNL     1      25.326   3.978  49.554  1.00  0.00    -0.337 OA
HETATM   22  C15 UNL     1      24.260   3.411  50.237  1.00  0.00     0.149 C 
BRANCH  16  23
HETATM   23  O1  UNL     1      27.343   0.844  52.609  1.00  0.00    -0.349 OA
BRANCH  23  24
HETATM   24  C11 UNL     1      27.590  -0.507  52.935  1.00  0.00     0.171 C 
HETATM   25  C12 UNL     1      28.883  -0.645  53.717  1.00  0.00     0.034 C 
ENDBRANCH  23  24
ENDBRANCH  16  23
ENDBRANCH   5   8
TORSDOF 3
ENDMDL
MODEL 7
REMARK VINA RESULT:      -6.9      3.653      5.563
REMARK  3 active torsions:
REMARK  status: ('A' for Active; 'I' for Inactive)
REMARK    1  A    between atoms: C5_5  and  N1_7 
REMARK    2  A    between atoms: C10_13  and  O1_14 
REMARK    3  A    between atoms: O1_14  and  C11_15 
ROOT
HETATM    1  C1  UNL     1      17.896  -0.387  52.320  1.00  0.00     0.017 C 
HETATM    2  C2  UNL     1      19.102  -0.218  52.458  1.00  0.00    -0.082 C 
HETATM    3  C3  UNL     1      20.511   0.002  52.627  1.00  0.00    -0.005 A 
HETATM    4  C4  UNL     1      21.528  -0.590  52.144  1.00  0.00     0.016 A 
HETATM    5  C5  UNL     1      22.484   0.310  52.866  1.00  0.00     0.053 A 
HETATM    6  C6  UNL     1      23.249  -0.440  53.948  1.00  0.00     0.039 C 
HETATM    7  C18 UNL     1      21.297   0.963  53.384  1.00  0.00     0.078 A 
ENDROOT
BRANCH   5   8
HETATM    8  N1  UNL     1      23.311   0.921  51.839  1.00  0.00    -0.202 NA
HETATM    9  N2  UNL     1      24.640   0.856  52.391  1.00  0.00    -0.311 N 
HETATM   10  C7  UNL     1      24.949   1.818  53.423  1.00  0.00     0.218 C 
HETATM   11  H6  UNL     1      25.426   0.189  52.149  1.00  0.00     0.181 HD
HETATM   12  N3  UNL     1      24.643   3.053  53.048  1.00  0.00    -0.245 NA
HETATM   13  C8  UNL     1      24.080   3.216  51.722  1.00  0.00     0.062 A 
HETATM   14  C9  UNL     1      24.613   4.212  50.996  1.00  0.00     0.069 A 
HETATM   15  C17 UNL     1      22.983   2.233  51.447  1.00  0.00     0.170 A 
HETATM   16  C10 UNL     1      24.049   4.362  49.663  1.00  0.00     0.104 A 
HETATM   17  C13 UNL     1      23.092   3.567  49.227  1.00  0.00     0.115 A 
HETATM   18  O2  UNL     1      22.678   3.858  47.924  1.00  0.00    -0.322 OA
HETATM   19  C16 UNL     1      22.543   2.484  50.064  1.00  0.00     0.026 A 
HETATM   20  C14 UNL     1      21.991   2.835  47.183  1.00  0.00     0.350 C 
HETATM   21  O3  UNL     1      21.171   2.094  48.099  1.00  0.00    -0.337 OA
HETATM   22  C15 UNL     1      21.609   1.842  49.390  1.00  0.00     0.149 C 
BRANCH  16  23
HETATM   23  O1  UNL     1      24.592   5.390  48.906  1.00  0.00    -0.349 OA
BRANCH  23  24
HETATM   24  C11 UNL     1      25.608   6.176  49.492  1.00  0.00     0.171 C 
HETATM   25  C12 UNL     1      26.827   6.240  48.590  1.00  0.00     0.034 C 
ENDBRANCH  23  24
ENDBRANCH  16  23
ENDBRANCH   5   8
TORSDOF 3
ENDMDL
MODEL 8
REMARK VINA RESULT:      -6.8      3.986      6.208
REMARK  3 active torsions:
REMARK  status: ('A' for Active; 'I' for Inactive)
REMARK    1  A    between atoms: C5_5  and  N1_7 
REMARK    2  A    between atoms: C10_13  and  O1_14 
REMARK    3  A    between atoms: O1_14  and  C11_15 
ROOT
HETATM    1  C1  UNL     1      18.110  -1.310  53.432  1.00  0.00     0.017 C 
HETATM    2  C2  UNL     1      19.233  -0.850  53.258  1.00  0.00    -0.082 C 
HETATM    3  C3  UNL     1      20.543  -0.295  53.071  1.00  0.00    -0.005 A 
HETATM    4  C4  UNL     1      21.378  -0.388  52.115  1.00  0.00     0.016 A 
HETATM    5  C5  UNL     1      22.380   0.483  52.810  1.00  0.00     0.053 A 
HETATM    6  C6  UNL     1      23.611  -0.307  53.230  1.00  0.00     0.039 C 
HETATM    7  C18 UNL     1      21.394   0.572  53.871  1.00  0.00     0.078 A 
ENDROOT
BRANCH   5   8
HETATM    8  N1  UNL     1      22.639   1.593  51.908  1.00  0.00    -0.202 NA
HETATM    9  N2  UNL     1      24.075   1.607  51.792  1.00  0.00    -0.311 N 
HETATM   10  C7  UNL     1      24.800   2.154  52.914  1.00  0.00     0.218 C 
HETATM   11  H6  UNL     1      24.679   1.259  50.994  1.00  0.00     0.181 HD
HETATM   12  N3  UNL     1      24.333   3.347  53.264  1.00  0.00    -0.245 NA
HETATM   13  C8  UNL     1      23.227   3.871  52.487  1.00  0.00     0.062 A 
HETATM   14  C9  UNL     1      23.354   5.154  52.111  1.00  0.00     0.069 A 
HETATM   15  C17 UNL     1      22.144   2.855  52.285  1.00  0.00     0.170 A 
HETATM   16  C10 UNL     1      22.244   5.669  51.323  1.00  0.00     0.104 A 
HETATM   17  C13 UNL     1      21.209   4.913  51.015  1.00  0.00     0.115 A 
HETATM   18  O2  UNL     1      20.243   5.576  50.253  1.00  0.00    -0.322 OA
HETATM   19  C16 UNL     1      21.120   3.507  51.450  1.00  0.00     0.026 A 
HETATM   20  C14 UNL     1      19.315   4.785  49.491  1.00  0.00     0.350 C 
HETATM   21  O3  UNL     1      19.013   3.601  50.245  1.00  0.00    -0.337 OA
HETATM   22  C15 UNL     1      19.995   2.983  51.005  1.00  0.00     0.149 C 
BRANCH  16  23
HETATM   23  O1  UNL     1      22.364   6.995  50.933  1.00  0.00    -0.349 OA
BRANCH  23  24
HETATM   24  C11 UNL     1      23.260   7.296  49.885  1.00  0.00     0.171 C 
HETATM   25  C12 UNL     1      24.316   8.284  50.345  1.00  0.00     0.034 C 
ENDBRANCH  23  24
ENDBRANCH  16  23
ENDBRANCH   5   8
TORSDOF 3
ENDMDL
MODEL 9
REMARK VINA RESULT:      -6.8      2.468      6.267
REMARK  3 active torsions:
REMARK  status: ('A' for Active; 'I' for Inactive)
REMARK    1  A    between atoms: C5_5  and  N1_7 
REMARK    2  A    between atoms: C10_13  and  O1_14 
REMARK    3  A    between atoms: O1_14  and  C11_15 
ROOT
HETATM    1  C1  UNL     1      26.630  -0.120  55.326  1.00  0.00     0.017 C 
HETATM    2  C2  UNL     1      26.280   0.505  54.332  1.00  0.00    -0.082 C 
HETATM    3  C3  UNL     1      25.863   1.255  53.181  1.00  0.00    -0.005 A 
HETATM    4  C4  UNL     1      25.568   0.901  51.995  1.00  0.00     0.016 A 
HETATM    5  C5  UNL     1      25.279   2.308  51.569  1.00  0.00     0.053 A 
HETATM    6  C6  UNL     1      26.312   2.814  50.572  1.00  0.00     0.039 C 
HETATM    7  C18 UNL     1      25.611   2.667  52.935  1.00  0.00     0.078 A 
ENDROOT
BRANCH   5   8
HETATM    8  N1  UNL     1      23.908   2.307  51.087  1.00  0.00    -0.202 NA
HETATM    9  N2  UNL     1      23.953   3.169  49.935  1.00  0.00    -0.311 N 
HETATM   10  C7  UNL     1      24.015   4.587  50.202  1.00  0.00     0.218 C 
HETATM   11  H6  UNL     1      23.956   2.905  48.909  1.00  0.00     0.181 HD
HETATM   12  N3  UNL     1      23.069   4.967  51.052  1.00  0.00    -0.245 NA
HETATM   13  C8  UNL     1      22.173   3.936  51.539  1.00  0.00     0.062 A 
HETATM   14  C9  UNL     1      20.870   4.260  51.519  1.00  0.00     0.069 A 
HETATM   15  C17 UNL     1      22.909   2.712  51.992  1.00  0.00     0.170 A 
HETATM   16  C10 UNL     1      19.977   3.217  52.000  1.00  0.00     0.104 A 
HETATM   17  C13 UNL     1      20.438   2.053  52.414  1.00  0.00     0.115 A 
HETATM   18  O2  UNL     1      19.435   1.176  52.837  1.00  0.00    -0.322 OA
HETATM   19  C16 UNL     1      21.881   1.746  52.412  1.00  0.00     0.026 A 
HETATM   20  C14 UNL     1      19.735  -0.229  52.886  1.00  0.00     0.350 C 
HETATM   21  O3  UNL     1      21.103  -0.380  53.292  1.00  0.00    -0.337 OA
HETATM   22  C15 UNL     1      22.067   0.522  52.866  1.00  0.00     0.149 C 
BRANCH  16  23
HETATM   23  O1  UNL     1      18.629   3.543  51.987  1.00  0.00    -0.349 OA
BRANCH  23  24
HETATM   24  C11 UNL     1      18.103   4.131  50.816  1.00  0.00     0.171 C 
HETATM   25  C12 UNL     1      17.668   3.066  49.827  1.00  0.00     0.034 C 
ENDBRANCH  23  24
ENDBRANCH  16  23
ENDBRANCH   5   8
TORSDOF 3
ENDMDL
