MODEL 1
REMARK VINA RESULT:      -6.9      0.000      0.000
REMARK  4 active torsions:
REMARK  status: ('A' for Active; 'I' for Inactive)
REMARK    1  A    between atoms: N1_1  and  C1_2 
REMARK    2  A    between atoms: C3_5  and  C4_6 
REMARK    3  A    between atoms: C12_17  and  C13_18 
REMARK    4  A    between atoms: C14_19  and  C15_20 
ROOT
HETATM    1  C1  UNL     1      35.072   5.494  48.873  1.00  0.00     0.719 A 
HETATM    2  N2  UNL     1      35.032   4.594  47.913  1.00  0.00    -0.075 NA
HETATM    3  C2  UNL     1      33.835   4.717  47.159  1.00  0.00     0.199 A 
HETATM    4  C3  UNL     1      32.862   3.619  47.271  1.00  0.00    -0.024 C 
HETATM    5  C5  UNL     1      31.572   3.998  47.178  1.00  0.00     0.001 C 
HETATM    6  C6  UNL     1      31.024   5.270  47.714  1.00  0.00     0.157 C 
HETATM    7  N3  UNL     1      31.931   6.361  47.480  1.00  0.00    -0.339 N 
HETATM    8  C7  UNL     1      31.706   7.643  46.983  1.00  0.00     0.093 C 
HETATM    9  C8  UNL     1      32.094   8.578  46.154  1.00  0.00     0.019 C 
HETATM   10  C9  UNL     1      33.174   8.661  45.201  1.00  0.00     0.018 C 
HETATM   11  C10 UNL     1      34.100   7.792  44.895  1.00  0.00     0.088 C 
HETATM   12  N4  UNL     1      34.387   6.497  45.358  1.00  0.00    -0.366 N 
HETATM   13  C11 UNL     1      34.034   5.180  45.768  1.00  0.00     0.052 C 
HETATM   14  C12 UNL     1      33.878   4.307  44.768  1.00  0.00     0.028 C 
HETATM   15  C16 UNL     1      33.188   5.868  47.883  1.00  0.00     0.167 A 
HETATM   16  N5  UNL     1      33.863   6.306  48.832  1.00  0.00    -0.046 NA
HETATM   17  H12 UNL     1      35.393   6.207  45.555  1.00  0.00     0.165 HD
ENDROOT
BRANCH  14  18
HETATM   18  C13 UNL     1      34.043   4.629  43.353  1.00  0.00    -0.001 C 
HETATM   19  C14 UNL     1      33.123   4.748  42.424  1.00  0.00    -0.016 C 
BRANCH  19  20
HETATM   20  C15 UNL     1      33.451   5.083  41.014  1.00  0.00     0.112 C 
HETATM   21 BR1  UNL     1      34.097   3.459  40.155  1.00  0.00    -0.092 Br
ENDBRANCH  19  20
ENDBRANCH  14  18
BRANCH   4  22
HETATM   22  C4  UNL     1      33.203   2.182  47.470  1.00  0.00     0.152 C 
HETATM   23 CL1  UNL     1      32.078   1.100  46.669  1.00  0.00    -0.126 Cl
ENDBRANCH   4  22
BRANCH   1  24
HETATM   24  N1  UNL     1      36.123   5.683  49.842  1.00  0.00    -0.231 N 
HETATM   25  H1  UNL     1      36.612   6.556  50.157  1.00  0.00     0.174 HD
HETATM   26  H2  UNL     1      36.455   4.804  50.311  1.00  0.00     0.174 HD
ENDBRANCH   1  24
TORSDOF 4
ENDMDL
MODEL 2
REMARK VINA RESULT:      -6.8     10.837     13.112
REMARK  4 active torsions:
REMARK  status: ('A' for Active; 'I' for Inactive)
REMARK    1  A    between atoms: N1_1  and  C1_2 
REMARK    2  A    between atoms: C3_5  and  C4_6 
REMARK    3  A    between atoms: C12_17  and  C13_18 
REMARK    4  A    between atoms: C14_19  and  C15_20 
ROOT
HETATM    1  C1  UNL     1      22.485   2.213  48.982  1.00  0.00     0.719 A 
HETATM    2  N2  UNL     1      23.587   2.635  49.565  1.00  0.00    -0.075 NA
HETATM    3  C2  UNL     1      23.336   2.985  50.919  1.00  0.00     0.199 A 
HETATM    4  C3  UNL     1      23.438   4.411  51.268  1.00  0.00    -0.024 C 
HETATM    5  C5  UNL     1      22.590   4.816  52.233  1.00  0.00     0.001 C 
HETATM    6  C6  UNL     1      21.205   4.309  52.409  1.00  0.00     0.157 C 
HETATM    7  N3  UNL     1      21.145   2.888  52.192  1.00  0.00    -0.339 N 
HETATM    8  C7  UNL     1      20.536   1.878  52.932  1.00  0.00     0.093 C 
HETATM    9  C8  UNL     1      20.654   0.689  53.465  1.00  0.00     0.019 C 
HETATM   10  C9  UNL     1      21.731  -0.271  53.496  1.00  0.00     0.018 C 
HETATM   11  C10 UNL     1      22.928  -0.216  52.976  1.00  0.00     0.088 C 
HETATM   12  N4  UNL     1      23.598   0.760  52.219  1.00  0.00    -0.366 N 
HETATM   13  C11 UNL     1      23.981   2.095  51.909  1.00  0.00     0.052 C 
HETATM   14  C12 UNL     1      25.029   2.551  52.601  1.00  0.00     0.028 C 
HETATM   15  C16 UNL     1      21.863   2.684  50.997  1.00  0.00     0.167 A 
HETATM   16  N5  UNL     1      21.382   2.255  49.932  1.00  0.00    -0.046 NA
HETATM   17  H12 UNL     1      24.183   0.477  51.374  1.00  0.00     0.165 HD
ENDROOT
BRANCH  14  18
HETATM   18  C13 UNL     1      25.757   1.780  53.607  1.00  0.00    -0.001 C 
HETATM   19  C14 UNL     1      26.912   1.167  53.494  1.00  0.00    -0.016 C 
BRANCH  19  20
HETATM   20  C15 UNL     1      27.529   0.416  54.618  1.00  0.00     0.112 C 
HETATM   21 BR1  UNL     1      29.147  -0.434  53.945  1.00  0.00    -0.092 Br
ENDBRANCH  19  20
ENDBRANCH  14  18
BRANCH   4  22
HETATM   22  C4  UNL     1      24.380   5.385  50.647  1.00  0.00     0.152 C 
HETATM   23 CL1  UNL     1      24.100   7.033  51.180  1.00  0.00    -0.126 Cl
ENDBRANCH   4  22
BRANCH   1  24
HETATM   24  N1  UNL     1      22.340   1.770  47.617  1.00  0.00    -0.231 N 
HETATM   25  H1  UNL     1      21.876   2.229  46.796  1.00  0.00     0.174 HD
HETATM   26  H2  UNL     1      22.770   0.834  47.408  1.00  0.00     0.174 HD
ENDBRANCH   1  24
TORSDOF 4
ENDMDL
MODEL 3
REMARK VINA RESULT:      -6.7      9.895     12.502
REMARK  4 active torsions:
REMARK  status: ('A' for Active; 'I' for Inactive)
REMARK    1  A    between atoms: N1_1  and  C1_2 
REMARK    2  A    between atoms: C3_5  and  C4_6 
REMARK    3  A    between atoms: C12_17  and  C13_18 
REMARK    4  A    between atoms: C14_19  and  C15_20 
ROOT
HETATM    1  C1  UNL     1      22.227   3.371  48.177  1.00  0.00     0.719 A 
HETATM    2  N2  UNL     1      23.453   3.226  48.637  1.00  0.00    -0.075 NA
HETATM    3  C2  UNL     1      23.496   3.470  50.035  1.00  0.00     0.199 A 
HETATM    4  C3  UNL     1      24.221   4.671  50.479  1.00  0.00    -0.024 C 
HETATM    5  C5  UNL     1      23.713   5.259  51.580  1.00  0.00     0.001 C 
HETATM    6  C6  UNL     1      22.267   5.345  51.902  1.00  0.00     0.157 C 
HETATM    7  N3  UNL     1      21.594   4.114  51.583  1.00  0.00    -0.339 N 
HETATM    8  C7  UNL     1      20.685   3.355  52.317  1.00  0.00     0.093 C 
HETATM    9  C8  UNL     1      20.339   2.164  52.732  1.00  0.00     0.019 C 
HETATM   10  C9  UNL     1      20.908   0.852  52.539  1.00  0.00     0.018 C 
HETATM   11  C10 UNL     1      21.964   0.479  51.868  1.00  0.00     0.088 C 
HETATM   12  N4  UNL     1      22.912   1.184  51.106  1.00  0.00    -0.366 N 
HETATM   13  C11 UNL     1      23.792   2.274  50.854  1.00  0.00     0.052 C 
HETATM   14  C12 UNL     1      24.993   2.168  51.431  1.00  0.00     0.028 C 
HETATM   15  C16 UNL     1      22.047   3.790  50.289  1.00  0.00     0.167 A 
HETATM   16  N5  UNL     1      21.337   3.737  49.269  1.00  0.00    -0.046 NA
HETATM   17  H12 UNL     1      23.244   0.799  50.170  1.00  0.00     0.165 HD
ENDROOT
BRANCH  14  18
HETATM   18  C13 UNL     1      25.416   1.044  52.264  1.00  0.00    -0.001 C 
HETATM   19  C14 UNL     1      26.404   0.203  52.068  1.00  0.00    -0.016 C 
BRANCH  19  20
HETATM   20  C15 UNL     1      26.712  -0.900  53.015  1.00  0.00     0.112 C 
HETATM   21 BR1  UNL     1      28.621  -0.839  53.396  1.00  0.00    -0.092 Br
ENDBRANCH  19  20
ENDBRANCH  14  18
BRANCH   4  22
HETATM   22  C4  UNL     1      25.426   5.246  49.816  1.00  0.00     0.152 C 
HETATM   23 CL1  UNL     1      26.626   4.030  49.417  1.00  0.00    -0.126 Cl
ENDBRANCH   4  22
BRANCH   1  24
HETATM   24  N1  UNL     1      21.787   3.207  46.814  1.00  0.00    -0.231 N 
HETATM   25  H1  UNL     1      20.941   3.581  46.320  1.00  0.00     0.174 HD
HETATM   26  H2  UNL     1      22.415   2.614  46.215  1.00  0.00     0.174 HD
ENDBRANCH   1  24
TORSDOF 4
ENDMDL
MODEL 4
REMARK VINA RESULT:      -6.4     10.532     13.114
REMARK  4 active torsions:
REMARK  status: ('A' for Active; 'I' for Inactive)
REMARK    1  A    between atoms: N1_1  and  C1_2 
REMARK    2  A    between atoms: C3_5  and  C4_6 
REMARK    3  A    between atoms: C12_17  and  C13_18 
REMARK    4  A    between atoms: C14_19  and  C15_20 
ROOT
HETATM    1  C1  UNL     1      22.098   5.613  51.168  1.00  0.00     0.719 A 
HETATM    2  N2  UNL     1      21.438   4.545  51.566  1.00  0.00    -0.075 NA
HETATM    3  C2  UNL     1      21.983   3.371  50.981  1.00  0.00     0.199 A 
HETATM    4  C3  UNL     1      21.143   2.664  50.001  1.00  0.00    -0.024 C 
HETATM    5  C5  UNL     1      21.824   2.061  49.008  1.00  0.00     0.001 C 
HETATM    6  C6  UNL     1      23.059   2.598  48.382  1.00  0.00     0.157 C 
HETATM    7  N3  UNL     1      23.932   3.170  49.371  1.00  0.00    -0.339 N 
HETATM    8  C7  UNL     1      25.302   3.023  49.573  1.00  0.00     0.093 C 
HETATM    9  C8  UNL     1      26.263   2.806  50.433  1.00  0.00     0.019 C 
HETATM   10  C9  UNL     1      26.276   2.583  51.858  1.00  0.00     0.018 C 
HETATM   11  C10 UNL     1      25.291   2.537  52.716  1.00  0.00     0.088 C 
HETATM   12  N4  UNL     1      23.900   2.683  52.582  1.00  0.00    -0.366 N 
HETATM   13  C11 UNL     1      22.648   2.463  51.941  1.00  0.00     0.052 C 
HETATM   14  C12 UNL     1      22.049   1.314  52.265  1.00  0.00     0.028 C 
HETATM   15  C16 UNL     1      23.089   3.979  50.160  1.00  0.00     0.167 A 
HETATM   16  N5  UNL     1      23.162   5.217  50.256  1.00  0.00    -0.046 NA
HETATM   17  H12 UNL     1      23.349   3.258  53.291  1.00  0.00     0.165 HD
ENDROOT
BRANCH  14  18
HETATM   18  C13 UNL     1      22.593   0.328  53.196  1.00  0.00    -0.001 C 
HETATM   19  C14 UNL     1      21.991  -0.286  54.188  1.00  0.00    -0.016 C 
BRANCH  19  20
HETATM   20  C15 UNL     1      22.686  -1.272  55.055  1.00  0.00     0.112 C 
HETATM   21 BR1  UNL     1      24.600  -0.951  54.900  1.00  0.00    -0.092 Br
ENDBRANCH  19  20
ENDBRANCH  14  18
BRANCH   4  22
HETATM   22  C4  UNL     1      19.655   2.580  50.042  1.00  0.00     0.152 C 
HETATM   23 CL1  UNL     1      19.072   0.930  50.162  1.00  0.00    -0.126 Cl
ENDBRANCH   4  22
BRANCH   1  24
HETATM   24  N1  UNL     1      21.842   6.981  51.545  1.00  0.00    -0.231 N 
HETATM   25  H1  UNL     1      22.102   7.510  52.412  1.00  0.00     0.174 HD
HETATM   26  H2  UNL     1      21.307   7.542  50.835  1.00  0.00     0.174 HD
ENDBRANCH   1  24
TORSDOF 4
ENDMDL
MODEL 5
REMARK VINA RESULT:      -6.2      3.409      5.381
REMARK  4 active torsions:
REMARK  status: ('A' for Active; 'I' for Inactive)
REMARK    1  A    between atoms: N1_1  and  C1_2 
REMARK    2  A    between atoms: C3_5  and  C4_6 
REMARK    3  A    between atoms: C12_17  and  C13_18 
REMARK    4  A    between atoms: C14_19  and  C15_20 
ROOT
HETATM    1  C1  UNL     1      30.464  10.481  48.833  1.00  0.00     0.719 A 
HETATM    2  N2  UNL     1      30.140   9.252  49.178  1.00  0.00    -0.075 NA
HETATM    3  C2  UNL     1      30.090   8.407  48.038  1.00  0.00     0.199 A 
HETATM    4  C3  UNL     1      28.767   7.897  47.644  1.00  0.00    -0.024 C 
HETATM    5  C5  UNL     1      28.599   7.732  46.318  1.00  0.00     0.001 C 
HETATM    6  C6  UNL     1      29.174   8.620  45.276  1.00  0.00     0.157 C 
HETATM    7  N3  UNL     1      30.518   9.006  45.611  1.00  0.00    -0.339 N 
HETATM    8  C7  UNL     1      31.679   9.027  44.842  1.00  0.00     0.093 C 
HETATM    9  C8  UNL     1      32.949   8.722  44.771  1.00  0.00     0.019 C 
HETATM   10  C9  UNL     1      33.862   8.091  45.693  1.00  0.00     0.018 C 
HETATM   11  C10 UNL     1      33.663   7.637  46.902  1.00  0.00     0.088 C 
HETATM   12  N4  UNL     1      32.530   7.592  47.732  1.00  0.00    -0.366 N 
HETATM   13  C11 UNL     1      31.149   7.374  47.997  1.00  0.00     0.052 C 
HETATM   14  C12 UNL     1      30.817   6.100  48.224  1.00  0.00     0.028 C 
HETATM   15  C16 UNL     1      30.446   9.399  46.962  1.00  0.00     0.167 A 
HETATM   16  N5  UNL     1      30.655  10.548  47.390  1.00  0.00    -0.046 NA
HETATM   17  H12 UNL     1      32.612   7.835  48.766  1.00  0.00     0.165 HD
ENDROOT
BRANCH  14  18
HETATM   18  C13 UNL     1      31.759   4.984  48.214  1.00  0.00    -0.001 C 
HETATM   19  C14 UNL     1      31.914   4.048  47.306  1.00  0.00    -0.016 C 
BRANCH  19  20
HETATM   20  C15 UNL     1      32.925   2.968  47.440  1.00  0.00     0.112 C 
HETATM   21 BR1  UNL     1      34.667   3.811  47.658  1.00  0.00    -0.092 Br
ENDBRANCH  19  20
ENDBRANCH  14  18
BRANCH   4  22
HETATM   22  C4  UNL     1      27.656   7.568  48.582  1.00  0.00     0.152 C 
HETATM   23 CL1  UNL     1      27.252   5.862  48.583  1.00  0.00    -0.126 Cl
ENDBRANCH   4  22
BRANCH   1  24
HETATM   24  N1  UNL     1      30.614  11.618  49.708  1.00  0.00    -0.231 N 
HETATM   25  H1  UNL     1      30.214  12.585  49.645  1.00  0.00     0.174 HD
HETATM   26  H2  UNL     1      31.226  11.452  50.546  1.00  0.00     0.174 HD
ENDBRANCH   1  24
TORSDOF 4
ENDMDL
MODEL 6
REMARK VINA RESULT:      -6.1     10.586     13.212
REMARK  4 active torsions:
REMARK  status: ('A' for Active; 'I' for Inactive)
REMARK    1  A    between atoms: N1_1  and  C1_2 
REMARK    2  A    between atoms: C3_5  and  C4_6 
REMARK    3  A    between atoms: C12_17  and  C13_18 
REMARK    4  A    between atoms: C14_19  and  C15_20 
ROOT
HETATM    1  C1  UNL     1      22.285   3.315  47.761  1.00  0.00     0.719 A 
HETATM    2  N2  UNL     1      23.308   2.943  48.503  1.00  0.00    -0.075 NA
HETATM    3  C2  UNL     1      23.113   3.329  49.856  1.00  0.00     0.199 A 
HETATM    4  C3  UNL     1      24.007   4.372  50.386  1.00  0.00    -0.024 C 
HETATM    5  C5  UNL     1      23.442   5.185  51.300  1.00  0.00     0.001 C 
HETATM    6  C6  UNL     1      22.030   5.641  51.269  1.00  0.00     0.157 C 
HETATM    7  N3  UNL     1      21.152   4.572  50.874  1.00  0.00    -0.339 N 
HETATM    8  C7  UNL     1      19.946   4.135  51.418  1.00  0.00     0.093 C 
HETATM    9  C8  UNL     1      19.230   3.113  51.811  1.00  0.00     0.019 C 
HETATM   10  C9  UNL     1      19.476   1.692  51.834  1.00  0.00     0.018 C 
HETATM   11  C10 UNL     1      20.522   1.008  51.452  1.00  0.00     0.088 C 
HETATM   12  N4  UNL     1      21.756   1.381  50.893  1.00  0.00    -0.366 N 
HETATM   13  C11 UNL     1      22.916   2.200  50.791  1.00  0.00     0.052 C 
HETATM   14  C12 UNL     1      23.900   1.884  51.639  1.00  0.00     0.028 C 
HETATM   15  C16 UNL     1      21.772   4.005  49.744  1.00  0.00     0.167 A 
HETATM   16  N5  UNL     1      21.305   4.002  48.591  1.00  0.00    -0.046 NA
HETATM   17  H12 UNL     1      22.171   0.824  50.086  1.00  0.00     0.165 HD
ENDROOT
BRANCH  14  18
HETATM   18  C13 UNL     1      23.838   0.796  52.612  1.00  0.00    -0.001 C 
HETATM   19  C14 UNL     1      24.776   0.364  53.422  1.00  0.00    -0.016 C 
BRANCH  19  20
HETATM   20  C15 UNL     1      24.560  -0.764  54.363  1.00  0.00     0.112 C 
HETATM   21 BR1  UNL     1      22.638  -0.975  54.604  1.00  0.00    -0.092 Br
ENDBRANCH  19  20
ENDBRANCH  14  18
BRANCH   4  22
HETATM   22  C4  UNL     1      25.430   4.570  49.990  1.00  0.00     0.152 C 
HETATM   23 CL1  UNL     1      26.482   3.297  50.581  1.00  0.00    -0.126 Cl
ENDBRANCH   4  22
BRANCH   1  24
HETATM   24  N1  UNL     1      22.118   3.102  46.345  1.00  0.00    -0.231 N 
HETATM   25  H1  UNL     1      22.528   2.374  45.711  1.00  0.00     0.174 HD
HETATM   26  H2  UNL     1      21.482   3.789  45.867  1.00  0.00     0.174 HD
ENDBRANCH   1  24
TORSDOF 4
ENDMDL
MODEL 7
REMARK VINA RESULT:      -5.8      1.547      1.958
REMARK  4 active torsions:
REMARK  status: ('A' for Active; 'I' for Inactive)
REMARK    1  A    between atoms: N1_1  and  C1_2 
REMARK    2  A    between atoms: C3_5  and  C4_6 
REMARK    3  A    between atoms: C12_17  and  C13_18 
REMARK    4  A    between atoms: C14_19  and  C15_20 
ROOT
HETATM    1  C1  UNL     1      35.151   6.721  48.369  1.00  0.00     0.719 A 
HETATM    2  N2  UNL     1      34.599   5.802  47.603  1.00  0.00    -0.075 NA
HETATM    3  C2  UNL     1      33.492   6.339  46.893  1.00  0.00     0.199 A 
HETATM    4  C3  UNL     1      32.159   5.835  47.258  1.00  0.00    -0.024 C 
HETATM    5  C5  UNL     1      31.166   6.740  47.150  1.00  0.00     0.001 C 
HETATM    6  C6  UNL     1      31.304   8.187  47.452  1.00  0.00     0.157 C 
HETATM    7  N3  UNL     1      32.561   8.696  46.972  1.00  0.00    -0.339 N 
HETATM    8  C7  UNL     1      32.860   9.847  46.246  1.00  0.00     0.093 C 
HETATM    9  C8  UNL     1      33.511  10.364  45.236  1.00  0.00     0.019 C 
HETATM   10  C9  UNL     1      34.387   9.800  44.238  1.00  0.00     0.018 C 
HETATM   11  C10 UNL     1      34.791   8.569  44.066  1.00  0.00     0.088 C 
HETATM   12  N4  UNL     1      34.536   7.373  44.759  1.00  0.00    -0.366 N 
HETATM   13  C11 UNL     1      33.696   6.441  45.431  1.00  0.00     0.052 C 
HETATM   14  C12 UNL     1      33.048   5.593  44.628  1.00  0.00     0.028 C 
HETATM   15  C16 UNL     1      33.513   7.754  47.408  1.00  0.00     0.167 A 
HETATM   16  N5  UNL     1      34.426   7.976  48.223  1.00  0.00    -0.046 NA
HETATM   17  H12 UNL     1      35.329   6.691  44.964  1.00  0.00     0.165 HD
ENDROOT
BRANCH  14  18
HETATM   18  C13 UNL     1      33.157   5.583  43.171  1.00  0.00    -0.001 C 
HETATM   19  C14 UNL     1      33.531   4.603  42.381  1.00  0.00    -0.016 C 
BRANCH  19  20
HETATM   20  C15 UNL     1      33.593   4.748  40.904  1.00  0.00     0.112 C 
HETATM   21 BR1  UNL     1      34.827   6.200  40.503  1.00  0.00    -0.092 Br
ENDBRANCH  19  20
ENDBRANCH  14  18
BRANCH   4  22
HETATM   22  C4  UNL     1      31.857   4.450  47.718  1.00  0.00     0.152 C 
HETATM   23 CL1  UNL     1      32.041   3.257  46.444  1.00  0.00    -0.126 Cl
ENDBRANCH   4  22
BRANCH   1  24
HETATM   24  N1  UNL     1      36.291   6.558  49.235  1.00  0.00    -0.231 N 
HETATM   25  H1  UNL     1      37.208   7.067  49.261  1.00  0.00     0.174 HD
HETATM   26  H2  UNL     1      36.190   5.804  49.961  1.00  0.00     0.174 HD
ENDBRANCH   1  24
TORSDOF 4
ENDMDL
MODEL 8
REMARK VINA RESULT:      -5.8      5.388      7.615
REMARK  4 active torsions:
REMARK  status: ('A' for Active; 'I' for Inactive)
REMARK    1  A    between atoms: N1_1  and  C1_2 
REMARK    2  A    between atoms: C3_5  and  C4_6 
REMARK    3  A    between atoms: C12_17  and  C13_18 
REMARK    4  A    between atoms: C14_19  and  C15_20 
ROOT
HETATM    1  C1  UNL     1      29.525   9.253  44.955  1.00  0.00     0.719 A 
HETATM    2  N2  UNL     1      29.670   8.093  45.562  1.00  0.00    -0.075 NA
HETATM    3  C2  UNL     1      29.397   8.216  46.951  1.00  0.00     0.199 A 
HETATM    4  C3  UNL     1      30.533   8.047  47.870  1.00  0.00    -0.024 C 
HETATM    5  C5  UNL     1      30.470   8.797  48.987  1.00  0.00     0.001 C 
HETATM    6  C6  UNL     1      29.916  10.174  49.051  1.00  0.00     0.157 C 
HETATM    7  N3  UNL     1      28.728  10.290  48.249  1.00  0.00    -0.339 N 
HETATM    8  C7  UNL     1      27.489  10.858  48.532  1.00  0.00     0.093 C 
HETATM    9  C8  UNL     1      26.189  10.725  48.487  1.00  0.00     0.019 C 
HETATM   10  C9  UNL     1      25.324   9.676  48.003  1.00  0.00     0.018 C 
HETATM   11  C10 UNL     1      25.615   8.527  47.453  1.00  0.00     0.088 C 
HETATM   12  N4  UNL     1      26.832   7.900  47.134  1.00  0.00    -0.366 N 
HETATM   13  C11 UNL     1      28.175   7.511  47.397  1.00  0.00     0.052 C 
HETATM   14  C12 UNL     1      28.302   6.395  48.121  1.00  0.00     0.028 C 
HETATM   15  C16 UNL     1      29.070   9.684  47.023  1.00  0.00     0.167 A 
HETATM   16  N5  UNL     1      29.137  10.267  45.926  1.00  0.00    -0.046 NA
HETATM   17  H12 UNL     1      26.950   7.399  46.201  1.00  0.00     0.165 HD
ENDROOT
BRANCH  14  18
HETATM   18  C13 UNL     1      27.183   5.603  48.626  1.00  0.00    -0.001 C 
HETATM   19  C14 UNL     1      27.181   4.360  49.048  1.00  0.00    -0.016 C 
BRANCH  19  20
HETATM   20  C15 UNL     1      25.950   3.685  49.535  1.00  0.00     0.112 C 
HETATM   21 BR1  UNL     1      24.457   4.906  49.261  1.00  0.00    -0.092 Br
ENDBRANCH  19  20
ENDBRANCH  14  18
BRANCH   4  22
HETATM   22  C4  UNL     1      31.693   7.137  47.649  1.00  0.00     0.152 C 
HETATM   23 CL1  UNL     1      33.014   7.918  46.798  1.00  0.00    -0.126 Cl
ENDBRANCH   4  22
BRANCH   1  24
HETATM   24  N1  UNL     1      29.714   9.527  43.552  1.00  0.00    -0.231 N 
HETATM   25  H1  UNL     1      30.109  10.369  43.068  1.00  0.00     0.174 HD
HETATM   26  H2  UNL     1      29.404   8.758  42.906  1.00  0.00     0.174 HD
ENDBRANCH   1  24
TORSDOF 4
ENDMDL
MODEL 9
REMARK VINA RESULT:      -5.8     11.723     13.989
REMARK  4 active torsions:
REMARK  status: ('A' for Active; 'I' for Inactive)
REMARK    1  A    between atoms: N1_1  and  C1_2 
REMARK    2  A    between atoms: C3_5  and  C4_6 
REMARK    3  A    between atoms: C12_17  and  C13_18 
REMARK    4  A    between atoms: C14_19  and  C15_20 
ROOT
HETATM    1  C1  UNL     1      23.579   5.760  51.503  1.00  0.00     0.719 A 
HETATM    2  N2  UNL     1      22.447   6.084  50.913  1.00  0.00    -0.075 NA
HETATM    3  C2  UNL     1      21.915   4.975  50.203  1.00  0.00     0.199 A 
HETATM    4  C3  UNL     1      21.896   5.072  48.735  1.00  0.00    -0.024 C 
HETATM    5  C5  UNL     1      22.074   3.902  48.092  1.00  0.00     0.001 C 
HETATM    6  C6  UNL     1      22.965   2.808  48.555  1.00  0.00     0.157 C 
HETATM    7  N3  UNL     1      22.875   2.639  49.980  1.00  0.00    -0.339 N 
HETATM    8  C7  UNL     1      22.732   1.489  50.754  1.00  0.00     0.093 C 
HETATM    9  C8  UNL     1      22.103   0.909  51.743  1.00  0.00     0.019 C 
HETATM   10  C9  UNL     1      21.059   1.347  52.637  1.00  0.00     0.018 C 
HETATM   11  C10 UNL     1      20.431   2.490  52.707  1.00  0.00     0.088 C 
HETATM   12  N4  UNL     1      20.530   3.683  51.970  1.00  0.00    -0.366 N 
HETATM   13  C11 UNL     1      20.660   4.434  50.768  1.00  0.00     0.052 C 
HETATM   14  C12 UNL     1      19.513   4.649  50.117  1.00  0.00     0.028 C 
HETATM   15  C16 UNL     1      22.973   3.945  50.498  1.00  0.00     0.167 A 
HETATM   16  N5  UNL     1      23.897   4.368  51.216  1.00  0.00    -0.046 NA
HETATM   17  H12 UNL     1      20.513   4.625  52.467  1.00  0.00     0.165 HD
ENDROOT
BRANCH  14  18
HETATM   18  C13 UNL     1      18.205   4.173  50.562  1.00  0.00    -0.001 C 
HETATM   19  C14 UNL     1      17.498   3.167  50.101  1.00  0.00    -0.016 C 
BRANCH  19  20
HETATM   20  C15 UNL     1      16.171   2.803  50.663  1.00  0.00     0.112 C 
HETATM   21 BR1  UNL     1      15.814   3.996  52.161  1.00  0.00    -0.092 Br
ENDBRANCH  19  20
ENDBRANCH  14  18
BRANCH   4  22
HETATM   22  C4  UNL     1      21.701   6.328  47.956  1.00  0.00     0.152 C 
HETATM   23 CL1  UNL     1      23.149   6.829  47.103  1.00  0.00    -0.126 Cl
ENDBRANCH   4  22
BRANCH   1  24
HETATM   24  N1  UNL     1      24.412   6.615  52.313  1.00  0.00    -0.231 N 
HETATM   25  H1  UNL     1      24.235   7.051  53.250  1.00  0.00     0.174 HD
HETATM   26  H2  UNL     1      25.351   6.839  51.897  1.00  0.00     0.174 HD
ENDBRANCH   1  24
TORSDOF 4
ENDMDL
