MODEL 1
REMARK VINA RESULT:      -8.8      0.000      0.000
REMARK  2 active torsions:
REMARK  status: ('A' for Active; 'I' for Inactive)
REMARK    1  A    between atoms: O1_2  and  C2_3 
REMARK    2  A    between atoms: C9_12  and  O2_13 
ROOT
HETATM    1  C2  UNL     1      27.249   0.181  53.814  1.00  0.00     0.103 A 
HETATM    2  C3  UNL     1      27.651   1.024  52.771  1.00  0.00     0.072 A 
HETATM    3  C4  UNL     1      26.648   1.675  52.095  1.00  0.00     0.076 A 
HETATM    4  N1  UNL     1      26.981   2.491  51.080  1.00  0.00    -0.222 NA
HETATM    5  C5  UNL     1      26.078   3.160  50.361  1.00  0.00     0.191 A 
HETATM    6  N2  UNL     1      24.807   2.965  50.719  1.00  0.00    -0.249 N 
HETATM    7  C6  UNL     1      24.455   2.161  51.725  1.00  0.00     0.133 A 
HETATM    8  C7  UNL     1      25.340   1.450  52.494  1.00  0.00     0.041 A 
HETATM    9  C8  UNL     1      24.899   0.636  53.507  1.00  0.00     0.057 A 
HETATM   10  C9  UNL     1      25.928  -0.003  54.166  1.00  0.00     0.102 A 
HETATM   11  N3  UNL     1      23.096   2.026  52.120  1.00  0.00    -0.344 N 
HETATM   12  C11 UNL     1      22.491   3.303  52.121  1.00  0.00     0.014 C 
HETATM   13  C12 UNL     1      21.381   3.844  51.662  1.00  0.00     0.025 C 
HETATM   14  C13 UNL     1      21.728   5.244  51.294  1.00  0.00     0.005 C 
HETATM   15  C14 UNL     1      23.036   5.420  51.569  1.00  0.00    -0.073 C 
HETATM   16  C15 UNL     1      23.177   4.494  52.768  1.00  0.00     0.091 C 
HETATM   17  C16 UNL     1      24.251   6.107  51.152  1.00  0.00     0.055 C 
HETATM   18  C17 UNL     1      24.690   5.770  49.722  1.00  0.00     0.021 C 
HETATM   19  C18 UNL     1      23.593   6.239  48.764  1.00  0.00     0.028 C 
HETATM   20  C19 UNL     1      26.024   6.384  49.426  1.00  0.00     0.028 C 
HETATM   21  S1  UNL     1      24.805   3.985  49.488  1.00  0.00    -0.036 SA
HETATM   22  H9  UNL     1      22.583   1.189  52.382  1.00  0.00     0.167 HD
ENDROOT
BRANCH   1  23
HETATM   23  O1  UNL     1      28.253  -0.481  54.502  1.00  0.00    -0.353 OA
HETATM   24  C1  UNL     1      29.436  -0.856  53.817  1.00  0.00     0.210 C 
ENDBRANCH   1  23
BRANCH  10  25
HETATM   25  O2  UNL     1      25.675  -0.869  55.221  1.00  0.00    -0.353 OA
HETATM   26  C10 UNL     1      24.341  -1.227  55.438  1.00  0.00     0.210 C 
ENDBRANCH  10  25
TORSDOF 2
ENDMDL
MODEL 2
REMARK VINA RESULT:      -8.3      2.046      3.582
REMARK  2 active torsions:
REMARK  status: ('A' for Active; 'I' for Inactive)
REMARK    1  A    between atoms: O1_2  and  C2_3 
REMARK    2  A    between atoms: C9_12  and  O2_13 
ROOT
HETATM    1  C2  UNL     1      26.910  -0.092  53.963  1.00  0.00     0.103 A 
HETATM    2  C3  UNL     1      25.684  -0.600  53.515  1.00  0.00     0.072 A 
HETATM    3  C4  UNL     1      24.720   0.327  53.201  1.00  0.00     0.076 A 
HETATM    4  N1  UNL     1      23.523  -0.110  52.772  1.00  0.00    -0.222 NA
HETATM    5  C5  UNL     1      22.523   0.713  52.452  1.00  0.00     0.191 A 
HETATM    6  N2  UNL     1      22.791   2.014  52.586  1.00  0.00    -0.249 N 
HETATM    7  C6  UNL     1      23.973   2.468  53.008  1.00  0.00     0.133 A 
HETATM    8  C7  UNL     1      25.032   1.669  53.351  1.00  0.00     0.041 A 
HETATM    9  C8  UNL     1      26.215   2.212  53.786  1.00  0.00     0.057 A 
HETATM   10  C9  UNL     1      27.162   1.257  54.093  1.00  0.00     0.102 A 
HETATM   11  N3  UNL     1      24.245   3.862  53.079  1.00  0.00    -0.344 N 
HETATM   12  C11 UNL     1      23.731   4.488  51.920  1.00  0.00     0.014 C 
HETATM   13  C12 UNL     1      22.995   5.545  51.641  1.00  0.00     0.025 C 
HETATM   14  C13 UNL     1      22.195   5.182  50.439  1.00  0.00     0.005 C 
HETATM   15  C14 UNL     1      22.526   3.921  50.101  1.00  0.00    -0.073 C 
HETATM   16  C15 UNL     1      23.983   3.907  50.539  1.00  0.00     0.091 C 
HETATM   17  C16 UNL     1      22.024   2.677  49.530  1.00  0.00     0.055 C 
HETATM   18  C17 UNL     1      20.860   2.064  50.318  1.00  0.00     0.021 C 
HETATM   19  C18 UNL     1      19.689   3.047  50.279  1.00  0.00     0.028 C 
HETATM   20  C19 UNL     1      20.509   0.716  49.766  1.00  0.00     0.028 C 
HETATM   21  S1  UNL     1      21.286   1.887  52.062  1.00  0.00    -0.036 SA
HETATM   22  H9  UNL     1      24.730   4.387  53.800  1.00  0.00     0.167 HD
ENDROOT
BRANCH   1  23
HETATM   23  O1  UNL     1      27.888  -1.019  54.282  1.00  0.00    -0.353 OA
HETATM   24  C1  UNL     1      28.707  -1.550  53.255  1.00  0.00     0.210 C 
ENDBRANCH   1  23
BRANCH  10  25
HETATM   25  O2  UNL     1      28.422   1.619  54.549  1.00  0.00    -0.353 OA
HETATM   26  C10 UNL     1      29.159   2.493  53.744  1.00  0.00     0.210 C 
ENDBRANCH  10  25
TORSDOF 2
ENDMDL
MODEL 3
REMARK VINA RESULT:      -8.0      2.042      3.491
REMARK  2 active torsions:
REMARK  status: ('A' for Active; 'I' for Inactive)
REMARK    1  A    between atoms: O1_2  and  C2_3 
REMARK    2  A    between atoms: C9_12  and  O2_13 
ROOT
HETATM    1  C2  UNL     1      25.982   0.169  53.627  1.00  0.00     0.103 A 
HETATM    2  C3  UNL     1      24.738  -0.140  53.063  1.00  0.00     0.072 A 
HETATM    3  C4  UNL     1      23.954   0.927  52.699  1.00  0.00     0.076 A 
HETATM    4  N1  UNL     1      22.747   0.684  52.160  1.00  0.00    -0.222 NA
HETATM    5  C5  UNL     1      21.912   1.654  51.783  1.00  0.00     0.191 A 
HETATM    6  N2  UNL     1      22.359   2.897  51.978  1.00  0.00    -0.249 N 
HETATM    7  C6  UNL     1      23.554   3.160  52.509  1.00  0.00     0.133 A 
HETATM    8  C7  UNL     1      24.448   2.204  52.915  1.00  0.00     0.041 A 
HETATM    9  C8  UNL     1      25.658   2.555  53.462  1.00  0.00     0.057 A 
HETATM   10  C9  UNL     1      26.421   1.462  53.817  1.00  0.00     0.102 A 
HETATM   11  N3  UNL     1      24.024   4.496  52.644  1.00  0.00    -0.344 N 
HETATM   12  C11 UNL     1      23.710   5.212  51.466  1.00  0.00     0.014 C 
HETATM   13  C12 UNL     1      23.168   6.372  51.160  1.00  0.00     0.025 C 
HETATM   14  C13 UNL     1      22.429   6.156  49.886  1.00  0.00     0.005 C 
HETATM   15  C14 UNL     1      22.597   4.865  49.537  1.00  0.00    -0.073 C 
HETATM   16  C15 UNL     1      23.992   4.623  50.095  1.00  0.00     0.091 C 
HETATM   17  C16 UNL     1      21.966   3.722  48.890  1.00  0.00     0.055 C 
HETATM   18  C17 UNL     1      20.660   3.278  49.560  1.00  0.00     0.021 C 
HETATM   19  C18 UNL     1      19.656   4.428  49.454  1.00  0.00     0.028 C 
HETATM   20  C19 UNL     1      20.160   2.009  48.941  1.00  0.00     0.028 C 
HETATM   21  S1  UNL     1      20.902   3.009  51.327  1.00  0.00    -0.036 SA
HETATM   22  H9  UNL     1      24.517   4.928  53.419  1.00  0.00     0.167 HD
ENDROOT
BRANCH   1  23
HETATM   23  O1  UNL     1      26.780  -0.901  53.997  1.00  0.00    -0.353 OA
HETATM   24  C1  UNL     1      27.418  -1.674  52.996  1.00  0.00     0.210 C 
ENDBRANCH   1  23
BRANCH  10  25
HETATM   25  O2  UNL     1      27.677   1.621  54.387  1.00  0.00    -0.353 OA
HETATM   26  C10 UNL     1      28.632   2.308  53.631  1.00  0.00     0.210 C 
ENDBRANCH  10  25
TORSDOF 2
ENDMDL
MODEL 4
REMARK VINA RESULT:      -7.9      1.969      4.125
REMARK  2 active torsions:
REMARK  status: ('A' for Active; 'I' for Inactive)
REMARK    1  A    between atoms: O1_2  and  C2_3 
REMARK    2  A    between atoms: C9_12  and  O2_13 
ROOT
HETATM    1  C2  UNL     1      23.019  -0.037  53.228  1.00  0.00     0.103 A 
HETATM    2  C3  UNL     1      21.973   0.873  53.036  1.00  0.00     0.072 A 
HETATM    3  C4  UNL     1      22.322   2.102  52.531  1.00  0.00     0.076 A 
HETATM    4  N1  UNL     1      21.355   3.015  52.334  1.00  0.00    -0.222 NA
HETATM    5  C5  UNL     1      21.598   4.237  51.857  1.00  0.00     0.191 A 
HETATM    6  N2  UNL     1      22.879   4.498  51.583  1.00  0.00    -0.249 N 
HETATM    7  C6  UNL     1      23.853   3.606  51.770  1.00  0.00     0.133 A 
HETATM    8  C7  UNL     1      23.660   2.339  52.258  1.00  0.00     0.041 A 
HETATM    9  C8  UNL     1      24.718   1.480  52.431  1.00  0.00     0.057 A 
HETATM   10  C9  UNL     1      24.335   0.256  52.938  1.00  0.00     0.102 A 
HETATM   11  N3  UNL     1      25.198   3.895  51.408  1.00  0.00    -0.344 N 
HETATM   12  C11 UNL     1      25.203   4.550  50.156  1.00  0.00     0.014 C 
HETATM   13  C12 UNL     1      25.764   5.620  49.630  1.00  0.00     0.025 C 
HETATM   14  C13 UNL     1      24.784   6.157  48.647  1.00  0.00     0.005 C 
HETATM   15  C14 UNL     1      23.706   5.348  48.672  1.00  0.00    -0.073 C 
HETATM   16  C15 UNL     1      24.381   4.022  48.993  1.00  0.00     0.091 C 
HETATM   17  C16 UNL     1      22.256   5.303  48.529  1.00  0.00     0.055 C 
HETATM   18  C17 UNL     1      21.509   6.180  49.540  1.00  0.00     0.021 C 
HETATM   19  C18 UNL     1      21.911   7.636  49.296  1.00  0.00     0.028 C 
HETATM   20  C19 UNL     1      20.032   5.957  49.435  1.00  0.00     0.028 C 
HETATM   21  S1  UNL     1      22.037   5.809  51.226  1.00  0.00    -0.036 SA
HETATM   22  H9  UNL     1      26.057   3.687  51.909  1.00  0.00     0.167 HD
ENDROOT
BRANCH   1  23
HETATM   23  O1  UNL     1      22.677  -1.280  53.737  1.00  0.00    -0.353 OA
HETATM   24  C1  UNL     1      21.527  -1.404  54.556  1.00  0.00     0.210 C 
ENDBRANCH   1  23
BRANCH  10  25
HETATM   25  O2  UNL     1      25.268  -0.742  53.178  1.00  0.00    -0.353 OA
HETATM   26  C10 UNL     1      26.560  -0.533  52.685  1.00  0.00     0.210 C 
ENDBRANCH  10  25
TORSDOF 2
ENDMDL
MODEL 5
REMARK VINA RESULT:      -7.8      3.965      6.421
REMARK  2 active torsions:
REMARK  status: ('A' for Active; 'I' for Inactive)
REMARK    1  A    between atoms: O1_2  and  C2_3 
REMARK    2  A    between atoms: C9_12  and  O2_13 
ROOT
HETATM    1  C2  UNL     1      19.066  -0.535  53.154  1.00  0.00     0.103 A 
HETATM    2  C3  UNL     1      20.207  -1.002  53.816  1.00  0.00     0.072 A 
HETATM    3  C4  UNL     1      21.416  -0.605  53.297  1.00  0.00     0.076 A 
HETATM    4  N1  UNL     1      22.543  -1.033  53.893  1.00  0.00    -0.222 NA
HETATM    5  C5  UNL     1      23.761  -0.707  53.458  1.00  0.00     0.191 A 
HETATM    6  N2  UNL     1      23.789   0.081  52.380  1.00  0.00    -0.249 N 
HETATM    7  C6  UNL     1      22.683   0.517  51.776  1.00  0.00     0.133 A 
HETATM    8  C7  UNL     1      21.409   0.213  52.179  1.00  0.00     0.041 A 
HETATM    9  C8  UNL     1      20.318   0.694  51.498  1.00  0.00     0.057 A 
HETATM   10  C9  UNL     1      19.121   0.278  52.042  1.00  0.00     0.102 A 
HETATM   11  N3  UNL     1      22.749   1.407  50.668  1.00  0.00    -0.344 N 
HETATM   12  C11 UNL     1      23.729   2.391  50.930  1.00  0.00     0.014 C 
HETATM   13  C12 UNL     1      24.748   2.931  50.293  1.00  0.00     0.025 C 
HETATM   14  C13 UNL     1      25.764   3.245  51.334  1.00  0.00     0.005 C 
HETATM   15  C14 UNL     1      25.256   2.858  52.521  1.00  0.00    -0.073 C 
HETATM   16  C15 UNL     1      23.777   3.111  52.267  1.00  0.00     0.091 C 
HETATM   17  C16 UNL     1      25.591   2.319  53.833  1.00  0.00     0.055 C 
HETATM   18  C17 UNL     1      26.273   0.947  53.780  1.00  0.00     0.021 C 
HETATM   19  C18 UNL     1      27.602   1.104  53.038  1.00  0.00     0.028 C 
HETATM   20  C19 UNL     1      26.438   0.391  55.161  1.00  0.00     0.028 C 
HETATM   21  S1  UNL     1      25.305  -0.215  52.796  1.00  0.00    -0.036 SA
HETATM   22  H9  UNL     1      22.209   1.403  49.808  1.00  0.00     0.167 HD
ENDROOT
BRANCH   1  23
HETATM   23  O1  UNL     1      17.842  -0.931  53.669  1.00  0.00    -0.353 OA
HETATM   24  C1  UNL     1      17.393  -2.258  53.457  1.00  0.00     0.210 C 
ENDBRANCH   1  23
BRANCH  10  25
HETATM   25  O2  UNL     1      17.909   0.667  51.487  1.00  0.00    -0.353 OA
HETATM   26  C10 UNL     1      17.642   0.232  50.186  1.00  0.00     0.210 C 
ENDBRANCH  10  25
TORSDOF 2
ENDMDL
MODEL 6
REMARK VINA RESULT:      -7.6      4.943      7.648
REMARK  2 active torsions:
REMARK  status: ('A' for Active; 'I' for Inactive)
REMARK    1  A    between atoms: O1_2  and  C2_3 
REMARK    2  A    between atoms: C9_12  and  O2_13 
ROOT
HETATM    1  C2  UNL     1      25.613   4.292  49.407  1.00  0.00     0.103 A 
HETATM    2  C3  UNL     1      26.972   4.068  49.154  1.00  0.00     0.072 A 
HETATM    3  C4  UNL     1      27.679   5.132  48.647  1.00  0.00     0.076 A 
HETATM    4  N1  UNL     1      28.986   4.967  48.380  1.00  0.00    -0.222 NA
HETATM    5  C5  UNL     1      29.752   5.938  47.879  1.00  0.00     0.191 A 
HETATM    6  N2  UNL     1      29.129   7.098  47.659  1.00  0.00    -0.249 N 
HETATM    7  C6  UNL     1      27.834   7.283  47.919  1.00  0.00     0.133 A 
HETATM    8  C7  UNL     1      27.002   6.321  48.431  1.00  0.00     0.041 A 
HETATM    9  C8  UNL     1      25.675   6.586  48.663  1.00  0.00     0.057 A 
HETATM   10  C9  UNL     1      24.993   5.500  49.171  1.00  0.00     0.102 A 
HETATM   11  N3  UNL     1      27.217   8.551  47.731  1.00  0.00    -0.344 N 
HETATM   12  C11 UNL     1      28.085   9.557  48.214  1.00  0.00     0.014 C 
HETATM   13  C12 UNL     1      28.555  10.711  47.785  1.00  0.00     0.025 C 
HETATM   14  C13 UNL     1      29.931  10.825  48.341  1.00  0.00     0.005 C 
HETATM   15  C14 UNL     1      30.167   9.712  49.063  1.00  0.00    -0.073 C 
HETATM   16  C15 UNL     1      28.761   9.424  49.568  1.00  0.00     0.091 C 
HETATM   17  C16 UNL     1      31.195   8.766  49.478  1.00  0.00     0.055 C 
HETATM   18  C17 UNL     1      31.878   8.045  48.311  1.00  0.00     0.021 C 
HETATM   19  C18 UNL     1      32.592   9.093  47.456  1.00  0.00     0.028 C 
HETATM   20  C19 UNL     1      32.801   6.981  48.821  1.00  0.00     0.028 C 
HETATM   21  S1  UNL     1      30.656   7.284  47.222  1.00  0.00    -0.036 SA
HETATM   22  H9  UNL     1      26.308   8.771  47.336  1.00  0.00     0.167 HD
ENDROOT
BRANCH   1  23
HETATM   23  O1  UNL     1      24.892   3.224  49.918  1.00  0.00    -0.353 OA
HETATM   24  C1  UNL     1      25.186   2.744  51.218  1.00  0.00     0.210 C 
ENDBRANCH   1  23
BRANCH  10  25
HETATM   25  O2  UNL     1      23.640   5.580  49.469  1.00  0.00    -0.353 OA
HETATM   26  C10 UNL     1      23.286   6.299  50.615  1.00  0.00     0.210 C 
ENDBRANCH  10  25
TORSDOF 2
ENDMDL
MODEL 7
REMARK VINA RESULT:      -7.4      3.770      6.693
REMARK  2 active torsions:
REMARK  status: ('A' for Active; 'I' for Inactive)
REMARK    1  A    between atoms: O1_2  and  C2_3 
REMARK    2  A    between atoms: C9_12  and  O2_13 
ROOT
HETATM    1  C2  UNL     1      21.589   3.057  48.251  1.00  0.00     0.103 A 
HETATM    2  C3  UNL     1      22.924   3.110  48.671  1.00  0.00     0.072 A 
HETATM    3  C4  UNL     1      23.171   2.713  49.962  1.00  0.00     0.076 A 
HETATM    4  N1  UNL     1      24.435   2.753  50.417  1.00  0.00    -0.222 NA
HETATM    5  C5  UNL     1      24.771   2.395  51.657  1.00  0.00     0.191 A 
HETATM    6  N2  UNL     1      23.759   1.989  52.427  1.00  0.00    -0.249 N 
HETATM    7  C6  UNL     1      22.498   1.940  51.995  1.00  0.00     0.133 A 
HETATM    8  C7  UNL     1      22.097   2.297  50.734  1.00  0.00     0.041 A 
HETATM    9  C8  UNL     1      20.776   2.228  50.366  1.00  0.00     0.057 A 
HETATM   10  C9  UNL     1      20.561   2.633  49.065  1.00  0.00     0.102 A 
HETATM   11  N3  UNL     1      21.453   1.443  52.822  1.00  0.00    -0.344 N 
HETATM   12  C11 UNL     1      21.912   0.286  53.492  1.00  0.00     0.014 C 
HETATM   13  C12 UNL     1      21.909  -0.178  54.725  1.00  0.00     0.025 C 
HETATM   14  C13 UNL     1      23.169  -0.955  54.875  1.00  0.00     0.005 C 
HETATM   15  C14 UNL     1      23.827  -0.885  53.700  1.00  0.00    -0.073 C 
HETATM   16  C15 UNL     1      22.645  -0.813  52.744  1.00  0.00     0.091 C 
HETATM   17  C16 UNL     1      25.146  -0.842  53.082  1.00  0.00     0.055 C 
HETATM   18  C17 UNL     1      25.996   0.355  53.525  1.00  0.00     0.021 C 
HETATM   19  C18 UNL     1      26.240   0.233  55.030  1.00  0.00     0.028 C 
HETATM   20  C19 UNL     1      27.264   0.418  52.731  1.00  0.00     0.028 C 
HETATM   21  S1  UNL     1      25.092   1.901  53.306  1.00  0.00    -0.036 SA
HETATM   22  H9  UNL     1      20.510   1.799  52.950  1.00  0.00     0.167 HD
ENDROOT
BRANCH   1  23
HETATM   23  O1  UNL     1      21.331   3.456  46.949  1.00  0.00    -0.353 OA
HETATM   24  C1  UNL     1      21.917   4.648  46.457  1.00  0.00     0.210 C 
ENDBRANCH   1  23
BRANCH  10  25
HETATM   25  O2  UNL     1      19.286   2.631  48.516  1.00  0.00    -0.353 OA
HETATM   26  C10 UNL     1      18.217   2.460  49.401  1.00  0.00     0.210 C 
ENDBRANCH  10  25
TORSDOF 2
ENDMDL
MODEL 8
REMARK VINA RESULT:      -6.7      2.935      4.104
REMARK  2 active torsions:
REMARK  status: ('A' for Active; 'I' for Inactive)
REMARK    1  A    between atoms: O1_2  and  C2_3 
REMARK    2  A    between atoms: C9_12  and  O2_13 
ROOT
HETATM    1  C2  UNL     1      22.382   0.957  52.738  1.00  0.00     0.103 A 
HETATM    2  C3  UNL     1      23.450   1.860  52.803  1.00  0.00     0.072 A 
HETATM    3  C4  UNL     1      23.719   2.567  51.656  1.00  0.00     0.076 A 
HETATM    4  N1  UNL     1      24.740   3.442  51.665  1.00  0.00    -0.222 NA
HETATM    5  C5  UNL     1      25.081   4.167  50.598  1.00  0.00     0.191 A 
HETATM    6  N2  UNL     1      24.335   3.966  49.509  1.00  0.00    -0.249 N 
HETATM    7  C6  UNL     1      23.317   3.104  49.481  1.00  0.00     0.133 A 
HETATM    8  C7  UNL     1      22.925   2.334  50.545  1.00  0.00     0.041 A 
HETATM    9  C8  UNL     1      21.870   1.461  50.435  1.00  0.00     0.057 A 
HETATM   10  C9  UNL     1      21.626   0.768  51.601  1.00  0.00     0.102 A 
HETATM   11  N3  UNL     1      22.503   2.961  48.324  1.00  0.00    -0.344 N 
HETATM   12  C11 UNL     1      22.230   4.243  47.795  1.00  0.00     0.014 C 
HETATM   13  C12 UNL     1      22.266   4.827  46.615  1.00  0.00     0.025 C 
HETATM   14  C13 UNL     1      22.649   6.243  46.868  1.00  0.00     0.005 C 
HETATM   15  C14 UNL     1      22.811   6.383  48.199  1.00  0.00    -0.073 C 
HETATM   16  C15 UNL     1      21.780   5.381  48.695  1.00  0.00     0.091 C 
HETATM   17  C16 UNL     1      23.567   7.080  49.232  1.00  0.00     0.055 C 
HETATM   18  C17 UNL     1      25.078   6.831  49.165  1.00  0.00     0.021 C 
HETATM   19  C18 UNL     1      25.591   7.374  47.830  1.00  0.00     0.028 C 
HETATM   20  C19 UNL     1      25.762   7.445  50.347  1.00  0.00     0.028 C 
HETATM   21  S1  UNL     1      25.437   5.063  49.137  1.00  0.00    -0.036 SA
HETATM   22  H9  UNL     1      22.135   2.116  47.898  1.00  0.00     0.167 HD
ENDROOT
BRANCH   1  23
HETATM   23  O1  UNL     1      22.104   0.239  53.890  1.00  0.00    -0.353 OA
HETATM   24  C1  UNL     1      22.977  -0.803  54.290  1.00  0.00     0.210 C 
ENDBRANCH   1  23
BRANCH  10  25
HETATM   25  O2  UNL     1      20.596  -0.160  51.680  1.00  0.00    -0.353 OA
HETATM   26  C10 UNL     1      19.291   0.337  51.625  1.00  0.00     0.210 C 
ENDBRANCH  10  25
TORSDOF 2
ENDMDL
MODEL 9
REMARK VINA RESULT:      -6.7      3.686      7.044
REMARK  2 active torsions:
REMARK  status: ('A' for Active; 'I' for Inactive)
REMARK    1  A    between atoms: O1_2  and  C2_3 
REMARK    2  A    between atoms: C9_12  and  O2_13 
ROOT
HETATM    1  C2  UNL     1      19.361   3.160  51.792  1.00  0.00     0.103 A 
HETATM    2  C3  UNL     1      19.768   2.031  52.513  1.00  0.00     0.072 A 
HETATM    3  C4  UNL     1      21.066   1.623  52.322  1.00  0.00     0.076 A 
HETATM    4  N1  UNL     1      21.504   0.539  52.986  1.00  0.00    -0.222 NA
HETATM    5  C5  UNL     1      22.744   0.064  52.860  1.00  0.00     0.191 A 
HETATM    6  N2  UNL     1      23.532   0.743  52.023  1.00  0.00    -0.249 N 
HETATM    7  C6  UNL     1      23.118   1.822  51.356  1.00  0.00     0.133 A 
HETATM    8  C7  UNL     1      21.856   2.351  51.447  1.00  0.00     0.041 A 
HETATM    9  C8  UNL     1      21.502   3.461  50.721  1.00  0.00     0.057 A 
HETATM   10  C9  UNL     1      20.194   3.845  50.933  1.00  0.00     0.102 A 
HETATM   11  N3  UNL     1      24.002   2.559  50.521  1.00  0.00    -0.344 N 
HETATM   12  C11 UNL     1      25.248   2.689  51.177  1.00  0.00     0.014 C 
HETATM   13  C12 UNL     1      26.519   2.520  50.874  1.00  0.00     0.025 C 
HETATM   14  C13 UNL     1      27.178   2.045  52.120  1.00  0.00     0.005 C 
HETATM   15  C14 UNL     1      26.229   1.969  53.074  1.00  0.00    -0.073 C 
HETATM   16  C15 UNL     1      25.325   3.111  52.634  1.00  0.00     0.091 C 
HETATM   17  C16 UNL     1      25.796   1.237  54.258  1.00  0.00     0.055 C 
HETATM   18  C17 UNL     1      25.528  -0.250  53.999  1.00  0.00     0.021 C 
HETATM   19  C18 UNL     1      26.841  -0.901  53.559  1.00  0.00     0.028 C 
HETATM   20  C19 UNL     1      24.936  -0.894  55.215  1.00  0.00     0.028 C 
HETATM   21  S1  UNL     1      24.393  -0.468  52.613  1.00  0.00    -0.036 SA
HETATM   22  H9  UNL     1      23.834   2.962  49.604  1.00  0.00     0.167 HD
ENDROOT
BRANCH   1  23
HETATM   23  O1  UNL     1      18.053   3.578  51.977  1.00  0.00    -0.353 OA
HETATM   24  C1  UNL     1      16.990   2.767  51.509  1.00  0.00     0.210 C 
ENDBRANCH   1  23
BRANCH  10  25
HETATM   25  O2  UNL     1      19.658   4.948  50.284  1.00  0.00    -0.353 OA
HETATM   26  C10 UNL     1      20.523   6.018  50.035  1.00  0.00     0.210 C 
ENDBRANCH  10  25
TORSDOF 2
ENDMDL
