MODEL 1
REMARK VINA RESULT:      -8.9      0.000      0.000
REMARK  9 active torsions:
REMARK  status: ('A' for Active; 'I' for Inactive)
REMARK    1  A    between atoms: N1_1  and  C1_2 
REMARK    2  A    between atoms: C1_2  and  C2_3 
REMARK    3  A    between atoms: C2_3  and  N2_4 
REMARK    4  A    between atoms: C6_8  and  C7_9 
REMARK    5  A    between atoms: C10_13  and  N4_14 
REMARK    6  A    between atoms: N4_14  and  C11_15 
REMARK    7  A    between atoms: C15_19  and  O1_20 
REMARK    8  A    between atoms: O1_20  and  C16_21 
REMARK    9  A    between atoms: C16_21  and  C17_24 
ROOT
HETATM    1  C7  UNL     1      24.317   4.963  49.253  1.00  0.00     0.084 A 
HETATM    2  C8  UNL     1      23.199   5.029  48.453  1.00  0.00     0.052 A 
HETATM    3  C9  UNL     1      22.000   4.548  48.929  1.00  0.00     0.139 A 
HETATM    4  N3  UNL     1      21.971   4.031  50.163  1.00  0.00    -0.075 NA
HETATM    5  C10 UNL     1      23.035   3.953  50.962  1.00  0.00     0.727 A 
HETATM    6  N5  UNL     1      24.153   4.430  50.450  1.00  0.00    -0.062 NA
ENDROOT
BRANCH   5   7
HETATM    7  N4  UNL     1      23.039   3.415  52.275  1.00  0.00    -0.188 N 
HETATM    8  H11 UNL     1      22.345   3.828  52.969  1.00  0.00     0.184 HD
BRANCH   7   9
HETATM    9  C11 UNL     1      23.861   2.383  52.795  1.00  0.00     0.052 A 
HETATM   10  C12 UNL     1      23.421   1.053  52.767  1.00  0.00     0.030 A 
HETATM   11  C13 UNL     1      24.165   0.015  53.255  1.00  0.00     0.005 A 
HETATM   12  C14 UNL     1      25.406   0.227  53.809  1.00  0.00     0.037 A 
HETATM   13  C15 UNL     1      25.875   1.515  53.856  1.00  0.00     0.077 A 
HETATM   14  C18 UNL     1      25.090   2.508  53.355  1.00  0.00     0.067 A 
BRANCH  13  15
HETATM   15  O1  UNL     1      27.110   1.748  54.404  1.00  0.00    -0.279 OA
BRANCH  15  16
HETATM   16  C16 UNL     1      28.243   1.783  53.560  1.00  0.00     0.418 C 
HETATM   17  F1  UNL     1      28.994   2.923  53.685  1.00  0.00    -0.169 F 
HETATM   18  F2  UNL     1      27.835   1.653  52.247  1.00  0.00    -0.169 F 
BRANCH  16  19
HETATM   19  C17 UNL     1      29.121   0.585  53.951  1.00  0.00     0.455 C 
HETATM   20  F3  UNL     1      28.815   0.151  55.220  1.00  0.00    -0.205 F 
HETATM   21  F4  UNL     1      28.963  -0.436  53.038  1.00  0.00    -0.205 F 
ENDBRANCH  16  19
ENDBRANCH  15  16
ENDBRANCH  13  15
ENDBRANCH   7   9
ENDBRANCH   5   7
BRANCH   1  22
HETATM   22  C6  UNL     1      25.664   5.444  48.875  1.00  0.00    -0.024 A 
HETATM   23  C5  UNL     1      25.945   6.653  48.436  1.00  0.00     0.025 A 
HETATM   24  C4  UNL     1      27.291   7.068  48.079  1.00  0.00     0.007 A 
HETATM   25  C3  UNL     1      28.098   8.022  47.637  1.00  0.00     0.105 A 
HETATM   26  C21 UNL     1      28.389   6.099  48.212  1.00  0.00     0.042 A 
HETATM   27  N2  UNL     1      29.229   7.141  47.735  1.00  0.00    -0.354 N 
HETATM   28  C20 UNL     1      28.071   4.907  48.650  1.00  0.00     0.008 A 
HETATM   29  C19 UNL     1      26.725   4.416  49.032  1.00  0.00     0.070 A 
BRANCH  27  30
HETATM   30  C2  UNL     1      30.636   7.264  47.464  1.00  0.00     0.158 C 
BRANCH  30  31
HETATM   31  C1  UNL     1      31.324   8.204  48.417  1.00  0.00     0.286 C 
BRANCH  31  32
HETATM   32  N1  UNL     1      31.194   7.724  49.756  1.00  0.00     0.079 N 
HETATM   33  H1  UNL     1      30.231   7.966  50.131  1.00  0.00     0.312 HD
HETATM   34  H2  UNL     1      31.280   6.702  49.823  1.00  0.00     0.312 HD
ENDBRANCH  31  32
ENDBRANCH  30  31
ENDBRANCH  27  30
ENDBRANCH   1  22
TORSDOF 9
ENDMDL
MODEL 2
REMARK VINA RESULT:      -8.6      1.257      1.826
REMARK  9 active torsions:
REMARK  status: ('A' for Active; 'I' for Inactive)
REMARK    1  A    between atoms: N1_1  and  C1_2 
REMARK    2  A    between atoms: C1_2  and  C2_3 
REMARK    3  A    between atoms: C2_3  and  N2_4 
REMARK    4  A    between atoms: C6_8  and  C7_9 
REMARK    5  A    between atoms: C10_13  and  N4_14 
REMARK    6  A    between atoms: N4_14  and  C11_15 
REMARK    7  A    between atoms: C15_19  and  O1_20 
REMARK    8  A    between atoms: O1_20  and  C16_21 
REMARK    9  A    between atoms: C16_21  and  C17_24 
ROOT
HETATM    1  C7  UNL     1      25.298   5.270  49.221  1.00  0.00     0.084 A 
HETATM    2  C8  UNL     1      24.080   5.418  48.597  1.00  0.00     0.052 A 
HETATM    3  C9  UNL     1      22.944   4.944  49.215  1.00  0.00     0.139 A 
HETATM    4  N3  UNL     1      23.072   4.354  50.409  1.00  0.00    -0.075 NA
HETATM    5  C10 UNL     1      24.236   4.196  51.039  1.00  0.00     0.727 A 
HETATM    6  N5  UNL     1      25.287   4.670  50.398  1.00  0.00    -0.062 NA
ENDROOT
BRANCH   5   7
HETATM    7  N4  UNL     1      24.408   3.579  52.306  1.00  0.00    -0.188 N 
HETATM    8  H11 UNL     1      24.278   4.195  53.165  1.00  0.00     0.184 HD
BRANCH   7   9
HETATM    9  C11 UNL     1      24.736   2.228  52.584  1.00  0.00     0.052 A 
HETATM   10  C12 UNL     1      23.733   1.322  52.949  1.00  0.00     0.030 A 
HETATM   11  C13 UNL     1      23.987   0.008  53.232  1.00  0.00     0.005 A 
HETATM   12  C14 UNL     1      25.263  -0.500  53.171  1.00  0.00     0.037 A 
HETATM   13  C15 UNL     1      26.277   0.354  52.816  1.00  0.00     0.077 A 
HETATM   14  C18 UNL     1      25.964   1.652  52.546  1.00  0.00     0.067 A 
BRANCH  13  15
HETATM   15  O1  UNL     1      27.557  -0.132  52.748  1.00  0.00    -0.279 OA
BRANCH  15  16
HETATM   16  C16 UNL     1      28.478   0.209  53.765  1.00  0.00     0.418 C 
HETATM   17  F1  UNL     1      27.907   0.375  54.999  1.00  0.00    -0.169 F 
HETATM   18  F2  UNL     1      29.134   1.372  53.410  1.00  0.00    -0.169 F 
BRANCH  16  19
HETATM   19  C17 UNL     1      29.485  -0.947  53.853  1.00  0.00     0.455 C 
HETATM   20  F3  UNL     1      29.097  -1.993  53.048  1.00  0.00    -0.205 F 
HETATM   21  F4  UNL     1      30.744  -0.507  53.503  1.00  0.00    -0.205 F 
ENDBRANCH  16  19
ENDBRANCH  15  16
ENDBRANCH  13  15
ENDBRANCH   7   9
ENDBRANCH   5   7
BRANCH   1  22
HETATM   22  C6  UNL     1      26.594   5.734  48.679  1.00  0.00    -0.024 A 
HETATM   23  C5  UNL     1      27.722   5.058  48.722  1.00  0.00     0.025 A 
HETATM   24  C4  UNL     1      28.966   5.567  48.172  1.00  0.00     0.007 A 
HETATM   25  C3  UNL     1      30.258   5.380  47.940  1.00  0.00     0.105 A 
HETATM   26  C21 UNL     1      28.970   6.894  47.539  1.00  0.00     0.042 A 
HETATM   27  N2  UNL     1      30.353   6.665  47.306  1.00  0.00    -0.354 N 
HETATM   28  C20 UNL     1      27.830   7.537  47.516  1.00  0.00     0.008 A 
HETATM   29  C19 UNL     1      26.527   7.080  48.056  1.00  0.00     0.070 A 
BRANCH  27  30
HETATM   30  C2  UNL     1      31.414   7.414  46.686  1.00  0.00     0.158 C 
BRANCH  30  31
HETATM   31  C1  UNL     1      32.253   8.158  47.689  1.00  0.00     0.286 C 
BRANCH  31  32
HETATM   32  N1  UNL     1      31.513   9.254  48.228  1.00  0.00     0.079 N 
HETATM   33  H1  UNL     1      31.246   9.045  49.234  1.00  0.00     0.312 HD
HETATM   34  H2  UNL     1      32.054  10.128  48.251  1.00  0.00     0.312 HD
ENDBRANCH  31  32
ENDBRANCH  30  31
ENDBRANCH  27  30
ENDBRANCH   1  22
TORSDOF 9
ENDMDL
MODEL 3
REMARK VINA RESULT:      -8.6      1.692      2.453
REMARK  9 active torsions:
REMARK  status: ('A' for Active; 'I' for Inactive)
REMARK    1  A    between atoms: N1_1  and  C1_2 
REMARK    2  A    between atoms: C1_2  and  C2_3 
REMARK    3  A    between atoms: C2_3  and  N2_4 
REMARK    4  A    between atoms: C6_8  and  C7_9 
REMARK    5  A    between atoms: C10_13  and  N4_14 
REMARK    6  A    between atoms: N4_14  and  C11_15 
REMARK    7  A    between atoms: C15_19  and  O1_20 
REMARK    8  A    between atoms: O1_20  and  C16_21 
REMARK    9  A    between atoms: C16_21  and  C17_24 
ROOT
HETATM    1  C7  UNL     1      23.315   3.883  50.872  1.00  0.00     0.084 A 
HETATM    2  C8  UNL     1      22.276   4.748  51.130  1.00  0.00     0.052 A 
HETATM    3  C9  UNL     1      21.140   4.273  51.747  1.00  0.00     0.139 A 
HETATM    4  N3  UNL     1      21.093   2.976  52.072  1.00  0.00    -0.075 NA
HETATM    5  C10 UNL     1      22.081   2.113  51.836  1.00  0.00     0.727 A 
HETATM    6  N5  UNL     1      23.141   2.627  51.244  1.00  0.00    -0.062 NA
ENDROOT
BRANCH   5   7
HETATM    7  N4  UNL     1      22.066   0.734  52.171  1.00  0.00    -0.188 N 
HETATM    8  H11 UNL     1      21.411   0.108  51.611  1.00  0.00     0.184 HD
BRANCH   7   9
HETATM    9  C11 UNL     1      22.820   0.067  53.170  1.00  0.00     0.052 A 
HETATM   10  C12 UNL     1      22.178  -0.480  54.288  1.00  0.00     0.030 A 
HETATM   11  C13 UNL     1      22.849  -1.131  55.284  1.00  0.00     0.005 A 
HETATM   12  C14 UNL     1      24.215  -1.285  55.241  1.00  0.00     0.037 A 
HETATM   13  C15 UNL     1      24.884  -0.765  54.161  1.00  0.00     0.077 A 
HETATM   14  C18 UNL     1      24.162  -0.126  53.200  1.00  0.00     0.067 A 
BRANCH  13  15
HETATM   15  O1  UNL     1      26.246  -0.907  54.098  1.00  0.00    -0.279 OA
BRANCH  15  16
HETATM   16  C16 UNL     1      27.069   0.214  54.349  1.00  0.00     0.418 C 
HETATM   17  F1  UNL     1      28.039  -0.008  55.291  1.00  0.00    -0.169 F 
HETATM   18  F2  UNL     1      26.280   1.274  54.753  1.00  0.00    -0.169 F 
BRANCH  16  19
HETATM   19  C17 UNL     1      27.760   0.560  53.021  1.00  0.00     0.455 C 
HETATM   20  F3  UNL     1      27.221  -0.171  51.988  1.00  0.00    -0.205 F 
HETATM   21  F4  UNL     1      27.651   1.910  52.768  1.00  0.00    -0.205 F 
ENDBRANCH  16  19
ENDBRANCH  15  16
ENDBRANCH  13  15
ENDBRANCH   7   9
ENDBRANCH   5   7
BRANCH   1  22
HETATM   22  C6  UNL     1      24.591   4.255  50.223  1.00  0.00    -0.024 A 
HETATM   23  C5  UNL     1      24.891   5.451  49.764  1.00  0.00     0.025 A 
HETATM   24  C4  UNL     1      26.164   5.756  49.135  1.00  0.00     0.007 A 
HETATM   25  C3  UNL     1      26.950   6.651  48.552  1.00  0.00     0.105 A 
HETATM   26  C21 UNL     1      27.163   4.686  49.002  1.00  0.00     0.042 A 
HETATM   27  N2  UNL     1      27.982   5.667  48.381  1.00  0.00    -0.354 N 
HETATM   28  C20 UNL     1      26.829   3.509  49.469  1.00  0.00     0.008 A 
HETATM   29  C19 UNL     1      25.553   3.128  50.120  1.00  0.00     0.070 A 
BRANCH  27  30
HETATM   30  C2  UNL     1      29.304   5.672  47.814  1.00  0.00     0.158 C 
BRANCH  30  31
HETATM   31  C1  UNL     1      30.362   6.016  48.828  1.00  0.00     0.286 C 
BRANCH  31  32
HETATM   32  N1  UNL     1      30.331   7.416  49.111  1.00  0.00     0.079 N 
HETATM   33  H1  UNL     1      30.465   7.574  50.152  1.00  0.00     0.312 HD
HETATM   34  H2  UNL     1      31.085   7.934  48.643  1.00  0.00     0.312 HD
ENDBRANCH  31  32
ENDBRANCH  30  31
ENDBRANCH  27  30
ENDBRANCH   1  22
TORSDOF 9
ENDMDL
MODEL 4
REMARK VINA RESULT:      -8.4      4.522      9.626
REMARK  9 active torsions:
REMARK  status: ('A' for Active; 'I' for Inactive)
REMARK    1  A    between atoms: N1_1  and  C1_2 
REMARK    2  A    between atoms: C1_2  and  C2_3 
REMARK    3  A    between atoms: C2_3  and  N2_4 
REMARK    4  A    between atoms: C6_8  and  C7_9 
REMARK    5  A    between atoms: C10_13  and  N4_14 
REMARK    6  A    between atoms: N4_14  and  C11_15 
REMARK    7  A    between atoms: C15_19  and  O1_20 
REMARK    8  A    between atoms: O1_20  and  C16_21 
REMARK    9  A    between atoms: C16_21  and  C17_24 
ROOT
HETATM    1  C7  UNL     1      24.579   0.212  53.321  1.00  0.00     0.084 A 
HETATM    2  C8  UNL     1      25.490  -0.209  54.263  1.00  0.00     0.052 A 
HETATM    3  C9  UNL     1      26.812   0.151  54.129  1.00  0.00     0.139 A 
HETATM    4  N3  UNL     1      27.161   0.903  53.078  1.00  0.00    -0.075 NA
HETATM    5  C10 UNL     1      26.303   1.327  52.150  1.00  0.00     0.727 A 
HETATM    6  N5  UNL     1      25.052   0.950  52.332  1.00  0.00    -0.062 NA
ENDROOT
BRANCH   5   7
HETATM    7  N4  UNL     1      26.636   2.127  51.026  1.00  0.00    -0.188 N 
HETATM    8  H11 UNL     1      27.635   2.057  50.663  1.00  0.00     0.184 HD
BRANCH   7   9
HETATM    9  C11 UNL     1      25.802   3.024  50.312  1.00  0.00     0.052 A 
HETATM   10  C12 UNL     1      26.332   4.206  49.780  1.00  0.00     0.030 A 
HETATM   11  C13 UNL     1      25.579   5.110  49.085  1.00  0.00     0.005 A 
HETATM   12  C14 UNL     1      24.237   4.903  48.868  1.00  0.00     0.037 A 
HETATM   13  C15 UNL     1      23.677   3.756  49.372  1.00  0.00     0.077 A 
HETATM   14  C18 UNL     1      24.476   2.892  50.056  1.00  0.00     0.067 A 
BRANCH  13  15
HETATM   15  O1  UNL     1      22.340   3.530  49.167  1.00  0.00    -0.279 OA
BRANCH  15  16
HETATM   16  C16 UNL     1      21.937   2.722  48.079  1.00  0.00     0.418 C 
HETATM   17  F1  UNL     1      22.960   2.017  47.501  1.00  0.00    -0.169 F 
HETATM   18  F2  UNL     1      21.338   3.517  47.121  1.00  0.00    -0.169 F 
BRANCH  16  19
HETATM   19  C17 UNL     1      20.914   1.718  48.631  1.00  0.00     0.455 C 
HETATM   20  F3  UNL     1      21.533   0.544  48.996  1.00  0.00    -0.205 F 
HETATM   21  F4  UNL     1      20.243   2.266  49.704  1.00  0.00    -0.205 F 
ENDBRANCH  16  19
ENDBRANCH  15  16
ENDBRANCH  13  15
ENDBRANCH   7   9
ENDBRANCH   5   7
BRANCH   1  22
HETATM   22  C6  UNL     1      23.132  -0.094  53.340  1.00  0.00    -0.024 A 
HETATM   23  C5  UNL     1      22.256   0.310  52.444  1.00  0.00     0.025 A 
HETATM   24  C4  UNL     1      20.845  -0.023  52.517  1.00  0.00     0.007 A 
HETATM   25  C3  UNL     1      19.633   0.074  51.988  1.00  0.00     0.105 A 
HETATM   26  C21 UNL     1      20.368  -0.845  53.639  1.00  0.00     0.042 A 
HETATM   27  N2  UNL     1      19.081  -0.723  53.048  1.00  0.00    -0.354 N 
HETATM   28  C20 UNL     1      21.267  -1.227  54.511  1.00  0.00     0.008 A 
HETATM   29  C19 UNL     1      22.718  -0.926  54.500  1.00  0.00     0.070 A 
BRANCH  27  30
HETATM   30  C2  UNL     1      17.765  -1.203  53.377  1.00  0.00     0.158 C 
BRANCH  30  31
HETATM   31  C1  UNL     1      17.733  -2.693  53.582  1.00  0.00     0.286 C 
BRANCH  31  32
HETATM   32  N1  UNL     1      16.405  -3.184  53.398  1.00  0.00     0.079 N 
HETATM   33  H1  UNL     1      16.410  -4.245  53.412  1.00  0.00     0.312 HD
HETATM   34  H2  UNL     1      15.764  -2.890  54.145  1.00  0.00     0.312 HD
ENDBRANCH  31  32
ENDBRANCH  30  31
ENDBRANCH  27  30
ENDBRANCH   1  22
TORSDOF 9
ENDMDL
MODEL 5
REMARK VINA RESULT:      -8.4      3.059      3.981
REMARK  9 active torsions:
REMARK  status: ('A' for Active; 'I' for Inactive)
REMARK    1  A    between atoms: N1_1  and  C1_2 
REMARK    2  A    between atoms: C1_2  and  C2_3 
REMARK    3  A    between atoms: C2_3  and  N2_4 
REMARK    4  A    between atoms: C6_8  and  C7_9 
REMARK    5  A    between atoms: C10_13  and  N4_14 
REMARK    6  A    between atoms: N4_14  and  C11_15 
REMARK    7  A    between atoms: C15_19  and  O1_20 
REMARK    8  A    between atoms: O1_20  and  C16_21 
REMARK    9  A    between atoms: C16_21  and  C17_24 
ROOT
HETATM    1  C7  UNL     1      25.199   5.144  49.333  1.00  0.00     0.084 A 
HETATM    2  C8  UNL     1      23.987   5.149  48.680  1.00  0.00     0.052 A 
HETATM    3  C9  UNL     1      22.874   4.655  49.322  1.00  0.00     0.139 A 
HETATM    4  N3  UNL     1      23.017   4.186  50.567  1.00  0.00    -0.075 NA
HETATM    5  C10 UNL     1      24.176   4.167  51.226  1.00  0.00     0.727 A 
HETATM    6  N5  UNL     1      25.205   4.653  50.559  1.00  0.00    -0.062 NA
ENDROOT
BRANCH   5   7
HETATM    7  N4  UNL     1      24.363   3.681  52.546  1.00  0.00    -0.188 N 
HETATM    8  H11 UNL     1      24.400   4.404  53.327  1.00  0.00     0.184 HD
BRANCH   7   9
HETATM    9  C11 UNL     1      24.509   2.336  52.970  1.00  0.00     0.052 A 
HETATM   10  C12 UNL     1      25.706   1.911  53.562  1.00  0.00     0.030 A 
HETATM   11  C13 UNL     1      25.908   0.628  53.989  1.00  0.00     0.005 A 
HETATM   12  C14 UNL     1      24.930  -0.330  53.857  1.00  0.00     0.037 A 
HETATM   13  C15 UNL     1      23.741   0.044  53.283  1.00  0.00     0.077 A 
HETATM   14  C18 UNL     1      23.597   1.336  52.876  1.00  0.00     0.067 A 
BRANCH  13  15
HETATM   15  O1  UNL     1      22.752  -0.895  53.141  1.00  0.00    -0.279 OA
BRANCH  15  16
HETATM   16  C16 UNL     1      21.852  -1.114  54.209  1.00  0.00     0.418 C 
HETATM   17  F1  UNL     1      22.288  -0.624  55.412  1.00  0.00    -0.169 F 
HETATM   18  F2  UNL     1      21.615  -2.469  54.332  1.00  0.00    -0.169 F 
BRANCH  16  19
HETATM   19  C17 UNL     1      20.548  -0.391  53.840  1.00  0.00     0.455 C 
HETATM   20  F3  UNL     1      20.511   0.864  54.403  1.00  0.00    -0.205 F 
HETATM   21  F4  UNL     1      20.420  -0.313  52.470  1.00  0.00    -0.205 F 
ENDBRANCH  16  19
ENDBRANCH  15  16
ENDBRANCH  13  15
ENDBRANCH   7   9
ENDBRANCH   5   7
BRANCH   1  22
HETATM   22  C6  UNL     1      26.471   5.646  48.770  1.00  0.00    -0.024 A 
HETATM   23  C5  UNL     1      27.613   4.990  48.766  1.00  0.00     0.025 A 
HETATM   24  C4  UNL     1      28.832   5.537  48.197  1.00  0.00     0.007 A 
HETATM   25  C3  UNL     1      30.121   5.381  47.927  1.00  0.00     0.105 A 
HETATM   26  C21 UNL     1      28.796   6.880  47.599  1.00  0.00     0.042 A 
HETATM   27  N2  UNL     1      30.176   6.684  47.324  1.00  0.00    -0.354 N 
HETATM   28  C20 UNL     1      27.643   7.501  47.623  1.00  0.00     0.008 A 
HETATM   29  C19 UNL     1      26.363   7.007  48.184  1.00  0.00     0.070 A 
BRANCH  27  30
HETATM   30  C2  UNL     1      31.205   7.468  46.696  1.00  0.00     0.158 C 
BRANCH  30  31
HETATM   31  C1  UNL     1      31.705   8.575  47.585  1.00  0.00     0.286 C 
BRANCH  31  32
HETATM   32  N1  UNL     1      32.469   8.030  48.662  1.00  0.00     0.079 N 
HETATM   33  H1  UNL     1      33.376   8.572  48.767  1.00  0.00     0.312 HD
HETATM   34  H2  UNL     1      31.988   8.098  49.567  1.00  0.00     0.312 HD
ENDBRANCH  31  32
ENDBRANCH  30  31
ENDBRANCH  27  30
ENDBRANCH   1  22
TORSDOF 9
ENDMDL
MODEL 6
REMARK VINA RESULT:      -8.4      1.961      2.653
REMARK  9 active torsions:
REMARK  status: ('A' for Active; 'I' for Inactive)
REMARK    1  A    between atoms: N1_1  and  C1_2 
REMARK    2  A    between atoms: C1_2  and  C2_3 
REMARK    3  A    between atoms: C2_3  and  N2_4 
REMARK    4  A    between atoms: C6_8  and  C7_9 
REMARK    5  A    between atoms: C10_13  and  N4_14 
REMARK    6  A    between atoms: N4_14  and  C11_15 
REMARK    7  A    between atoms: C15_19  and  O1_20 
REMARK    8  A    between atoms: O1_20  and  C16_21 
REMARK    9  A    between atoms: C16_21  and  C17_24 
ROOT
HETATM    1  C7  UNL     1      23.204   2.739  49.387  1.00  0.00     0.084 A 
HETATM    2  C8  UNL     1      22.483   2.165  48.365  1.00  0.00     0.052 A 
HETATM    3  C9  UNL     1      21.529   1.217  48.662  1.00  0.00     0.139 A 
HETATM    4  N3  UNL     1      21.341   0.890  49.945  1.00  0.00    -0.075 NA
HETATM    5  C10 UNL     1      22.022   1.427  50.958  1.00  0.00     0.727 A 
HETATM    6  N5  UNL     1      22.920   2.328  50.610  1.00  0.00    -0.062 NA
ENDROOT
BRANCH   5   7
HETATM    7  N4  UNL     1      21.846   1.106  52.329  1.00  0.00    -0.188 N 
HETATM    8  H11 UNL     1      20.946   1.438  52.791  1.00  0.00     0.184 HD
BRANCH   7   9
HETATM    9  C11 UNL     1      22.725   0.389  53.180  1.00  0.00     0.052 A 
HETATM   10  C12 UNL     1      22.212  -0.463  54.165  1.00  0.00     0.030 A 
HETATM   11  C13 UNL     1      23.007  -1.178  55.017  1.00  0.00     0.005 A 
HETATM   12  C14 UNL     1      24.378  -1.095  54.949  1.00  0.00     0.037 A 
HETATM   13  C15 UNL     1      24.924  -0.272  53.996  1.00  0.00     0.077 A 
HETATM   14  C18 UNL     1      24.082   0.416  53.176  1.00  0.00     0.067 A 
BRANCH  13  15
HETATM   15  O1  UNL     1      26.289  -0.175  53.911  1.00  0.00    -0.279 OA
BRANCH  15  16
HETATM   16  C16 UNL     1      26.946  -0.687  52.769  1.00  0.00     0.418 C 
HETATM   17  F1  UNL     1      26.983   0.183  51.712  1.00  0.00    -0.169 F 
HETATM   18  F2  UNL     1      26.323  -1.855  52.373  1.00  0.00    -0.169 F 
BRANCH  16  19
HETATM   19  C17 UNL     1      28.391  -0.990  53.192  1.00  0.00     0.455 C 
HETATM   20  F3  UNL     1      28.615  -0.584  54.488  1.00  0.00    -0.205 F 
HETATM   21  F4  UNL     1      28.654  -2.337  53.054  1.00  0.00    -0.205 F 
ENDBRANCH  16  19
ENDBRANCH  15  16
ENDBRANCH  13  15
ENDBRANCH   7   9
ENDBRANCH   5   7
BRANCH   1  22
HETATM   22  C6  UNL     1      24.251   3.770  49.216  1.00  0.00    -0.024 A 
HETATM   23  C5  UNL     1      24.045   5.003  48.806  1.00  0.00     0.025 A 
HETATM   24  C4  UNL     1      25.116   5.973  48.657  1.00  0.00     0.007 A 
HETATM   25  C3  UNL     1      25.489   7.202  48.330  1.00  0.00     0.105 A 
HETATM   26  C21 UNL     1      26.492   5.563  48.976  1.00  0.00     0.042 A 
HETATM   27  N2  UNL     1      26.861   6.887  48.619  1.00  0.00    -0.354 N 
HETATM   28  C20 UNL     1      26.658   4.328  49.380  1.00  0.00     0.008 A 
HETATM   29  C19 UNL     1      25.615   3.289  49.555  1.00  0.00     0.070 A 
BRANCH  27  30
HETATM   30  C2  UNL     1      28.101   7.616  48.569  1.00  0.00     0.158 C 
BRANCH  30  31
HETATM   31  C1  UNL     1      28.876   7.343  47.309  1.00  0.00     0.286 C 
BRANCH  31  32
HETATM   32  N1  UNL     1      28.259   8.004  46.203  1.00  0.00     0.079 N 
HETATM   33  H1  UNL     1      28.367   7.413  45.328  1.00  0.00     0.312 HD
HETATM   34  H2  UNL     1      27.249   8.141  46.333  1.00  0.00     0.312 HD
ENDBRANCH  31  32
ENDBRANCH  30  31
ENDBRANCH  27  30
ENDBRANCH   1  22
TORSDOF 9
ENDMDL
MODEL 7
REMARK VINA RESULT:      -8.3      1.462      1.768
REMARK  9 active torsions:
REMARK  status: ('A' for Active; 'I' for Inactive)
REMARK    1  A    between atoms: N1_1  and  C1_2 
REMARK    2  A    between atoms: C1_2  and  C2_3 
REMARK    3  A    between atoms: C2_3  and  N2_4 
REMARK    4  A    between atoms: C6_8  and  C7_9 
REMARK    5  A    between atoms: C10_13  and  N4_14 
REMARK    6  A    between atoms: N4_14  and  C11_15 
REMARK    7  A    between atoms: C15_19  and  O1_20 
REMARK    8  A    between atoms: O1_20  and  C16_21 
REMARK    9  A    between atoms: C16_21  and  C17_24 
ROOT
HETATM    1  C7  UNL     1      23.773   5.414  50.591  1.00  0.00     0.084 A 
HETATM    2  C8  UNL     1      22.597   5.989  51.017  1.00  0.00     0.052 A 
HETATM    3  C9  UNL     1      21.573   5.181  51.457  1.00  0.00     0.139 A 
HETATM    4  N3  UNL     1      21.765   3.856  51.452  1.00  0.00    -0.075 NA
HETATM    5  C10 UNL     1      22.891   3.270  51.046  1.00  0.00     0.727 A 
HETATM    6  N5  UNL     1      23.834   4.095  50.636  1.00  0.00    -0.062 NA
ENDROOT
BRANCH   5   7
HETATM    7  N4  UNL     1      23.129   1.871  51.030  1.00  0.00    -0.188 N 
HETATM    8  H11 UNL     1      22.946   1.360  50.114  1.00  0.00     0.184 HD
BRANCH   7   9
HETATM    9  C11 UNL     1      23.587   1.049  52.091  1.00  0.00     0.052 A 
HETATM   10  C12 UNL     1      22.703   0.170  52.731  1.00  0.00     0.030 A 
HETATM   11  C13 UNL     1      23.083  -0.645  53.761  1.00  0.00     0.005 A 
HETATM   12  C14 UNL     1      24.376  -0.644  54.231  1.00  0.00     0.037 A 
HETATM   13  C15 UNL     1      25.274   0.202  53.631  1.00  0.00     0.077 A 
HETATM   14  C18 UNL     1      24.839   0.991  52.610  1.00  0.00     0.067 A 
BRANCH  13  15
HETATM   15  O1  UNL     1      26.568   0.219  54.084  1.00  0.00    -0.279 OA
BRANCH  15  16
HETATM   16  C16 UNL     1      27.626   0.101  53.154  1.00  0.00     0.418 C 
HETATM   17  F1  UNL     1      27.872   1.248  52.445  1.00  0.00    -0.169 F 
HETATM   18  F2  UNL     1      27.343  -0.924  52.272  1.00  0.00    -0.169 F 
BRANCH  16  19
HETATM   19  C17 UNL     1      28.886  -0.243  53.961  1.00  0.00     0.455 C 
HETATM   20  F3  UNL     1      28.668  -0.058  55.307  1.00  0.00    -0.205 F 
HETATM   21  F4  UNL     1      29.272  -1.542  53.707  1.00  0.00    -0.205 F 
ENDBRANCH  16  19
ENDBRANCH  15  16
ENDBRANCH  13  15
ENDBRANCH   7   9
ENDBRANCH   5   7
BRANCH   1  22
HETATM   22  C6  UNL     1      24.954   6.157  50.099  1.00  0.00    -0.024 A 
HETATM   23  C5  UNL     1      25.330   7.349  50.512  1.00  0.00     0.025 A 
HETATM   24  C4  UNL     1      26.502   8.029  49.991  1.00  0.00     0.007 A 
HETATM   25  C3  UNL     1      27.288   9.097  50.006  1.00  0.00     0.105 A 
HETATM   26  C21 UNL     1      27.306   7.363  48.956  1.00  0.00     0.042 A 
HETATM   27  N2  UNL     1      28.130   8.520  48.994  1.00  0.00    -0.354 N 
HETATM   28  C20 UNL     1      26.901   6.179  48.569  1.00  0.00     0.008 A 
HETATM   29  C19 UNL     1      25.719   5.427  49.056  1.00  0.00     0.070 A 
BRANCH  27  30
HETATM   30  C2  UNL     1      29.320   8.941  48.304  1.00  0.00     0.158 C 
BRANCH  30  31
HETATM   31  C1  UNL     1      30.464   7.982  48.497  1.00  0.00     0.286 C 
BRANCH  31  32
HETATM   32  N1  UNL     1      31.011   8.132  49.808  1.00  0.00     0.079 N 
HETATM   33  H1  UNL     1      31.420   9.106  49.916  1.00  0.00     0.312 HD
HETATM   34  H2  UNL     1      30.305   8.034  50.549  1.00  0.00     0.312 HD
ENDBRANCH  31  32
ENDBRANCH  30  31
ENDBRANCH  27  30
ENDBRANCH   1  22
TORSDOF 9
ENDMDL
MODEL 8
REMARK VINA RESULT:      -8.2      1.565      2.111
REMARK  9 active torsions:
REMARK  status: ('A' for Active; 'I' for Inactive)
REMARK    1  A    between atoms: N1_1  and  C1_2 
REMARK    2  A    between atoms: C1_2  and  C2_3 
REMARK    3  A    between atoms: C2_3  and  N2_4 
REMARK    4  A    between atoms: C6_8  and  C7_9 
REMARK    5  A    between atoms: C10_13  and  N4_14 
REMARK    6  A    between atoms: N4_14  and  C11_15 
REMARK    7  A    between atoms: C15_19  and  O1_20 
REMARK    8  A    between atoms: O1_20  and  C16_21 
REMARK    9  A    between atoms: C16_21  and  C17_24 
ROOT
HETATM    1  C7  UNL     1      25.541   5.928  48.974  1.00  0.00     0.084 A 
HETATM    2  C8  UNL     1      24.385   6.198  48.278  1.00  0.00     0.052 A 
HETATM    3  C9  UNL     1      23.169   5.880  48.841  1.00  0.00     0.139 A 
HETATM    4  N3  UNL     1      23.162   5.317  50.055  1.00  0.00    -0.075 NA
HETATM    5  C10 UNL     1      24.264   5.043  50.754  1.00  0.00     0.727 A 
HETATM    6  N5  UNL     1      25.396   5.370  50.163  1.00  0.00    -0.062 NA
ENDROOT
BRANCH   5   7
HETATM    7  N4  UNL     1      24.293   4.450  52.043  1.00  0.00    -0.188 N 
HETATM    8  H11 UNL     1      24.376   5.108  52.876  1.00  0.00     0.184 HD
BRANCH   7   9
HETATM    9  C11 UNL     1      24.225   3.072  52.374  1.00  0.00     0.052 A 
HETATM   10  C12 UNL     1      23.070   2.335  52.082  1.00  0.00     0.030 A 
HETATM   11  C13 UNL     1      22.944   1.007  52.379  1.00  0.00     0.005 A 
HETATM   12  C14 UNL     1      23.961   0.313  52.991  1.00  0.00     0.037 A 
HETATM   13  C15 UNL     1      25.111   0.997  53.294  1.00  0.00     0.077 A 
HETATM   14  C18 UNL     1      25.180   2.319  52.975  1.00  0.00     0.067 A 
BRANCH  13  15
HETATM   15  O1  UNL     1      26.138   0.325  53.904  1.00  0.00    -0.279 OA
BRANCH  15  16
HETATM   16  C16 UNL     1      27.004  -0.469  53.119  1.00  0.00     0.418 C 
HETATM   17  F1  UNL     1      27.048  -0.105  51.799  1.00  0.00    -0.169 F 
HETATM   18  F2  UNL     1      26.616  -1.792  53.211  1.00  0.00    -0.169 F 
BRANCH  16  19
HETATM   19  C17 UNL     1      28.412  -0.302  53.710  1.00  0.00     0.455 C 
HETATM   20  F3  UNL     1      29.045   0.787  53.157  1.00  0.00    -0.205 F 
HETATM   21  F4  UNL     1      28.339  -0.176  55.081  1.00  0.00    -0.205 F 
ENDBRANCH  16  19
ENDBRANCH  15  16
ENDBRANCH  13  15
ENDBRANCH   7   9
ENDBRANCH   5   7
BRANCH   1  22
HETATM   22  C6  UNL     1      26.910   6.219  48.496  1.00  0.00    -0.024 A 
HETATM   23  C5  UNL     1      27.304   7.355  47.959  1.00  0.00     0.025 A 
HETATM   24  C4  UNL     1      28.665   7.582  47.507  1.00  0.00     0.007 A 
HETATM   25  C3  UNL     1      29.551   8.402  46.958  1.00  0.00     0.105 A 
HETATM   26  C21 UNL     1      29.649   6.499  47.652  1.00  0.00     0.042 A 
HETATM   27  N2  UNL     1      30.576   7.401  47.061  1.00  0.00    -0.354 N 
HETATM   28  C20 UNL     1      29.222   5.384  48.188  1.00  0.00     0.008 A 
HETATM   29  C19 UNL     1      27.852   5.084  48.671  1.00  0.00     0.070 A 
BRANCH  27  30
HETATM   30  C2  UNL     1      31.970   7.337  46.711  1.00  0.00     0.158 C 
BRANCH  30  31
HETATM   31  C1  UNL     1      32.212   6.525  45.467  1.00  0.00     0.286 C 
BRANCH  31  32
HETATM   32  N1  UNL     1      32.674   5.220  45.817  1.00  0.00     0.079 N 
HETATM   33  H1  UNL     1      33.561   5.298  46.396  1.00  0.00     0.312 HD
HETATM   34  H2  UNL     1      32.001   4.700  46.393  1.00  0.00     0.312 HD
ENDBRANCH  31  32
ENDBRANCH  30  31
ENDBRANCH  27  30
ENDBRANCH   1  22
TORSDOF 9
ENDMDL
MODEL 9
REMARK VINA RESULT:      -8.1      4.389      9.449
REMARK  9 active torsions:
REMARK  status: ('A' for Active; 'I' for Inactive)
REMARK    1  A    between atoms: N1_1  and  C1_2 
REMARK    2  A    between atoms: C1_2  and  C2_3 
REMARK    3  A    between atoms: C2_3  and  N2_4 
REMARK    4  A    between atoms: C6_8  and  C7_9 
REMARK    5  A    between atoms: C10_13  and  N4_14 
REMARK    6  A    between atoms: N4_14  and  C11_15 
REMARK    7  A    between atoms: C15_19  and  O1_20 
REMARK    8  A    between atoms: O1_20  and  C16_21 
REMARK    9  A    between atoms: C16_21  and  C17_24 
ROOT
HETATM    1  C7  UNL     1      24.490   0.211  53.206  1.00  0.00     0.084 A 
HETATM    2  C8  UNL     1      25.339  -0.211  54.203  1.00  0.00     0.052 A 
HETATM    3  C9  UNL     1      26.686   0.053  54.098  1.00  0.00     0.139 A 
HETATM    4  N3  UNL     1      27.119   0.717  53.020  1.00  0.00    -0.075 NA
HETATM    5  C10 UNL     1      26.322   1.141  52.039  1.00  0.00     0.727 A 
HETATM    6  N5  UNL     1      25.044   0.858  52.196  1.00  0.00    -0.062 NA
ENDROOT
BRANCH   5   7
HETATM    7  N4  UNL     1      26.746   1.850  50.885  1.00  0.00    -0.188 N 
HETATM    8  H11 UNL     1      27.586   1.460  50.359  1.00  0.00     0.184 HD
BRANCH   7   9
HETATM    9  C11 UNL     1      26.190   3.030  50.329  1.00  0.00     0.052 A 
HETATM   10  C12 UNL     1      26.971   3.862  49.518  1.00  0.00     0.030 A 
HETATM   11  C13 UNL     1      26.493   5.013  48.957  1.00  0.00     0.005 A 
HETATM   12  C14 UNL     1      25.196   5.421  49.163  1.00  0.00     0.037 A 
HETATM   13  C15 UNL     1      24.395   4.634  49.951  1.00  0.00     0.077 A 
HETATM   14  C18 UNL     1      24.926   3.499  50.484  1.00  0.00     0.067 A 
BRANCH  13  15
HETATM   15  O1  UNL     1      23.098   5.022  50.169  1.00  0.00    -0.279 OA
BRANCH  15  16
HETATM   16  C16 UNL     1      22.806   5.863  51.266  1.00  0.00     0.418 C 
HETATM   17  F1  UNL     1      23.844   6.006  52.149  1.00  0.00    -0.169 F 
HETATM   18  F2  UNL     1      21.705   5.367  51.939  1.00  0.00    -0.169 F 
BRANCH  16  19
HETATM   19  C17 UNL     1      22.476   7.246  50.686  1.00  0.00     0.455 C 
HETATM   20  F3  UNL     1      21.277   7.708  51.178  1.00  0.00    -0.205 F 
HETATM   21  F4  UNL     1      23.491   8.135  50.971  1.00  0.00    -0.205 F 
ENDBRANCH  16  19
ENDBRANCH  15  16
ENDBRANCH  13  15
ENDBRANCH   7   9
ENDBRANCH   5   7
BRANCH   1  22
HETATM   22  C6  UNL     1      23.026   0.002  53.189  1.00  0.00    -0.024 A 
HETATM   23  C5  UNL     1      22.208   0.417  52.244  1.00  0.00     0.025 A 
HETATM   24  C4  UNL     1      20.776   0.181  52.284  1.00  0.00     0.007 A 
HETATM   25  C3  UNL     1      19.591   0.330  51.708  1.00  0.00     0.105 A 
HETATM   26  C21 UNL     1      20.209  -0.550  53.426  1.00  0.00     0.042 A 
HETATM   27  N2  UNL     1      18.953  -0.375  52.786  1.00  0.00    -0.354 N 
HETATM   28  C20 UNL     1      21.052  -0.946  54.347  1.00  0.00     0.008 A 
HETATM   29  C19 UNL     1      22.521  -0.741  54.372  1.00  0.00     0.070 A 
BRANCH  27  30
HETATM   30  C2  UNL     1      17.598  -0.750  53.090  1.00  0.00     0.158 C 
BRANCH  30  31
HETATM   31  C1  UNL     1      17.378  -2.235  52.987  1.00  0.00     0.286 C 
BRANCH  31  32
HETATM   32  N1  UNL     1      17.785  -2.876  54.197  1.00  0.00     0.079 N 
HETATM   33  H1  UNL     1      18.134  -3.855  53.983  1.00  0.00     0.312 HD
HETATM   34  H2  UNL     1      18.561  -2.390  54.663  1.00  0.00     0.312 HD
ENDBRANCH  31  32
ENDBRANCH  30  31
ENDBRANCH  27  30
ENDBRANCH   1  22
TORSDOF 9
ENDMDL
