MODEL 1
REMARK VINA RESULT:      -8.5      0.000      0.000
REMARK  7 active torsions:
REMARK  status: ('A' for Active; 'I' for Inactive)
REMARK    1  A    between atoms: N1_1  and  C1_2 
REMARK    2  A    between atoms: C5_8  and  C6_9 
REMARK    3  A    between atoms: C10_13  and  C11_14 
REMARK    4  A    between atoms: C11_14  and  C12_15 
REMARK    5  A    between atoms: N4_22  and  C18_23 
REMARK    6  A    between atoms: C20_25  and  C21_26 
REMARK    7  A    between atoms: C21_26  and  N5_27 
ROOT
HETATM    1  C1  UNL     1      21.826   1.820  49.036  1.00  0.00     0.137 A 
HETATM    2  N2  UNL     1      21.361   2.109  47.807  1.00  0.00    -0.224 NA
HETATM    3  C2  UNL     1      21.628   3.330  47.286  1.00  0.00     0.237 A 
HETATM    4  N3  UNL     1      22.339   4.258  47.953  1.00  0.00    -0.223 NA
HETATM    5  C3  UNL     1      22.837   4.043  49.184  1.00  0.00     0.146 A 
HETATM    6  C4  UNL     1      22.551   2.792  49.692  1.00  0.00     0.068 A 
HETATM    7  C5  UNL     1      23.099   2.661  50.950  1.00  0.00     0.008 A 
HETATM    8  C17 UNL     1      23.720   3.887  51.157  1.00  0.00     0.106 A 
HETATM    9  N4  UNL     1      23.566   4.704  50.116  1.00  0.00    -0.335 N 
ENDROOT
BRANCH   7  10
HETATM   10  C6  UNL     1      23.147   1.647  51.995  1.00  0.00    -0.023 A 
HETATM   11  C7  UNL     1      21.947   1.446  52.689  1.00  0.00     0.012 A 
HETATM   12  C8  UNL     1      21.758   0.541  53.700  1.00  0.00     0.001 A 
HETATM   13  C9  UNL     1      22.841  -0.230  54.055  1.00  0.00     0.007 A 
HETATM   14  C10 UNL     1      24.045  -0.072  53.405  1.00  0.00    -0.055 A 
HETATM   15  C16 UNL     1      24.182   0.855  52.392  1.00  0.00     0.019 A 
BRANCH  14  16
HETATM   16  C11 UNL     1      25.262  -0.855  53.719  1.00  0.00     0.070 C 
BRANCH  16  17
HETATM   17  C12 UNL     1      26.529  -0.044  53.695  1.00  0.00     0.125 C 
HETATM   18  C13 UNL     1      27.559  -0.750  52.846  1.00  0.00     0.034 C 
HETATM   19  C14 UNL     1      28.835  -0.201  53.487  1.00  0.00     0.029 C 
HETATM   20  C15 UNL     1      28.409   0.026  54.901  1.00  0.00     0.168 C 
HETATM   21  O1  UNL     1      27.030   0.017  54.975  1.00  0.00    -0.386 OA
ENDBRANCH  16  17
ENDBRANCH  14  16
ENDBRANCH   7  10
BRANCH   1  22
HETATM   22  N1  UNL     1      21.558   0.538  49.583  1.00  0.00    -0.383 N 
HETATM   23  H1  UNL     1      20.684  -0.036  49.543  1.00  0.00     0.157 HD
HETATM   24  H2  UNL     1      22.100  -0.158  50.141  1.00  0.00     0.157 HD
ENDBRANCH   1  22
BRANCH   9  25
HETATM   25  C18 UNL     1      24.044   6.059  49.914  1.00  0.00     0.092 C 
HETATM   26  C19 UNL     1      24.337   6.857  51.149  1.00  0.00     0.032 C 
HETATM   27  C20 UNL     1      25.594   7.346  50.463  1.00  0.00     0.018 C 
HETATM   28  C25 UNL     1      25.560   6.031  49.674  1.00  0.00     0.032 C 
BRANCH  27  29
HETATM   29  C21 UNL     1      25.393   8.488  49.483  1.00  0.00     0.277 C 
BRANCH  29  30
HETATM   30  N5  UNL     1      26.180   9.642  49.803  1.00  0.00     0.088 N 
HETATM   31  C22 UNL     1      26.669  10.371  48.629  1.00  0.00     0.274 C 
HETATM   32  C23 UNL     1      27.993   9.656  48.682  1.00  0.00     0.060 C 
HETATM   33  C24 UNL     1      27.565   9.303  50.096  1.00  0.00     0.274 C 
ENDBRANCH  29  30
ENDBRANCH  27  29
ENDBRANCH   9  25
TORSDOF 7
ENDMDL
MODEL 2
REMARK VINA RESULT:      -8.4      2.851      3.891
REMARK  7 active torsions:
REMARK  status: ('A' for Active; 'I' for Inactive)
REMARK    1  A    between atoms: N1_1  and  C1_2 
REMARK    2  A    between atoms: C5_8  and  C6_9 
REMARK    3  A    between atoms: C10_13  and  C11_14 
REMARK    4  A    between atoms: C11_14  and  C12_15 
REMARK    5  A    between atoms: N4_22  and  C18_23 
REMARK    6  A    between atoms: C20_25  and  C21_26 
REMARK    7  A    between atoms: C21_26  and  N5_27 
ROOT
HETATM    1  C1  UNL     1      26.269   3.219  50.221  1.00  0.00     0.137 A 
HETATM    2  N2  UNL     1      27.160   3.924  49.502  1.00  0.00    -0.224 NA
HETATM    3  C2  UNL     1      26.757   5.086  48.935  1.00  0.00     0.237 A 
HETATM    4  N3  UNL     1      25.501   5.554  49.066  1.00  0.00    -0.223 NA
HETATM    5  C3  UNL     1      24.556   4.906  49.768  1.00  0.00     0.146 A 
HETATM    6  C4  UNL     1      24.992   3.726  50.335  1.00  0.00     0.068 A 
HETATM    7  C5  UNL     1      23.962   3.133  51.034  1.00  0.00     0.008 A 
HETATM    8  C17 UNL     1      22.905   4.017  50.854  1.00  0.00     0.106 A 
HETATM    9  N4  UNL     1      23.253   5.063  50.107  1.00  0.00    -0.335 N 
ENDROOT
BRANCH   7  10
HETATM   10  C6  UNL     1      23.756   1.918  51.811  1.00  0.00    -0.023 A 
HETATM   11  C7  UNL     1      22.493   1.327  51.675  1.00  0.00     0.012 A 
HETATM   12  C8  UNL     1      22.084   0.179  52.300  1.00  0.00     0.001 A 
HETATM   13  C9  UNL     1      22.995  -0.438  53.126  1.00  0.00     0.007 A 
HETATM   14  C10 UNL     1      24.251   0.101  53.295  1.00  0.00    -0.055 A 
HETATM   15  C16 UNL     1      24.613   1.261  52.642  1.00  0.00     0.019 A 
BRANCH  14  16
HETATM   16  C11 UNL     1      25.294  -0.492  54.162  1.00  0.00     0.070 C 
BRANCH  16  17
HETATM   17  C12 UNL     1      26.682   0.011  53.874  1.00  0.00     0.125 C 
HETATM   18  C13 UNL     1      27.401  -0.982  52.992  1.00  0.00     0.034 C 
HETATM   19  C14 UNL     1      28.847  -0.673  53.388  1.00  0.00     0.029 C 
HETATM   20  C15 UNL     1      28.698  -0.227  54.807  1.00  0.00     0.168 C 
HETATM   21  O1  UNL     1      27.376   0.077  55.060  1.00  0.00    -0.386 OA
ENDBRANCH  16  17
ENDBRANCH  14  16
ENDBRANCH   7  10
BRANCH   1  22
HETATM   22  N1  UNL     1      26.689   2.005  50.826  1.00  0.00    -0.383 N 
HETATM   23  H1  UNL     1      27.554   1.798  51.377  1.00  0.00     0.157 HD
HETATM   24  H2  UNL     1      26.299   1.039  50.898  1.00  0.00     0.157 HD
ENDBRANCH   1  22
BRANCH   9  25
HETATM   25  C18 UNL     1      22.469   6.206  49.678  1.00  0.00     0.092 C 
HETATM   26  C19 UNL     1      21.061   6.281  50.185  1.00  0.00     0.032 C 
HETATM   27  C20 UNL     1      21.289   7.756  50.429  1.00  0.00     0.018 C 
HETATM   28  C25 UNL     1      22.772   7.401  50.592  1.00  0.00     0.032 C 
BRANCH  27  29
HETATM   29  C21 UNL     1      21.150   8.644  49.206  1.00  0.00     0.277 C 
BRANCH  29  30
HETATM   30  N5  UNL     1      20.435   9.856  49.475  1.00  0.00     0.088 N 
HETATM   31  C22 UNL     1      19.120   9.647  50.088  1.00  0.00     0.274 C 
HETATM   32  C23 UNL     1      18.435   9.734  48.751  1.00  0.00     0.060 C 
HETATM   33  C24 UNL     1      19.742  10.363  48.300  1.00  0.00     0.274 C 
ENDBRANCH  29  30
ENDBRANCH  27  29
ENDBRANCH   9  25
TORSDOF 7
ENDMDL
MODEL 3
REMARK VINA RESULT:      -8.1      4.220      6.817
REMARK  7 active torsions:
REMARK  status: ('A' for Active; 'I' for Inactive)
REMARK    1  A    between atoms: N1_1  and  C1_2 
REMARK    2  A    between atoms: C5_8  and  C6_9 
REMARK    3  A    between atoms: C10_13  and  C11_14 
REMARK    4  A    between atoms: C11_14  and  C12_15 
REMARK    5  A    between atoms: N4_22  and  C18_23 
REMARK    6  A    between atoms: C20_25  and  C21_26 
REMARK    7  A    between atoms: C21_26  and  N5_27 
ROOT
HETATM    1  C1  UNL     1      26.458   8.395  50.009  1.00  0.00     0.137 A 
HETATM    2  N2  UNL     1      26.969   9.623  50.211  1.00  0.00    -0.224 NA
HETATM    3  C2  UNL     1      28.198   9.900  49.715  1.00  0.00     0.237 A 
HETATM    4  N3  UNL     1      28.921   8.993  49.032  1.00  0.00    -0.223 NA
HETATM    5  C3  UNL     1      28.478   7.747  48.790  1.00  0.00     0.146 A 
HETATM    6  C4  UNL     1      27.224   7.490  49.305  1.00  0.00     0.068 A 
HETATM    7  C5  UNL     1      26.852   6.196  49.009  1.00  0.00     0.008 A 
HETATM    8  C17 UNL     1      27.940   5.707  48.297  1.00  0.00     0.106 A 
HETATM    9  N4  UNL     1      28.901   6.620  48.167  1.00  0.00    -0.335 N 
ENDROOT
BRANCH   7  10
HETATM   10  C6  UNL     1      25.713   5.325  49.267  1.00  0.00    -0.023 A 
HETATM   11  C7  UNL     1      24.557   5.618  48.531  1.00  0.00     0.012 A 
HETATM   12  C8  UNL     1      23.376   4.928  48.602  1.00  0.00     0.001 A 
HETATM   13  C9  UNL     1      23.330   3.861  49.470  1.00  0.00     0.007 A 
HETATM   14  C10 UNL     1      24.438   3.530  50.217  1.00  0.00    -0.055 A 
HETATM   15  C16 UNL     1      25.605   4.258  50.107  1.00  0.00     0.019 A 
BRANCH  14  16
HETATM   16  C11 UNL     1      24.482   2.401  51.175  1.00  0.00     0.070 C 
BRANCH  16  17
HETATM   17  C12 UNL     1      25.754   2.331  51.974  1.00  0.00     0.125 C 
HETATM   18  C13 UNL     1      26.456   1.026  51.684  1.00  0.00     0.034 C 
HETATM   19  C14 UNL     1      27.234   0.860  52.991  1.00  0.00     0.029 C 
HETATM   20  C15 UNL     1      26.344   1.542  53.980  1.00  0.00     0.168 C 
HETATM   21  O1  UNL     1      25.428   2.329  53.311  1.00  0.00    -0.386 OA
ENDBRANCH  16  17
ENDBRANCH  14  16
ENDBRANCH   7  10
BRANCH   1  22
HETATM   22  N1  UNL     1      25.165   8.102  50.518  1.00  0.00    -0.383 N 
HETATM   23  H1  UNL     1      24.585   8.628  51.212  1.00  0.00     0.157 HD
HETATM   24  H2  UNL     1      24.466   7.341  50.370  1.00  0.00     0.157 HD
ENDBRANCH   1  22
BRANCH   9  25
HETATM   25  C18 UNL     1      30.189   6.532  47.506  1.00  0.00     0.092 C 
HETATM   26  C19 UNL     1      31.376   7.016  48.284  1.00  0.00     0.032 C 
HETATM   27  C20 UNL     1      32.125   5.800  47.785  1.00  0.00     0.018 C 
HETATM   28  C25 UNL     1      30.755   5.117  47.685  1.00  0.00     0.032 C 
BRANCH  27  29
HETATM   29  C21 UNL     1      32.693   5.921  46.383  1.00  0.00     0.277 C 
BRANCH  29  30
HETATM   30  N5  UNL     1      34.085   5.586  46.315  1.00  0.00     0.088 N 
HETATM   31  C22 UNL     1      34.429   4.695  45.203  1.00  0.00     0.274 C 
HETATM   32  C23 UNL     1      34.350   3.484  46.093  1.00  0.00     0.060 C 
HETATM   33  C24 UNL     1      34.438   4.501  47.217  1.00  0.00     0.274 C 
ENDBRANCH  29  30
ENDBRANCH  27  29
ENDBRANCH   9  25
TORSDOF 7
ENDMDL
MODEL 4
REMARK VINA RESULT:      -8.1      3.730      6.641
REMARK  7 active torsions:
REMARK  status: ('A' for Active; 'I' for Inactive)
REMARK    1  A    between atoms: N1_1  and  C1_2 
REMARK    2  A    between atoms: C5_8  and  C6_9 
REMARK    3  A    between atoms: C10_13  and  C11_14 
REMARK    4  A    between atoms: C11_14  and  C12_15 
REMARK    5  A    between atoms: N4_22  and  C18_23 
REMARK    6  A    between atoms: C20_25  and  C21_26 
REMARK    7  A    between atoms: C21_26  and  N5_27 
ROOT
HETATM    1  C1  UNL     1      23.298   4.171  52.303  1.00  0.00     0.137 A 
HETATM    2  N2  UNL     1      23.471   5.441  51.896  1.00  0.00    -0.224 NA
HETATM    3  C2  UNL     1      22.463   6.045  51.222  1.00  0.00     0.237 A 
HETATM    4  N3  UNL     1      21.303   5.420  50.948  1.00  0.00    -0.223 NA
HETATM    5  C3  UNL     1      21.057   4.152  51.323  1.00  0.00     0.146 A 
HETATM    6  C4  UNL     1      22.098   3.560  52.007  1.00  0.00     0.068 A 
HETATM    7  C5  UNL     1      21.758   2.269  52.351  1.00  0.00     0.008 A 
HETATM    8  C17 UNL     1      20.473   2.131  51.841  1.00  0.00     0.106 A 
HETATM    9  N4  UNL     1      20.057   3.241  51.234  1.00  0.00    -0.335 N 
ENDROOT
BRANCH   7  10
HETATM   10  C6  UNL     1      22.384   1.143  53.033  1.00  0.00    -0.023 A 
HETATM   11  C7  UNL     1      21.551   0.436  53.909  1.00  0.00     0.012 A 
HETATM   12  C8  UNL     1      21.921  -0.658  54.646  1.00  0.00     0.001 A 
HETATM   13  C9  UNL     1      23.219  -1.092  54.505  1.00  0.00     0.007 A 
HETATM   14  C10 UNL     1      24.080  -0.432  53.656  1.00  0.00    -0.055 A 
HETATM   15  C16 UNL     1      23.656   0.666  52.937  1.00  0.00     0.019 A 
BRANCH  14  16
HETATM   16  C11 UNL     1      25.491  -0.826  53.442  1.00  0.00     0.070 C 
BRANCH  16  17
HETATM   17  C12 UNL     1      26.485   0.222  53.862  1.00  0.00     0.125 C 
HETATM   18  C13 UNL     1      27.495   0.425  52.758  1.00  0.00     0.034 C 
HETATM   19  C14 UNL     1      28.682   0.920  53.587  1.00  0.00     0.029 C 
HETATM   20  C15 UNL     1      28.467   0.228  54.894  1.00  0.00     0.168 C 
HETATM   21  O1  UNL     1      27.172  -0.245  54.959  1.00  0.00    -0.386 OA
ENDBRANCH  16  17
ENDBRANCH  14  16
ENDBRANCH   7  10
BRANCH   1  22
HETATM   22  N1  UNL     1      24.347   3.536  53.019  1.00  0.00    -0.383 N 
HETATM   23  H1  UNL     1      25.376   3.723  53.002  1.00  0.00     0.157 HD
HETATM   24  H2  UNL     1      24.405   2.760  53.715  1.00  0.00     0.157 HD
ENDBRANCH   1  22
BRANCH   9  25
HETATM   25  C18 UNL     1      18.799   3.527  50.572  1.00  0.00     0.092 C 
HETATM   26  C19 UNL     1      18.162   2.395  49.823  1.00  0.00     0.032 C 
HETATM   27  C20 UNL     1      16.838   2.828  50.411  1.00  0.00     0.018 C 
HETATM   28  C25 UNL     1      17.652   3.393  51.582  1.00  0.00     0.032 C 
BRANCH  27  29
HETATM   29  C21 UNL     1      16.165   3.991  49.703  1.00  0.00     0.277 C 
BRANCH  29  30
HETATM   30  N5  UNL     1      14.851   3.669  49.229  1.00  0.00     0.088 N 
HETATM   31  C22 UNL     1      13.943   4.818  49.171  1.00  0.00     0.274 C 
HETATM   32  C23 UNL     1      13.360   4.480  50.517  1.00  0.00     0.060 C 
HETATM   33  C24 UNL     1      14.002   3.124  50.277  1.00  0.00     0.274 C 
ENDBRANCH  29  30
ENDBRANCH  27  29
ENDBRANCH   9  25
TORSDOF 7
ENDMDL
MODEL 5
REMARK VINA RESULT:      -7.9      4.451      8.109
REMARK  7 active torsions:
REMARK  status: ('A' for Active; 'I' for Inactive)
REMARK    1  A    between atoms: N1_1  and  C1_2 
REMARK    2  A    between atoms: C5_8  and  C6_9 
REMARK    3  A    between atoms: C10_13  and  C11_14 
REMARK    4  A    between atoms: C11_14  and  C12_15 
REMARK    5  A    between atoms: N4_22  and  C18_23 
REMARK    6  A    between atoms: C20_25  and  C21_26 
REMARK    7  A    between atoms: C21_26  and  N5_27 
ROOT
HETATM    1  C1  UNL     1      20.762   3.381  52.047  1.00  0.00     0.137 A 
HETATM    2  N2  UNL     1      21.367   4.582  52.036  1.00  0.00    -0.224 NA
HETATM    3  C2  UNL     1      22.716   4.625  52.151  1.00  0.00     0.237 A 
HETATM    4  N3  UNL     1      23.465   3.514  52.274  1.00  0.00    -0.223 NA
HETATM    5  C3  UNL     1      22.932   2.279  52.293  1.00  0.00     0.146 A 
HETATM    6  C4  UNL     1      21.557   2.263  52.175  1.00  0.00     0.068 A 
HETATM    7  C5  UNL     1      21.101   0.961  52.202  1.00  0.00     0.008 A 
HETATM    8  C17 UNL     1      22.266   0.218  52.339  1.00  0.00     0.106 A 
HETATM    9  N4  UNL     1      23.348   0.993  52.393  1.00  0.00    -0.335 N 
ENDROOT
BRANCH   7  10
HETATM   10  C6  UNL     1      19.816   0.278  52.146  1.00  0.00    -0.023 A 
HETATM   11  C7  UNL     1      19.508  -0.510  53.263  1.00  0.00     0.012 A 
HETATM   12  C8  UNL     1      18.355  -1.231  53.431  1.00  0.00     0.001 A 
HETATM   13  C9  UNL     1      17.429  -1.169  52.416  1.00  0.00     0.007 A 
HETATM   14  C10 UNL     1      17.682  -0.409  51.295  1.00  0.00    -0.055 A 
HETATM   15  C16 UNL     1      18.860   0.299  51.175  1.00  0.00     0.019 A 
BRANCH  14  16
HETATM   16  C11 UNL     1      16.746  -0.283  50.154  1.00  0.00     0.070 C 
BRANCH  16  17
HETATM   17  C12 UNL     1      15.548   0.579  50.444  1.00  0.00     0.125 C 
HETATM   18  C13 UNL     1      15.970   1.760  51.285  1.00  0.00     0.034 C 
HETATM   19  C14 UNL     1      14.646   2.055  51.992  1.00  0.00     0.029 C 
HETATM   20  C15 UNL     1      14.017   0.701  52.067  1.00  0.00     0.168 C 
HETATM   21  O1  UNL     1      14.655  -0.154  51.192  1.00  0.00    -0.386 OA
ENDBRANCH  16  17
ENDBRANCH  14  16
ENDBRANCH   7  10
BRANCH   1  22
HETATM   22  N1  UNL     1      19.348   3.329  51.917  1.00  0.00    -0.383 N 
HETATM   23  H1  UNL     1      18.607   3.789  52.494  1.00  0.00     0.157 HD
HETATM   24  H2  UNL     1      18.681   2.857  51.267  1.00  0.00     0.157 HD
ENDBRANCH   1  22
BRANCH   9  25
HETATM   25  C18 UNL     1      24.747   0.635  52.531  1.00  0.00     0.092 C 
HETATM   26  C19 UNL     1      25.509   1.320  53.626  1.00  0.00     0.032 C 
HETATM   27  C20 UNL     1      26.137  -0.019  53.945  1.00  0.00     0.018 C 
HETATM   28  C25 UNL     1      24.862  -0.646  53.367  1.00  0.00     0.032 C 
BRANCH  27  29
HETATM   29  C21 UNL     1      27.301  -0.416  53.056  1.00  0.00     0.277 C 
BRANCH  29  30
HETATM   30  N5  UNL     1      28.517  -0.619  53.788  1.00  0.00     0.088 N 
HETATM   31  C22 UNL     1      28.589   0.137  55.042  1.00  0.00     0.274 C 
HETATM   32  C23 UNL     1      29.364   1.244  54.381  1.00  0.00     0.060 C 
HETATM   33  C24 UNL     1      29.606   0.211  53.294  1.00  0.00     0.274 C 
ENDBRANCH  29  30
ENDBRANCH  27  29
ENDBRANCH   9  25
TORSDOF 7
ENDMDL
MODEL 6
REMARK VINA RESULT:      -7.9      2.117      5.105
REMARK  7 active torsions:
REMARK  status: ('A' for Active; 'I' for Inactive)
REMARK    1  A    between atoms: N1_1  and  C1_2 
REMARK    2  A    between atoms: C5_8  and  C6_9 
REMARK    3  A    between atoms: C10_13  and  C11_14 
REMARK    4  A    between atoms: C11_14  and  C12_15 
REMARK    5  A    between atoms: N4_22  and  C18_23 
REMARK    6  A    between atoms: C20_25  and  C21_26 
REMARK    7  A    between atoms: C21_26  and  N5_27 
ROOT
HETATM    1  C1  UNL     1      23.794   5.116  52.040  1.00  0.00     0.137 A 
HETATM    2  N2  UNL     1      23.995   6.435  51.869  1.00  0.00    -0.224 NA
HETATM    3  C2  UNL     1      23.777   6.968  50.644  1.00  0.00     0.237 A 
HETATM    4  N3  UNL     1      23.371   6.225  49.597  1.00  0.00    -0.223 NA
HETATM    5  C3  UNL     1      23.150   4.902  49.689  1.00  0.00     0.146 A 
HETATM    6  C4  UNL     1      23.378   4.384  50.948  1.00  0.00     0.068 A 
HETATM    7  C5  UNL     1      23.126   3.028  50.949  1.00  0.00     0.008 A 
HETATM    8  C17 UNL     1      22.739   2.775  49.639  1.00  0.00     0.106 A 
HETATM    9  N4  UNL     1      22.752   3.879  48.894  1.00  0.00    -0.335 N 
ENDROOT
BRANCH   7  10
HETATM   10  C6  UNL     1      23.190   1.930  51.904  1.00  0.00    -0.023 A 
HETATM   11  C7  UNL     1      21.975   1.601  52.520  1.00  0.00     0.012 A 
HETATM   12  C8  UNL     1      21.797   0.601  53.438  1.00  0.00     0.001 A 
HETATM   13  C9  UNL     1      22.907  -0.138  53.777  1.00  0.00     0.007 A 
HETATM   14  C10 UNL     1      24.126   0.144  53.201  1.00  0.00    -0.055 A 
HETATM   15  C16 UNL     1      24.252   1.164  52.280  1.00  0.00     0.019 A 
BRANCH  14  16
HETATM   16  C11 UNL     1      25.373  -0.595  53.503  1.00  0.00     0.070 C 
BRANCH  16  17
HETATM   17  C12 UNL     1      26.539   0.293  53.840  1.00  0.00     0.125 C 
HETATM   18  C13 UNL     1      27.581   0.186  52.751  1.00  0.00     0.034 C 
HETATM   19  C14 UNL     1      28.830   0.543  53.559  1.00  0.00     0.029 C 
HETATM   20  C15 UNL     1      28.478   0.049  54.925  1.00  0.00     0.168 C 
HETATM   21  O1  UNL     1      27.117  -0.169  55.001  1.00  0.00    -0.386 OA
ENDBRANCH  16  17
ENDBRANCH  14  16
ENDBRANCH   7  10
BRANCH   1  22
HETATM   22  N1  UNL     1      24.011   4.553  53.325  1.00  0.00    -0.383 N 
HETATM   23  H1  UNL     1      24.721   3.850  53.636  1.00  0.00     0.157 HD
HETATM   24  H2  UNL     1      23.568   4.660  54.265  1.00  0.00     0.157 HD
ENDBRANCH   1  22
BRANCH   9  25
HETATM   25  C18 UNL     1      22.424   4.063  47.493  1.00  0.00     0.092 C 
HETATM   26  C19 UNL     1      21.972   2.846  46.745  1.00  0.00     0.032 C 
HETATM   27  C20 UNL     1      20.904   3.706  46.108  1.00  0.00     0.018 C 
HETATM   28  C25 UNL     1      20.981   4.570  47.373  1.00  0.00     0.032 C 
BRANCH  27  29
HETATM   29  C21 UNL     1      21.367   4.550  44.934  1.00  0.00     0.277 C 
BRANCH  29  30
HETATM   30  N5  UNL     1      20.802   4.127  43.686  1.00  0.00     0.088 N 
HETATM   31  C22 UNL     1      20.359   5.231  42.830  1.00  0.00     0.274 C 
HETATM   32  C23 UNL     1      18.944   5.105  43.325  1.00  0.00     0.060 C 
HETATM   33  C24 UNL     1      19.404   3.742  43.813  1.00  0.00     0.274 C 
ENDBRANCH  29  30
ENDBRANCH  27  29
ENDBRANCH   9  25
TORSDOF 7
ENDMDL
MODEL 7
REMARK VINA RESULT:      -7.8      4.490      8.598
REMARK  7 active torsions:
REMARK  status: ('A' for Active; 'I' for Inactive)
REMARK    1  A    between atoms: N1_1  and  C1_2 
REMARK    2  A    between atoms: C5_8  and  C6_9 
REMARK    3  A    between atoms: C10_13  and  C11_14 
REMARK    4  A    between atoms: C11_14  and  C12_15 
REMARK    5  A    between atoms: N4_22  and  C18_23 
REMARK    6  A    between atoms: C20_25  and  C21_26 
REMARK    7  A    between atoms: C21_26  and  N5_27 
ROOT
HETATM    1  C1  UNL     1      21.518   3.008  52.138  1.00  0.00     0.137 A 
HETATM    2  N2  UNL     1      21.017   4.109  51.550  1.00  0.00    -0.224 NA
HETATM    3  C2  UNL     1      19.716   4.102  51.172  1.00  0.00     0.237 A 
HETATM    4  N3  UNL     1      18.916   3.037  51.362  1.00  0.00    -0.223 NA
HETATM    5  C3  UNL     1      19.345   1.902  51.942  1.00  0.00     0.146 A 
HETATM    6  C4  UNL     1      20.672   1.935  52.319  1.00  0.00     0.068 A 
HETATM    7  C5  UNL     1      21.023   0.736  52.903  1.00  0.00     0.008 A 
HETATM    8  C17 UNL     1      19.845   0.002  52.855  1.00  0.00     0.106 A 
HETATM    9  N4  UNL     1      18.853   0.688  52.288  1.00  0.00    -0.335 N 
ENDROOT
BRANCH   7  10
HETATM   10  C6  UNL     1      22.221   0.135  53.474  1.00  0.00    -0.023 A 
HETATM   11  C7  UNL     1      22.028  -0.558  54.676  1.00  0.00     0.012 A 
HETATM   12  C8  UNL     1      23.006  -1.208  55.382  1.00  0.00     0.001 A 
HETATM   13  C9  UNL     1      24.278  -1.173  54.859  1.00  0.00     0.007 A 
HETATM   14  C10 UNL     1      24.522  -0.506  53.679  1.00  0.00    -0.055 A 
HETATM   15  C16 UNL     1      23.501   0.133  53.007  1.00  0.00     0.019 A 
BRANCH  14  16
HETATM   16  C11 UNL     1      25.856  -0.415  53.042  1.00  0.00     0.070 C 
BRANCH  16  17
HETATM   17  C12 UNL     1      26.966  -0.082  54.001  1.00  0.00     0.125 C 
HETATM   18  C13 UNL     1      27.619   1.213  53.580  1.00  0.00     0.034 C 
HETATM   19  C14 UNL     1      29.012   1.000  54.176  1.00  0.00     0.029 C 
HETATM   20  C15 UNL     1      29.161  -0.486  54.114  1.00  0.00     0.168 C 
HETATM   21  O1  UNL     1      27.924  -1.066  53.917  1.00  0.00    -0.386 OA
ENDBRANCH  16  17
ENDBRANCH  14  16
ENDBRANCH   7  10
BRANCH   1  22
HETATM   22  N1  UNL     1      22.879   3.013  52.546  1.00  0.00    -0.383 N 
HETATM   23  H1  UNL     1      23.586   3.783  52.504  1.00  0.00     0.157 HD
HETATM   24  H2  UNL     1      23.526   2.315  52.973  1.00  0.00     0.157 HD
ENDBRANCH   1  22
BRANCH   9  25
HETATM   25  C18 UNL     1      17.477   0.304  52.039  1.00  0.00     0.092 C 
HETATM   26  C19 UNL     1      17.151  -0.162  50.652  1.00  0.00     0.032 C 
HETATM   27  C20 UNL     1      16.326  -1.263  51.279  1.00  0.00     0.018 C 
HETATM   28  C25 UNL     1      17.266  -1.148  52.486  1.00  0.00     0.032 C 
BRANCH  27  29
HETATM   29  C21 UNL     1      14.934  -0.854  51.726  1.00  0.00     0.277 C 
BRANCH  29  30
HETATM   30  N5  UNL     1      13.945  -1.855  51.453  1.00  0.00     0.088 N 
HETATM   31  C22 UNL     1      12.566  -1.395  51.647  1.00  0.00     0.274 C 
HETATM   32  C23 UNL     1      12.525  -1.968  53.038  1.00  0.00     0.060 C 
HETATM   33  C24 UNL     1      13.741  -2.754  52.580  1.00  0.00     0.274 C 
ENDBRANCH  29  30
ENDBRANCH  27  29
ENDBRANCH   9  25
TORSDOF 7
ENDMDL
MODEL 8
REMARK VINA RESULT:      -7.7      3.606      8.276
REMARK  7 active torsions:
REMARK  status: ('A' for Active; 'I' for Inactive)
REMARK    1  A    between atoms: N1_1  and  C1_2 
REMARK    2  A    between atoms: C5_8  and  C6_9 
REMARK    3  A    between atoms: C10_13  and  C11_14 
REMARK    4  A    between atoms: C11_14  and  C12_15 
REMARK    5  A    between atoms: N4_22  and  C18_23 
REMARK    6  A    between atoms: C20_25  and  C21_26 
REMARK    7  A    between atoms: C21_26  and  N5_27 
ROOT
HETATM    1  C1  UNL     1      26.343   1.890  52.451  1.00  0.00     0.137 A 
HETATM    2  N2  UNL     1      26.458   0.933  53.389  1.00  0.00    -0.224 NA
HETATM    3  C2  UNL     1      25.386   0.144  53.641  1.00  0.00     0.237 A 
HETATM    4  N3  UNL     1      24.218   0.285  52.988  1.00  0.00    -0.223 NA
HETATM    5  C3  UNL     1      24.027   1.218  52.038  1.00  0.00     0.146 A 
HETATM    6  C4  UNL     1      25.133   2.008  51.800  1.00  0.00     0.068 A 
HETATM    7  C5  UNL     1      24.847   2.929  50.815  1.00  0.00     0.008 A 
HETATM    8  C17 UNL     1      23.529   2.644  50.485  1.00  0.00     0.106 A 
HETATM    9  N4  UNL     1      23.042   1.635  51.205  1.00  0.00    -0.335 N 
ENDROOT
BRANCH   7  10
HETATM   10  C6  UNL     1      25.536   4.021  50.140  1.00  0.00    -0.023 A 
HETATM   11  C7  UNL     1      24.908   5.270  50.226  1.00  0.00     0.012 A 
HETATM   12  C8  UNL     1      25.379   6.434  49.679  1.00  0.00     0.001 A 
HETATM   13  C9  UNL     1      26.568   6.361  48.989  1.00  0.00     0.007 A 
HETATM   14  C10 UNL     1      27.226   5.157  48.874  1.00  0.00    -0.055 A 
HETATM   15  C16 UNL     1      26.709   4.013  49.445  1.00  0.00     0.019 A 
BRANCH  14  16
HETATM   16  C11 UNL     1      28.508   4.983  48.153  1.00  0.00     0.070 C 
BRANCH  16  17
HETATM   17  C12 UNL     1      29.533   6.036  48.471  1.00  0.00     0.125 C 
HETATM   18  C13 UNL     1      29.855   6.816  47.219  1.00  0.00     0.034 C 
HETATM   19  C14 UNL     1      31.274   7.274  47.563  1.00  0.00     0.029 C 
HETATM   20  C15 UNL     1      31.764   6.163  48.435  1.00  0.00     0.168 C 
HETATM   21  O1  UNL     1      30.692   5.409  48.869  1.00  0.00    -0.386 OA
ENDBRANCH  16  17
ENDBRANCH  14  16
ENDBRANCH   7  10
BRANCH   1  22
HETATM   22  N1  UNL     1      27.466   2.714  52.176  1.00  0.00    -0.383 N 
HETATM   23  H1  UNL     1      28.101   2.722  51.344  1.00  0.00     0.157 HD
HETATM   24  H2  UNL     1      27.955   3.489  52.674  1.00  0.00     0.157 HD
ENDBRANCH   1  22
BRANCH   9  25
HETATM   25  C18 UNL     1      21.728   1.021  51.183  1.00  0.00     0.092 C 
HETATM   26  C19 UNL     1      20.855   1.265  52.376  1.00  0.00     0.032 C 
HETATM   27  C20 UNL     1      19.704   1.478  51.417  1.00  0.00     0.018 C 
HETATM   28  C25 UNL     1      20.762   1.918  50.397  1.00  0.00     0.032 C 
BRANCH  27  29
HETATM   29  C21 UNL     1      19.051   0.209  50.900  1.00  0.00     0.277 C 
BRANCH  29  30
HETATM   30  N5  UNL     1      17.628   0.206  51.070  1.00  0.00     0.088 N 
HETATM   31  C22 UNL     1      16.892  -0.289  49.903  1.00  0.00     0.274 C 
HETATM   32  C23 UNL     1      16.663   1.110  49.399  1.00  0.00     0.060 C 
HETATM   33  C24 UNL     1      17.037   1.511  50.816  1.00  0.00     0.274 C 
ENDBRANCH  29  30
ENDBRANCH  27  29
ENDBRANCH   9  25
TORSDOF 7
ENDMDL
MODEL 9
REMARK VINA RESULT:      -7.7      3.180      5.211
REMARK  7 active torsions:
REMARK  status: ('A' for Active; 'I' for Inactive)
REMARK    1  A    between atoms: N1_1  and  C1_2 
REMARK    2  A    between atoms: C5_8  and  C6_9 
REMARK    3  A    between atoms: C10_13  and  C11_14 
REMARK    4  A    between atoms: C11_14  and  C12_15 
REMARK    5  A    between atoms: N4_22  and  C18_23 
REMARK    6  A    between atoms: C20_25  and  C21_26 
REMARK    7  A    between atoms: C21_26  and  N5_27 
ROOT
HETATM    1  C1  UNL     1      24.087   6.308  50.857  1.00  0.00     0.137 A 
HETATM    2  N2  UNL     1      23.670   7.583  50.764  1.00  0.00    -0.224 NA
HETATM    3  C2  UNL     1      24.377   8.438  49.988  1.00  0.00     0.237 A 
HETATM    4  N3  UNL     1      25.476   8.057  49.311  1.00  0.00    -0.223 NA
HETATM    5  C3  UNL     1      25.954   6.801  49.355  1.00  0.00     0.146 A 
HETATM    6  C4  UNL     1      25.216   5.949  50.152  1.00  0.00     0.068 A 
HETATM    7  C5  UNL     1      25.776   4.689  50.134  1.00  0.00     0.008 A 
HETATM    8  C17 UNL     1      26.871   4.838  49.292  1.00  0.00     0.106 A 
HETATM    9  N4  UNL     1      26.978   6.083  48.831  1.00  0.00    -0.335 N 
ENDROOT
BRANCH   7  10
HETATM   10  C6  UNL     1      25.515   3.395  50.749  1.00  0.00    -0.023 A 
HETATM   11  C7  UNL     1      26.650   2.694  51.175  1.00  0.00     0.012 A 
HETATM   12  C8  UNL     1      26.643   1.468  51.786  1.00  0.00     0.001 A 
HETATM   13  C9  UNL     1      25.414   0.885  51.996  1.00  0.00     0.007 A 
HETATM   14  C10 UNL     1      24.266   1.531  51.596  1.00  0.00    -0.055 A 
HETATM   15  C16 UNL     1      24.329   2.766  50.984  1.00  0.00     0.019 A 
BRANCH  14  16
HETATM   16  C11 UNL     1      22.903   0.982  51.779  1.00  0.00     0.070 C 
BRANCH  16  17
HETATM   17  C12 UNL     1      22.598   0.569  53.193  1.00  0.00     0.125 C 
HETATM   18  C13 UNL     1      22.529  -0.938  53.270  1.00  0.00     0.034 C 
HETATM   19  C14 UNL     1      21.595  -1.087  54.473  1.00  0.00     0.029 C 
HETATM   20  C15 UNL     1      20.751   0.142  54.375  1.00  0.00     0.168 C 
HETATM   21  O1  UNL     1      21.354   1.051  53.529  1.00  0.00    -0.386 OA
ENDBRANCH  16  17
ENDBRANCH  14  16
ENDBRANCH   7  10
BRANCH   1  22
HETATM   22  N1  UNL     1      23.344   5.404  51.661  1.00  0.00    -0.383 N 
HETATM   23  H1  UNL     1      23.565   5.014  52.607  1.00  0.00     0.157 HD
HETATM   24  H2  UNL     1      22.436   4.899  51.562  1.00  0.00     0.157 HD
ENDBRANCH   1  22
BRANCH   9  25
HETATM   25  C18 UNL     1      27.961   6.666  47.938  1.00  0.00     0.092 C 
HETATM   26  C19 UNL     1      28.743   7.830  48.469  1.00  0.00     0.032 C 
HETATM   27  C20 UNL     1      29.976   7.208  47.851  1.00  0.00     0.018 C 
HETATM   28  C25 UNL     1      29.264   5.860  48.022  1.00  0.00     0.032 C 
BRANCH  27  29
HETATM   29  C21 UNL     1      30.152   7.461  46.364  1.00  0.00     0.277 C 
BRANCH  29  30
HETATM   30  N5  UNL     1      31.470   7.911  46.028  1.00  0.00     0.088 N 
HETATM   31  C22 UNL     1      31.567   8.525  44.700  1.00  0.00     0.274 C 
HETATM   32  C23 UNL     1      32.031   7.230  44.088  1.00  0.00     0.060 C 
HETATM   33  C24 UNL     1      32.312   6.834  45.528  1.00  0.00     0.274 C 
ENDBRANCH  29  30
ENDBRANCH  27  29
ENDBRANCH   9  25
TORSDOF 7
ENDMDL
