MODEL 1
REMARK VINA RESULT:     -10.1      0.000      0.000
REMARK  1 active torsions:
REMARK  status: ('A' for Active; 'I' for Inactive)
REMARK    1  A    between atoms: C6_7  and  C7_8 
ROOT
HETATM    1  C7  UNL     1      24.620  -0.146  53.240  1.00  0.00    -0.075 C 
HETATM    2  C8  UNL     1      23.970  -0.714  54.293  1.00  0.00    -0.022 C 
HETATM    3  C9  UNL     1      22.963  -1.179  55.252  1.00  0.00     0.043 C 
HETATM    4  C10 UNL     1      21.563  -0.723  55.028  1.00  0.00     0.108 C 
HETATM    5  N1  UNL     1      20.903  -1.173  53.833  1.00  0.00    -0.260 NA
HETATM    6  N2  UNL     1      19.620  -0.597  53.714  1.00  0.00    -0.245 NA
HETATM    7  C11 UNL     1      19.368  -0.100  52.391  1.00  0.00     0.210 C 
HETATM    8  N3  UNL     1      20.284   0.855  51.889  1.00  0.00    -0.425 NA
HETATM    9  C12 UNL     1      21.230   1.476  52.443  1.00  0.00     0.330 C 
HETATM   10  C13 UNL     1      22.304   2.460  52.244  1.00  0.00    -0.007 A 
HETATM   11  C14 UNL     1      22.036   3.835  52.152  1.00  0.00     0.126 A 
HETATM   12  N4  UNL     1      23.042   4.726  51.949  1.00  0.00    -0.272 NA
HETATM   13  C15 UNL     1      24.280   4.252  51.840  1.00  0.00     0.116 A 
HETATM   14  C16 UNL     1      24.524   2.904  51.932  1.00  0.00     0.027 A 
HETATM   15  C17 UNL     1      23.611   1.901  52.136  1.00  0.00    -0.043 A 
HETATM   16  C18 UNL     1      23.740   0.468  52.258  1.00  0.00     0.073 C 
HETATM   17  H12 UNL     1      20.751  -2.191  53.796  1.00  0.00     0.140 HD
HETATM   18  H13 UNL     1      19.589   0.198  54.371  1.00  0.00     0.142 HD
ENDROOT
BRANCH   1  19
HETATM   19  C6  UNL     1      26.112  -0.144  52.952  1.00  0.00     0.023 C 
HETATM   20  C5  UNL     1      26.540  -1.530  52.739  1.00  0.00     0.036 C 
HETATM   21  C4  UNL     1      27.922  -1.922  52.958  1.00  0.00    -0.026 C 
HETATM   22  C3  UNL     1      29.084  -1.338  53.220  1.00  0.00    -0.003 C 
HETATM   23  C2  UNL     1      29.209   0.117  53.369  1.00  0.00     0.019 C 
HETATM   24  C1  UNL     1      28.239   0.964  53.687  1.00  0.00     0.012 C 
HETATM   25 CL1  UNL     1      28.770   2.636  53.772  1.00  0.00    -0.089 Cl
HETATM   26  C19 UNL     1      26.775   0.684  53.980  1.00  0.00     0.060 C 
ENDBRANCH   1  19
TORSDOF 1
ENDMDL
MODEL 2
REMARK VINA RESULT:      -9.9      1.940      4.242
REMARK  1 active torsions:
REMARK  status: ('A' for Active; 'I' for Inactive)
REMARK    1  A    between atoms: C6_7  and  C7_8 
ROOT
HETATM    1  C7  UNL     1      24.400   1.602  52.302  1.00  0.00    -0.075 C 
HETATM    2  C8  UNL     1      24.257   2.032  51.018  1.00  0.00    -0.022 C 
HETATM    3  C9  UNL     1      23.742   2.545  49.744  1.00  0.00     0.043 C 
HETATM    4  C10 UNL     1      22.274   2.783  49.663  1.00  0.00     0.108 C 
HETATM    5  N1  UNL     1      21.720   3.803  50.512  1.00  0.00    -0.260 NA
HETATM    6  N2  UNL     1      20.316   3.858  50.388  1.00  0.00    -0.245 NA
HETATM    7  C11 UNL     1      19.661   3.935  51.663  1.00  0.00     0.210 C 
HETATM    8  N3  UNL     1      19.942   2.896  52.582  1.00  0.00    -0.425 NA
HETATM    9  C12 UNL     1      20.566   1.810  52.449  1.00  0.00     0.330 C 
HETATM   10  C13 UNL     1      21.018   0.590  53.133  1.00  0.00    -0.007 A 
HETATM   11  C14 UNL     1      20.135  -0.460  53.427  1.00  0.00     0.126 A 
HETATM   12  N4  UNL     1      20.570  -1.572  54.077  1.00  0.00    -0.272 NA
HETATM   13  C15 UNL     1      21.853  -1.628  54.423  1.00  0.00     0.116 A 
HETATM   14  C16 UNL     1      22.703  -0.591  54.128  1.00  0.00     0.027 A 
HETATM   15  C17 UNL     1      22.402   0.580  53.480  1.00  0.00    -0.043 A 
HETATM   16  C18 UNL     1      23.195   1.727  53.107  1.00  0.00     0.073 C 
HETATM   17  H12 UNL     1      22.052   4.753  50.296  1.00  0.00     0.140 HD
HETATM   18  H13 UNL     1      20.023   2.983  49.926  1.00  0.00     0.142 HD
ENDROOT
BRANCH   1  19
HETATM   19  C6  UNL     1      25.656   1.088  52.983  1.00  0.00     0.023 C 
HETATM   20  C5  UNL     1      26.439   2.244  53.433  1.00  0.00     0.036 C 
HETATM   21  C4  UNL     1      27.874   2.134  53.636  1.00  0.00    -0.026 C 
HETATM   22  C3  UNL     1      28.800   1.184  53.647  1.00  0.00    -0.003 C 
HETATM   23  C2  UNL     1      28.472  -0.227  53.403  1.00  0.00     0.019 C 
HETATM   24  C1  UNL     1      27.411  -0.689  52.756  1.00  0.00     0.012 C 
HETATM   25 CL1  UNL     1      27.358  -2.443  52.663  1.00  0.00    -0.089 Cl
HETATM   26  C19 UNL     1      26.273   0.076  52.102  1.00  0.00     0.060 C 
ENDBRANCH   1  19
TORSDOF 1
ENDMDL
MODEL 3
REMARK VINA RESULT:      -9.2      1.493      4.334
REMARK  1 active torsions:
REMARK  status: ('A' for Active; 'I' for Inactive)
REMARK    1  A    between atoms: C6_7  and  C7_8 
ROOT
HETATM    1  C7  UNL     1      25.963   2.302  51.602  1.00  0.00    -0.075 C 
HETATM    2  C8  UNL     1      25.884   2.940  50.403  1.00  0.00    -0.022 C 
HETATM    3  C9  UNL     1      25.461   3.740  49.248  1.00  0.00     0.043 C 
HETATM    4  C10 UNL     1      24.087   4.312  49.297  1.00  0.00     0.108 C 
HETATM    5  N1  UNL     1      23.812   5.292  50.313  1.00  0.00    -0.260 NA
HETATM    6  N2  UNL     1      22.456   5.679  50.290  1.00  0.00    -0.245 NA
HETATM    7  C11 UNL     1      21.877   5.709  51.604  1.00  0.00     0.210 C 
HETATM    8  N3  UNL     1      21.938   4.508  52.350  1.00  0.00    -0.425 NA
HETATM    9  C12 UNL     1      22.289   3.343  52.028  1.00  0.00     0.330 C 
HETATM   10  C13 UNL     1      22.468   1.963  52.505  1.00  0.00    -0.007 A 
HETATM   11  C14 UNL     1      21.374   1.108  52.708  1.00  0.00     0.126 A 
HETATM   12  N4  UNL     1      21.560  -0.158  53.169  1.00  0.00    -0.272 NA
HETATM   13  C15 UNL     1      22.805  -0.552  53.419  1.00  0.00     0.116 A 
HETATM   14  C16 UNL     1      23.863   0.299  53.215  1.00  0.00     0.027 A 
HETATM   15  C17 UNL     1      23.821   1.591  52.756  1.00  0.00    -0.043 A 
HETATM   16  C18 UNL     1      24.846   2.573  52.495  1.00  0.00     0.073 C 
HETATM   17  H12 UNL     1      24.349   6.164  50.209  1.00  0.00     0.140 HD
HETATM   18  H13 UNL     1      21.954   4.972  49.731  1.00  0.00     0.142 HD
ENDROOT
BRANCH   1  19
HETATM   19  C6  UNL     1      27.087   1.423  52.122  1.00  0.00     0.023 C 
HETATM   20  C5  UNL     1      26.747   0.026  51.834  1.00  0.00     0.036 C 
HETATM   21  C4  UNL     1      27.313  -1.054  52.625  1.00  0.00    -0.026 C 
HETATM   22  C3  UNL     1      28.230  -1.210  53.570  1.00  0.00    -0.003 C 
HETATM   23  C2  UNL     1      29.000  -0.078  54.103  1.00  0.00     0.019 C 
HETATM   24  C1  UNL     1      28.647   1.199  54.074  1.00  0.00     0.012 C 
HETATM   25 CL1  UNL     1      29.830   2.269  54.811  1.00  0.00    -0.089 Cl
HETATM   26  C19 UNL     1      27.391   1.838  53.507  1.00  0.00     0.060 C 
ENDBRANCH   1  19
TORSDOF 1
ENDMDL
MODEL 4
REMARK VINA RESULT:      -9.0      2.383      5.388
REMARK  1 active torsions:
REMARK  status: ('A' for Active; 'I' for Inactive)
REMARK    1  A    between atoms: C6_7  and  C7_8 
ROOT
HETATM    1  C7  UNL     1      23.597   2.838  51.723  1.00  0.00    -0.075 C 
HETATM    2  C8  UNL     1      22.492   2.345  51.101  1.00  0.00    -0.022 C 
HETATM    3  C9  UNL     1      21.332   1.543  50.697  1.00  0.00     0.043 C 
HETATM    4  C10 UNL     1      21.118   0.260  51.423  1.00  0.00     0.108 C 
HETATM    5  N1  UNL     1      20.813   0.336  52.826  1.00  0.00    -0.260 NA
HETATM    6  N2  UNL     1      20.721  -0.952  53.395  1.00  0.00    -0.245 NA
HETATM    7  C11 UNL     1      21.429  -1.048  54.640  1.00  0.00     0.210 C 
HETATM    8  N3  UNL     1      22.805  -0.720  54.612  1.00  0.00    -0.425 NA
HETATM    9  C12 UNL     1      23.587  -0.484  53.654  1.00  0.00     0.330 C 
HETATM   10  C13 UNL     1      24.967  -0.135  53.284  1.00  0.00    -0.007 A 
HETATM   11  C14 UNL     1      26.002  -1.082  53.324  1.00  0.00     0.126 A 
HETATM   12  N4  UNL     1      27.275  -0.733  52.996  1.00  0.00    -0.272 NA
HETATM   13  C15 UNL     1      27.502   0.528  52.640  1.00  0.00     0.116 A 
HETATM   14  C16 UNL     1      26.477   1.441  52.607  1.00  0.00     0.027 A 
HETATM   15  C17 UNL     1      25.156   1.228  52.908  1.00  0.00    -0.043 A 
HETATM   16  C18 UNL     1      23.998   2.089  52.905  1.00  0.00     0.073 C 
HETATM   17  H12 UNL     1      19.915   0.793  53.034  1.00  0.00     0.140 HD
HETATM   18  H13 UNL     1      21.155  -1.605  52.724  1.00  0.00     0.142 HD
ENDROOT
BRANCH   1  19
HETATM   19  C6  UNL     1      24.392   4.083  51.372  1.00  0.00     0.023 C 
HETATM   20  C5  UNL     1      23.604   5.256  51.765  1.00  0.00     0.036 C 
HETATM   21  C4  UNL     1      23.818   6.542  51.123  1.00  0.00    -0.026 C 
HETATM   22  C3  UNL     1      24.671   7.088  50.265  1.00  0.00    -0.003 C 
HETATM   23  C2  UNL     1      25.787   6.330  49.687  1.00  0.00     0.019 C 
HETATM   24  C1  UNL     1      25.869   5.012  49.570  1.00  0.00     0.012 C 
HETATM   25 CL1  UNL     1      27.363   4.467  48.824  1.00  0.00    -0.089 Cl
HETATM   26  C19 UNL     1      24.868   3.945  49.981  1.00  0.00     0.060 C 
ENDBRANCH   1  19
TORSDOF 1
ENDMDL
MODEL 5
REMARK VINA RESULT:      -8.7      3.153      5.875
REMARK  1 active torsions:
REMARK  status: ('A' for Active; 'I' for Inactive)
REMARK    1  A    between atoms: C6_7  and  C7_8 
ROOT
HETATM    1  C7  UNL     1      24.658   3.183  52.128  1.00  0.00    -0.075 C 
HETATM    2  C8  UNL     1      25.551   3.316  51.109  1.00  0.00    -0.022 C 
HETATM    3  C9  UNL     1      26.326   3.786  49.956  1.00  0.00     0.043 C 
HETATM    4  C10 UNL     1      25.855   5.036  49.297  1.00  0.00     0.108 C 
HETATM    5  N1  UNL     1      25.908   6.251  50.065  1.00  0.00    -0.260 NA
HETATM    6  N2  UNL     1      25.355   7.331  49.345  1.00  0.00    -0.245 NA
HETATM    7  C11 UNL     1      24.462   8.117  50.148  1.00  0.00     0.210 C 
HETATM    8  N3  UNL     1      23.375   7.432  50.741  1.00  0.00    -0.425 NA
HETATM    9  C12 UNL     1      22.945   6.258  50.589  1.00  0.00     0.330 C 
HETATM   10  C13 UNL     1      21.925   5.286  51.008  1.00  0.00    -0.007 A 
HETATM   11  C14 UNL     1      20.601   5.363  50.547  1.00  0.00     0.126 A 
HETATM   12  N4  UNL     1      19.669   4.464  50.962  1.00  0.00    -0.272 NA
HETATM   13  C15 UNL     1      20.053   3.518  51.814  1.00  0.00     0.116 A 
HETATM   14  C16 UNL     1      21.352   3.459  52.254  1.00  0.00     0.027 A 
HETATM   15  C17 UNL     1      22.388   4.292  51.919  1.00  0.00    -0.043 A 
HETATM   16  C18 UNL     1      23.780   4.330  52.301  1.00  0.00     0.073 C 
HETATM   17  H12 UNL     1      26.862   6.546  50.314  1.00  0.00     0.140 HD
HETATM   18  H13 UNL     1      24.816   6.923  48.565  1.00  0.00     0.142 HD
ENDROOT
BRANCH   1  19
HETATM   19  C6  UNL     1      24.528   2.036  53.115  1.00  0.00     0.023 C 
HETATM   20  C5  UNL     1      25.810   1.881  53.810  1.00  0.00     0.036 C 
HETATM   21  C4  UNL     1      26.183   0.609  54.404  1.00  0.00    -0.026 C 
HETATM   22  C3  UNL     1      25.627  -0.572  54.639  1.00  0.00    -0.003 C 
HETATM   23  C2  UNL     1      24.240  -0.870  54.259  1.00  0.00     0.019 C 
HETATM   24  C1  UNL     1      23.529  -0.256  53.323  1.00  0.00     0.012 C 
HETATM   25 CL1  UNL     1      21.900  -0.889  53.153  1.00  0.00    -0.089 Cl
HETATM   26  C19 UNL     1      23.930   0.887  52.405  1.00  0.00     0.060 C 
ENDBRANCH   1  19
TORSDOF 1
ENDMDL
MODEL 6
REMARK VINA RESULT:      -8.4      3.540      7.024
REMARK  1 active torsions:
REMARK  status: ('A' for Active; 'I' for Inactive)
REMARK    1  A    between atoms: C6_7  and  C7_8 
ROOT
HETATM    1  C7  UNL     1      21.772   2.399  52.097  1.00  0.00    -0.075 C 
HETATM    2  C8  UNL     1      21.901   3.752  52.158  1.00  0.00    -0.022 C 
HETATM    3  C9  UNL     1      22.397   5.132  52.110  1.00  0.00     0.043 C 
HETATM    4  C10 UNL     1      23.845   5.314  51.814  1.00  0.00     0.108 C 
HETATM    5  N1  UNL     1      24.313   4.903  50.518  1.00  0.00    -0.260 NA
HETATM    6  N2  UNL     1      25.712   5.057  50.413  1.00  0.00    -0.245 NA
HETATM    7  C11 UNL     1      26.342   3.906  49.829  1.00  0.00     0.210 C 
HETATM    8  N3  UNL     1      26.123   2.668  50.478  1.00  0.00    -0.425 NA
HETATM    9  C12 UNL     1      25.579   2.387  51.578  1.00  0.00     0.330 C 
HETATM   10  C13 UNL     1      25.205   1.299  52.493  1.00  0.00    -0.007 A 
HETATM   11  C14 UNL     1      26.156   0.653  53.297  1.00  0.00     0.126 A 
HETATM   12  N4  UNL     1      25.792  -0.364  54.123  1.00  0.00    -0.272 NA
HETATM   13  C15 UNL     1      24.512  -0.723  54.140  1.00  0.00     0.116 A 
HETATM   14  C16 UNL     1      23.595  -0.081  53.345  1.00  0.00     0.027 A 
HETATM   15  C17 UNL     1      23.821   0.954  52.474  1.00  0.00    -0.043 A 
HETATM   16  C18 UNL     1      22.954   1.710  51.602  1.00  0.00     0.073 C 
HETATM   17  H12 UNL     1      23.918   5.447  49.739  1.00  0.00     0.140 HD
HETATM   18  H13 UNL     1      26.072   5.172  51.373  1.00  0.00     0.142 HD
ENDROOT
BRANCH   1  19
HETATM   19  C6  UNL     1      20.546   1.560  52.415  1.00  0.00     0.023 C 
HETATM   20  C5  UNL     1      20.773   0.882  53.695  1.00  0.00     0.036 C 
HETATM   21  C4  UNL     1      20.068  -0.346  54.019  1.00  0.00    -0.026 C 
HETATM   22  C3  UNL     1      19.090  -1.086  53.514  1.00  0.00    -0.003 C 
HETATM   23  C2  UNL     1      18.398  -0.720  52.272  1.00  0.00     0.019 C 
HETATM   24  C1  UNL     1      18.867   0.061  51.308  1.00  0.00     0.012 C 
HETATM   25 CL1  UNL     1      17.748   0.271  49.971  1.00  0.00    -0.089 Cl
HETATM   26  C19 UNL     1      20.206   0.773  51.212  1.00  0.00     0.060 C 
ENDBRANCH   1  19
TORSDOF 1
ENDMDL
MODEL 7
REMARK VINA RESULT:      -8.3      2.606      4.073
REMARK  1 active torsions:
REMARK  status: ('A' for Active; 'I' for Inactive)
REMARK    1  A    between atoms: C6_7  and  C7_8 
ROOT
HETATM    1  C7  UNL     1      23.104   1.990  51.779  1.00  0.00    -0.075 C 
HETATM    2  C8  UNL     1      21.933   2.404  52.335  1.00  0.00    -0.022 C 
HETATM    3  C9  UNL     1      20.616   2.999  52.588  1.00  0.00     0.043 C 
HETATM    4  C10 UNL     1      20.035   3.827  51.494  1.00  0.00     0.108 C 
HETATM    5  N1  UNL     1      19.705   3.161  50.263  1.00  0.00    -0.260 NA
HETATM    6  N2  UNL     1      19.245   4.081  49.298  1.00  0.00    -0.245 NA
HETATM    7  C11 UNL     1      19.850   3.868  48.013  1.00  0.00     0.210 C 
HETATM    8  N3  UNL     1      21.264   3.910  47.965  1.00  0.00    -0.425 NA
HETATM    9  C12 UNL     1      22.118   4.243  48.827  1.00  0.00     0.330 C 
HETATM   10  C13 UNL     1      23.555   4.395  49.103  1.00  0.00    -0.007 A 
HETATM   11  C14 UNL     1      24.293   5.474  48.591  1.00  0.00     0.126 A 
HETATM   12  N4  UNL     1      25.624   5.585  48.843  1.00  0.00    -0.272 NA
HETATM   13  C15 UNL     1      26.198   4.642  49.584  1.00  0.00     0.116 A 
HETATM   14  C16 UNL     1      25.461   3.593  50.075  1.00  0.00     0.027 A 
HETATM   15  C17 UNL     1      24.120   3.358  49.903  1.00  0.00    -0.043 A 
HETATM   16  C18 UNL     1      23.239   2.314  50.367  1.00  0.00     0.073 C 
HETATM   17  H12 UNL     1      18.956   2.461  50.354  1.00  0.00     0.140 HD
HETATM   18  H13 UNL     1      19.513   5.021  49.630  1.00  0.00     0.142 HD
ENDROOT
BRANCH   1  19
HETATM   19  C6  UNL     1      24.220   1.193  52.432  1.00  0.00     0.023 C 
HETATM   20  C5  UNL     1      23.634  -0.009  53.035  1.00  0.00     0.036 C 
HETATM   21  C4  UNL     1      24.296  -0.684  54.138  1.00  0.00    -0.026 C 
HETATM   22  C3  UNL     1      25.451  -0.617  54.787  1.00  0.00    -0.003 C 
HETATM   23  C2  UNL     1      26.488   0.360  54.432  1.00  0.00     0.019 C 
HETATM   24  C1  UNL     1      26.306   1.506  53.791  1.00  0.00     0.012 C 
HETATM   25 CL1  UNL     1      27.789   2.415  53.545  1.00  0.00    -0.089 Cl
HETATM   26  C19 UNL     1      25.020   2.119  53.259  1.00  0.00     0.060 C 
ENDBRANCH   1  19
TORSDOF 1
ENDMDL
MODEL 8
REMARK VINA RESULT:      -8.3      3.611      7.612
REMARK  1 active torsions:
REMARK  status: ('A' for Active; 'I' for Inactive)
REMARK    1  A    between atoms: C6_7  and  C7_8 
ROOT
HETATM    1  C7  UNL     1      20.668   0.940  51.653  1.00  0.00    -0.075 C 
HETATM    2  C8  UNL     1      20.803   2.294  51.680  1.00  0.00    -0.022 C 
HETATM    3  C9  UNL     1      21.312   3.666  51.783  1.00  0.00     0.043 C 
HETATM    4  C10 UNL     1      22.734   3.823  52.197  1.00  0.00     0.108 C 
HETATM    5  N1  UNL     1      23.743   3.317  51.307  1.00  0.00    -0.260 NA
HETATM    6  N2  UNL     1      25.030   3.461  51.867  1.00  0.00    -0.245 NA
HETATM    7  C11 UNL     1      25.819   2.269  51.727  1.00  0.00     0.210 C 
HETATM    8  N3  UNL     1      25.275   1.082  52.273  1.00  0.00    -0.425 NA
HETATM    9  C12 UNL     1      24.266   0.885  53.000  1.00  0.00     0.330 C 
HETATM   10  C13 UNL     1      23.465  -0.133  53.697  1.00  0.00    -0.007 A 
HETATM   11  C14 UNL     1      23.900  -0.719  54.895  1.00  0.00     0.126 A 
HETATM   12  N4  UNL     1      23.152  -1.671  55.514  1.00  0.00    -0.272 NA
HETATM   13  C15 UNL     1      22.004  -2.026  54.945  1.00  0.00     0.116 A 
HETATM   14  C16 UNL     1      21.595  -1.443  53.772  1.00  0.00     0.027 A 
HETATM   15  C17 UNL     1      22.243  -0.476  53.047  1.00  0.00    -0.043 A 
HETATM   16  C18 UNL     1      21.918   0.215  51.821  1.00  0.00     0.073 C 
HETATM   17  H12 UNL     1      23.782   3.802  50.400  1.00  0.00     0.140 HD
HETATM   18  H13 UNL     1      24.899   3.645  52.873  1.00  0.00     0.142 HD
ENDROOT
BRANCH   1  19
HETATM   19  C6  UNL     1      19.408   0.129  51.405  1.00  0.00     0.023 C 
HETATM   20  C5  UNL     1      18.635   0.793  50.351  1.00  0.00     0.036 C 
HETATM   21  C4  UNL     1      17.200   0.593  50.245  1.00  0.00    -0.026 C 
HETATM   22  C3  UNL     1      16.266  -0.169  50.797  1.00  0.00    -0.003 C 
HETATM   23  C2  UNL     1      16.581  -1.158  51.836  1.00  0.00     0.019 C 
HETATM   24  C1  UNL     1      17.637  -1.151  52.637  1.00  0.00     0.012 C 
HETATM   25 CL1  UNL     1      17.676  -2.504  53.758  1.00  0.00    -0.089 Cl
HETATM   26  C19 UNL     1      18.782  -0.154  52.712  1.00  0.00     0.060 C 
ENDBRANCH   1  19
TORSDOF 1
ENDMDL
MODEL 9
REMARK VINA RESULT:      -8.3      5.145      8.021
REMARK  1 active torsions:
REMARK  status: ('A' for Active; 'I' for Inactive)
REMARK    1  A    between atoms: C6_7  and  C7_8 
ROOT
HETATM    1  C7  UNL     1      24.770   5.020  50.393  1.00  0.00    -0.075 C 
HETATM    2  C8  UNL     1      25.838   4.858  49.566  1.00  0.00    -0.022 C 
HETATM    3  C9  UNL     1      26.994   5.064  48.687  1.00  0.00     0.043 C 
HETATM    4  C10 UNL     1      27.330   6.474  48.342  1.00  0.00     0.108 C 
HETATM    5  N1  UNL     1      27.753   7.336  49.412  1.00  0.00    -0.260 NA
HETATM    6  N2  UNL     1      27.955   8.654  48.952  1.00  0.00    -0.245 NA
HETATM    7  C11 UNL     1      27.364   9.630  49.824  1.00  0.00     0.210 C 
HETATM    8  N3  UNL     1      25.976   9.499  50.071  1.00  0.00    -0.425 NA
HETATM    9  C12 UNL     1      25.103   8.754  49.554  1.00  0.00     0.330 C 
HETATM   10  C13 UNL     1      23.682   8.378  49.564  1.00  0.00    -0.007 A 
HETATM   11  C14 UNL     1      22.699   9.196  48.985  1.00  0.00     0.126 A 
HETATM   12  N4  UNL     1      21.388   8.838  49.022  1.00  0.00    -0.272 NA
HETATM   13  C15 UNL     1      21.072   7.696  49.624  1.00  0.00     0.116 A 
HETATM   14  C16 UNL     1      22.046   6.909  50.187  1.00  0.00     0.027 A 
HETATM   15  C17 UNL     1      23.397   7.144  50.220  1.00  0.00    -0.043 A 
HETATM   16  C18 UNL     1      24.509   6.402  50.764  1.00  0.00     0.073 C 
HETATM   17  H12 UNL     1      28.644   7.057  49.846  1.00  0.00     0.140 HD
HETATM   18  H13 UNL     1      27.495   8.721  48.031  1.00  0.00     0.142 HD
ENDROOT
BRANCH   1  19
HETATM   19  C6  UNL     1      23.889   3.945  51.007  1.00  0.00     0.023 C 
HETATM   20  C5  UNL     1      24.340   3.714  52.383  1.00  0.00     0.036 C 
HETATM   21  C4  UNL     1      24.080   2.447  53.046  1.00  0.00    -0.026 C 
HETATM   22  C3  UNL     1      23.393   1.336  52.818  1.00  0.00    -0.003 C 
HETATM   23  C2  UNL     1      22.606   1.144  51.593  1.00  0.00     0.019 C 
HETATM   24  C1  UNL     1      22.783   1.767  50.436  1.00  0.00     0.012 C 
HETATM   25 CL1  UNL     1      21.642   1.275  49.194  1.00  0.00    -0.089 Cl
HETATM   26  C19 UNL     1      23.813   2.818  50.056  1.00  0.00     0.060 C 
ENDBRANCH   1  19
TORSDOF 1
ENDMDL
