MODEL 1
REMARK VINA RESULT:      -8.1      0.000      0.000
REMARK  6 active torsions:
REMARK  status: ('A' for Active; 'I' for Inactive)
REMARK    1  A    between atoms: O1_2  and  C2_3 
REMARK    2  A    between atoms: C4_5  and  N1_6 
REMARK    3  A    between atoms: N1_6  and  C5_7 
REMARK    4  A    between atoms: C15_20  and  O3_21 
REMARK    5  A    between atoms: O3_21  and  C16_22 
REMARK    6  A    between atoms: C16_22  and  O4_23 
ROOT
HETATM    1  N1  UNL     1      24.670   1.627  51.473  1.00  0.00    -0.382 N 
HETATM    2  H5  UNL     1      24.197   1.293  50.629  1.00  0.00     0.160 HD
ENDROOT
BRANCH   1   3
HETATM    3  C4  UNL     1      25.227   0.698  52.391  1.00  0.00     0.036 A 
HETATM    4  C3  UNL     1      24.563   0.136  53.458  1.00  0.00     0.087 A 
HETATM    5  C2  UNL     1      25.143  -0.768  54.323  1.00  0.00     0.168 A 
HETATM    6  N4  UNL     1      26.441  -1.125  54.113  1.00  0.00    -0.200 NA
HETATM    7  C15 UNL     1      27.146  -0.610  53.085  1.00  0.00     0.171 A 
HETATM    8  C14 UNL     1      26.534   0.291  52.240  1.00  0.00     0.087 A 
BRANCH   5   9
HETATM    9  O1  UNL     1      24.391  -1.280  55.371  1.00  0.00    -0.339 OA
HETATM   10  C1  UNL     1      22.981  -1.285  55.295  1.00  0.00     0.211 C 
ENDBRANCH   5   9
BRANCH   7  11
HETATM   11  O3  UNL     1      28.469  -0.948  52.838  1.00  0.00    -0.309 OA
BRANCH  11  12
HETATM   12  C16 UNL     1      29.033  -2.142  53.357  1.00  0.00     0.343 C 
BRANCH  12  13
HETATM   13  O4  UNL     1      28.341  -3.230  52.845  1.00  0.00    -0.377 OA
HETATM   14  H20 UNL     1      27.481  -3.293  53.369  1.00  0.00     0.212 HD
ENDBRANCH  12  13
ENDBRANCH  11  12
ENDBRANCH   7  11
ENDBRANCH   1   3
BRANCH   1  15
HETATM   15  C5  UNL     1      24.739   3.081  51.673  1.00  0.00     0.119 C 
HETATM   16  C6  UNL     1      23.683   3.530  52.588  1.00  0.00     0.200 C 
HETATM   17  O2  UNL     1      22.608   4.253  52.007  1.00  0.00    -0.360 OA
HETATM   18  C7  UNL     1      22.684   5.570  51.563  1.00  0.00     0.141 C 
HETATM   19  C8  UNL     1      23.720   5.983  50.807  1.00  0.00    -0.032 C 
HETATM   20  C9  UNL     1      23.692   7.431  50.389  1.00  0.00     0.050 C 
HETATM   21  C10 UNL     1      24.887   5.212  50.321  1.00  0.00    -0.022 A 
HETATM   22  C11 UNL     1      25.828   6.049  49.845  1.00  0.00     0.117 A 
HETATM   23  C13 UNL     1      24.945   3.771  50.377  1.00  0.00     0.087 A 
HETATM   24  N2  UNL     1      27.027   5.490  49.330  1.00  0.00    -0.289 N 
HETATM   25  N3  UNL     1      27.230   4.088  49.317  1.00  0.00    -0.191 NA
HETATM   26  H14 UNL     1      27.830   6.008  48.935  1.00  0.00     0.188 HD
HETATM   27  C12 UNL     1      26.275   3.344  49.794  1.00  0.00     0.123 A 
ENDBRANCH   1  15
TORSDOF 6
ENDMDL
MODEL 2
REMARK VINA RESULT:      -8.0      3.457      5.637
REMARK  6 active torsions:
REMARK  status: ('A' for Active; 'I' for Inactive)
REMARK    1  A    between atoms: O1_2  and  C2_3 
REMARK    2  A    between atoms: C4_5  and  N1_6 
REMARK    3  A    between atoms: N1_6  and  C5_7 
REMARK    4  A    between atoms: C15_20  and  O3_21 
REMARK    5  A    between atoms: O3_21  and  C16_22 
REMARK    6  A    between atoms: C16_22  and  O4_23 
ROOT
HETATM    1  N1  UNL     1      23.629   1.716  53.097  1.00  0.00    -0.382 N 
HETATM    2  H5  UNL     1      23.328   2.632  53.442  1.00  0.00     0.160 HD
ENDROOT
BRANCH   1   3
HETATM    3  C4  UNL     1      24.962   1.278  53.307  1.00  0.00     0.036 A 
HETATM    4  C3  UNL     1      26.030   2.092  53.615  1.00  0.00     0.087 A 
HETATM    5  C2  UNL     1      27.310   1.622  53.818  1.00  0.00     0.168 A 
HETATM    6  N4  UNL     1      27.534   0.282  53.707  1.00  0.00    -0.200 NA
HETATM    7  C15 UNL     1      26.530  -0.567  53.408  1.00  0.00     0.171 A 
HETATM    8  C14 UNL     1      25.262  -0.062  53.213  1.00  0.00     0.087 A 
BRANCH   5   9
HETATM    9  O1  UNL     1      28.321   2.522  54.124  1.00  0.00    -0.339 OA
HETATM   10  C1  UNL     1      29.582   2.052  54.551  1.00  0.00     0.211 C 
ENDBRANCH   5   9
BRANCH   7  11
HETATM   11  O3  UNL     1      26.717  -1.937  53.287  1.00  0.00    -0.309 OA
BRANCH  11  12
HETATM   12  C16 UNL     1      27.834  -2.469  52.593  1.00  0.00     0.343 C 
BRANCH  12  13
HETATM   13  O4  UNL     1      28.472  -3.397  53.404  1.00  0.00    -0.377 OA
HETATM   14  H20 UNL     1      29.435  -3.420  53.107  1.00  0.00     0.212 HD
ENDBRANCH  12  13
ENDBRANCH  11  12
ENDBRANCH   7  11
ENDBRANCH   1   3
BRANCH   1  15
HETATM   15  C5  UNL     1      22.627   0.904  52.392  1.00  0.00     0.119 C 
HETATM   16  C6  UNL     1      22.456   1.374  51.011  1.00  0.00     0.200 C 
HETATM   17  O2  UNL     1      21.245   2.058  50.721  1.00  0.00    -0.360 OA
HETATM   18  C7  UNL     1      20.001   1.450  50.593  1.00  0.00     0.141 C 
HETATM   19  C8  UNL     1      19.581   0.541  51.496  1.00  0.00    -0.032 C 
HETATM   20  C9  UNL     1      18.216  -0.049  51.249  1.00  0.00     0.050 C 
HETATM   21  C10 UNL     1      20.272   0.039  52.706  1.00  0.00    -0.022 A 
HETATM   22  C11 UNL     1      19.648  -1.058  53.173  1.00  0.00     0.117 A 
HETATM   23  C13 UNL     1      21.443   0.681  53.255  1.00  0.00     0.087 A 
HETATM   24  N2  UNL     1      20.168  -1.683  54.336  1.00  0.00    -0.289 N 
HETATM   25  N3  UNL     1      21.315  -1.168  54.991  1.00  0.00    -0.191 NA
HETATM   26  H14 UNL     1      19.794  -2.527  54.804  1.00  0.00     0.188 HD
HETATM   27  C12 UNL     1      21.863  -0.104  54.478  1.00  0.00     0.123 A 
ENDBRANCH   1  15
TORSDOF 6
ENDMDL
MODEL 3
REMARK VINA RESULT:      -8.0      2.990      6.923
REMARK  6 active torsions:
REMARK  status: ('A' for Active; 'I' for Inactive)
REMARK    1  A    between atoms: O1_2  and  C2_3 
REMARK    2  A    between atoms: C4_5  and  N1_6 
REMARK    3  A    between atoms: N1_6  and  C5_7 
REMARK    4  A    between atoms: C15_20  and  O3_21 
REMARK    5  A    between atoms: O3_21  and  C16_22 
REMARK    6  A    between atoms: C16_22  and  O4_23 
ROOT
HETATM    1  N1  UNL     1      24.676  -1.034  53.798  1.00  0.00    -0.382 N 
HETATM    2  H5  UNL     1      24.663  -1.642  54.622  1.00  0.00     0.160 HD
ENDROOT
BRANCH   1   3
HETATM    3  C4  UNL     1      23.467  -0.476  53.306  1.00  0.00     0.036 A 
HETATM    4  C3  UNL     1      23.377   0.568  52.413  1.00  0.00     0.087 A 
HETATM    5  C2  UNL     1      22.179   1.076  51.956  1.00  0.00     0.168 A 
HETATM    6  N4  UNL     1      21.022   0.518  52.412  1.00  0.00    -0.200 NA
HETATM    7  C15 UNL     1      21.044  -0.507  53.289  1.00  0.00     0.171 A 
HETATM    8  C14 UNL     1      22.260  -0.990  53.723  1.00  0.00     0.087 A 
BRANCH   5   9
HETATM    9  O1  UNL     1      22.190   2.131  51.055  1.00  0.00    -0.339 OA
HETATM   10  C1  UNL     1      23.364   2.430  50.329  1.00  0.00     0.211 C 
ENDBRANCH   5   9
BRANCH   7  11
HETATM   11  O3  UNL     1      19.889  -1.102  53.776  1.00  0.00    -0.309 OA
BRANCH  11  12
HETATM   12  C16 UNL     1      18.631  -0.882  53.159  1.00  0.00     0.343 C 
BRANCH  12  13
HETATM   13  O4  UNL     1      17.625  -1.290  54.023  1.00  0.00    -0.377 OA
HETATM   14  H20 UNL     1      18.030  -1.304  54.946  1.00  0.00     0.212 HD
ENDBRANCH  12  13
ENDBRANCH  11  12
ENDBRANCH   7  11
ENDBRANCH   1   3
BRANCH   1  15
HETATM   15  C5  UNL     1      25.982  -0.779  53.174  1.00  0.00     0.119 C 
HETATM   16  C6  UNL     1      26.503  -1.998  52.542  1.00  0.00     0.200 C 
HETATM   17  O2  UNL     1      27.596  -2.629  53.192  1.00  0.00    -0.360 OA
HETATM   18  C7  UNL     1      28.904  -2.154  53.188  1.00  0.00     0.141 C 
HETATM   19  C8  UNL     1      29.165  -0.854  53.432  1.00  0.00    -0.032 C 
HETATM   20  C9  UNL     1      30.620  -0.459  53.399  1.00  0.00     0.050 C 
HETATM   21  C10 UNL     1      28.224   0.248  53.733  1.00  0.00    -0.022 A 
HETATM   22  C11 UNL     1      28.851   1.434  53.629  1.00  0.00     0.117 A 
HETATM   23  C13 UNL     1      26.842   0.016  54.082  1.00  0.00     0.087 A 
HETATM   24  N2  UNL     1      28.105   2.614  53.885  1.00  0.00    -0.289 N 
HETATM   25  N3  UNL     1      26.735   2.547  54.242  1.00  0.00    -0.191 NA
HETATM   26  H14 UNL     1      28.453   3.587  53.844  1.00  0.00     0.188 HD
HETATM   27  C12 UNL     1      26.199   1.364  54.322  1.00  0.00     0.123 A 
ENDBRANCH   1  15
TORSDOF 6
ENDMDL
MODEL 4
REMARK VINA RESULT:      -7.9      1.089      3.058
REMARK  6 active torsions:
REMARK  status: ('A' for Active; 'I' for Inactive)
REMARK    1  A    between atoms: O1_2  and  C2_3 
REMARK    2  A    between atoms: C4_5  and  N1_6 
REMARK    3  A    between atoms: N1_6  and  C5_7 
REMARK    4  A    between atoms: C15_20  and  O3_21 
REMARK    5  A    between atoms: O3_21  and  C16_22 
REMARK    6  A    between atoms: C16_22  and  O4_23 
ROOT
HETATM    1  N1  UNL     1      24.554   1.761  51.456  1.00  0.00    -0.382 N 
HETATM    2  H5  UNL     1      24.201   1.421  50.557  1.00  0.00     0.160 HD
ENDROOT
BRANCH   1   3
HETATM    3  C4  UNL     1      24.913   0.840  52.474  1.00  0.00     0.036 A 
HETATM    4  C3  UNL     1      26.200   0.472  52.799  1.00  0.00     0.087 A 
HETATM    5  C2  UNL     1      26.504  -0.424  53.801  1.00  0.00     0.168 A 
HETATM    6  N4  UNL     1      25.479  -0.978  54.509  1.00  0.00    -0.200 NA
HETATM    7  C15 UNL     1      24.197  -0.659  54.239  1.00  0.00     0.171 A 
HETATM    8  C14 UNL     1      23.930   0.242  53.230  1.00  0.00     0.087 A 
BRANCH   5   9
HETATM    9  O1  UNL     1      27.833  -0.732  54.054  1.00  0.00    -0.339 OA
HETATM   10  C1  UNL     1      28.643   0.169  54.779  1.00  0.00     0.211 C 
ENDBRANCH   5   9
BRANCH   7  11
HETATM   11  O3  UNL     1      23.126  -1.199  54.936  1.00  0.00    -0.309 OA
BRANCH  11  12
HETATM   12  C16 UNL     1      21.817  -0.668  54.804  1.00  0.00     0.343 C 
BRANCH  12  13
HETATM   13  O4  UNL     1      20.897  -1.703  54.889  1.00  0.00    -0.377 OA
HETATM   14  H20 UNL     1      21.025  -2.124  55.796  1.00  0.00     0.212 HD
ENDBRANCH  12  13
ENDBRANCH  11  12
ENDBRANCH   7  11
ENDBRANCH   1   3
BRANCH   1  15
HETATM   15  C5  UNL     1      24.666   3.217  51.625  1.00  0.00     0.119 C 
HETATM   16  C6  UNL     1      23.603   3.721  52.503  1.00  0.00     0.200 C 
HETATM   17  O2  UNL     1      22.567   4.465  51.878  1.00  0.00    -0.360 OA
HETATM   18  C7  UNL     1      22.697   5.768  51.408  1.00  0.00     0.141 C 
HETATM   19  C8  UNL     1      23.766   6.129  50.669  1.00  0.00    -0.032 C 
HETATM   20  C9  UNL     1      23.796   7.568  50.218  1.00  0.00     0.050 C 
HETATM   21  C10 UNL     1      24.918   5.310  50.230  1.00  0.00    -0.022 A 
HETATM   22  C11 UNL     1      25.898   6.105  49.760  1.00  0.00     0.117 A 
HETATM   23  C13 UNL     1      24.927   3.870  50.320  1.00  0.00     0.087 A 
HETATM   24  N2  UNL     1      27.090   5.495  49.289  1.00  0.00    -0.289 N 
HETATM   25  N3  UNL     1      27.247   4.087  49.312  1.00  0.00    -0.191 NA
HETATM   26  H14 UNL     1      27.920   5.977  48.903  1.00  0.00     0.188 HD
HETATM   27  C12 UNL     1      26.256   3.386  49.781  1.00  0.00     0.123 A 
ENDBRANCH   1  15
TORSDOF 6
ENDMDL
MODEL 5
REMARK VINA RESULT:      -7.6      2.200      3.941
REMARK  6 active torsions:
REMARK  status: ('A' for Active; 'I' for Inactive)
REMARK    1  A    between atoms: O1_2  and  C2_3 
REMARK    2  A    between atoms: C4_5  and  N1_6 
REMARK    3  A    between atoms: N1_6  and  C5_7 
REMARK    4  A    between atoms: C15_20  and  O3_21 
REMARK    5  A    between atoms: O3_21  and  C16_22 
REMARK    6  A    between atoms: C16_22  and  O4_23 
ROOT
HETATM    1  N1  UNL     1      25.214   3.132  52.822  1.00  0.00    -0.382 N 
HETATM    2  H5  UNL     1      25.455   3.954  53.382  1.00  0.00     0.160 HD
ENDROOT
BRANCH   1   3
HETATM    3  C4  UNL     1      25.355   1.830  53.370  1.00  0.00     0.036 A 
HETATM    4  C3  UNL     1      26.492   1.336  53.970  1.00  0.00     0.087 A 
HETATM    5  C2  UNL     1      26.583   0.065  54.495  1.00  0.00     0.168 A 
HETATM    6  N4  UNL     1      25.492  -0.749  54.417  1.00  0.00    -0.200 NA
HETATM    7  C15 UNL     1      24.349  -0.324  53.842  1.00  0.00     0.171 A 
HETATM    8  C14 UNL     1      24.293   0.954  53.328  1.00  0.00     0.087 A 
BRANCH   5   9
HETATM    9  O1  UNL     1      27.774  -0.342  55.080  1.00  0.00    -0.339 OA
HETATM   10  C1  UNL     1      29.004  -0.086  54.436  1.00  0.00     0.211 C 
ENDBRANCH   5   9
BRANCH   7  11
HETATM   11  O3  UNL     1      23.217  -1.121  53.743  1.00  0.00    -0.309 OA
BRANCH  11  12
HETATM   12  C16 UNL     1      22.333  -1.283  54.841  1.00  0.00     0.343 C 
BRANCH  12  13
HETATM   13  O4  UNL     1      23.017  -1.882  55.889  1.00  0.00    -0.377 OA
HETATM   14  H20 UNL     1      22.339  -2.430  56.396  1.00  0.00     0.212 HD
ENDBRANCH  12  13
ENDBRANCH  11  12
ENDBRANCH   7  11
ENDBRANCH   1   3
BRANCH   1  15
HETATM   15  C5  UNL     1      24.726   3.370  51.456  1.00  0.00     0.119 C 
HETATM   16  C6  UNL     1      25.836   3.334  50.494  1.00  0.00     0.200 C 
HETATM   17  O2  UNL     1      26.233   4.579  49.940  1.00  0.00    -0.360 OA
HETATM   18  C7  UNL     1      25.517   5.285  48.978  1.00  0.00     0.141 C 
HETATM   19  C8  UNL     1      24.187   5.463  49.103  1.00  0.00    -0.032 C 
HETATM   20  C9  UNL     1      23.522   6.243  47.997  1.00  0.00     0.050 C 
HETATM   21  C10 UNL     1      23.280   5.004  50.179  1.00  0.00    -0.022 A 
HETATM   22  C11 UNL     1      21.998   5.137  49.791  1.00  0.00     0.117 A 
HETATM   23  C13 UNL     1      23.764   4.498  51.441  1.00  0.00     0.087 A 
HETATM   24  N2  UNL     1      20.977   4.746  50.697  1.00  0.00    -0.289 N 
HETATM   25  N3  UNL     1      21.298   4.231  51.978  1.00  0.00    -0.191 NA
HETATM   26  H14 UNL     1      19.957   4.792  50.536  1.00  0.00     0.188 HD
HETATM   27  C12 UNL     1      22.560   4.133  52.280  1.00  0.00     0.123 A 
ENDBRANCH   1  15
TORSDOF 6
ENDMDL
MODEL 6
REMARK VINA RESULT:      -7.2      3.105      7.089
REMARK  6 active torsions:
REMARK  status: ('A' for Active; 'I' for Inactive)
REMARK    1  A    between atoms: O1_2  and  C2_3 
REMARK    2  A    between atoms: C4_5  and  N1_6 
REMARK    3  A    between atoms: N1_6  and  C5_7 
REMARK    4  A    between atoms: C15_20  and  O3_21 
REMARK    5  A    between atoms: O3_21  and  C16_22 
REMARK    6  A    between atoms: C16_22  and  O4_23 
ROOT
HETATM    1  N1  UNL     1      24.495   4.039  51.597  1.00  0.00    -0.382 N 
HETATM    2  H5  UNL     1      24.209   4.540  52.442  1.00  0.00     0.160 HD
ENDROOT
BRANCH   1   3
HETATM    3  C4  UNL     1      25.037   4.752  50.495  1.00  0.00     0.036 A 
HETATM    4  C3  UNL     1      24.434   5.813  49.858  1.00  0.00     0.087 A 
HETATM    5  C2  UNL     1      24.999   6.482  48.793  1.00  0.00     0.168 A 
HETATM    6  N4  UNL     1      26.219   6.072  48.345  1.00  0.00    -0.200 NA
HETATM    7  C15 UNL     1      26.861   5.038  48.925  1.00  0.00     0.171 A 
HETATM    8  C14 UNL     1      26.266   4.393  49.989  1.00  0.00     0.087 A 
BRANCH   5   9
HETATM    9  O1  UNL     1      24.313   7.541  48.217  1.00  0.00    -0.339 OA
HETATM   10  C1  UNL     1      24.277   7.682  46.813  1.00  0.00     0.211 C 
ENDBRANCH   5   9
BRANCH   7  11
HETATM   11  O3  UNL     1      28.104   4.590  48.499  1.00  0.00    -0.309 OA
BRANCH  11  12
HETATM   12  C16 UNL     1      29.154   5.499  48.209  1.00  0.00     0.343 C 
BRANCH  12  13
HETATM   13  O4  UNL     1      29.020   6.619  49.018  1.00  0.00    -0.377 OA
HETATM   14  H20 UNL     1      29.094   7.420  48.410  1.00  0.00     0.212 HD
ENDBRANCH  12  13
ENDBRANCH  11  12
ENDBRANCH   7  11
ENDBRANCH   1   3
BRANCH   1  15
HETATM   15  C5  UNL     1      24.320   2.579  51.591  1.00  0.00     0.119 C 
HETATM   16  C6  UNL     1      23.259   2.188  50.654  1.00  0.00     0.200 C 
HETATM   17  O2  UNL     1      22.040   1.741  51.230  1.00  0.00    -0.360 OA
HETATM   18  C7  UNL     1      21.857   0.506  51.843  1.00  0.00     0.141 C 
HETATM   19  C8  UNL     1      22.757   0.037  52.731  1.00  0.00    -0.032 C 
HETATM   20  C9  UNL     1      22.449  -1.313  53.327  1.00  0.00     0.050 C 
HETATM   21  C10 UNL     1      24.008   0.664  53.212  1.00  0.00    -0.022 A 
HETATM   22  C11 UNL     1      24.757  -0.242  53.868  1.00  0.00     0.117 A 
HETATM   23  C13 UNL     1      24.322   2.054  52.977  1.00  0.00     0.087 A 
HETATM   24  N2  UNL     1      26.001   0.178  54.406  1.00  0.00    -0.289 N 
HETATM   25  N3  UNL     1      26.447   1.515  54.258  1.00  0.00    -0.191 NA
HETATM   26  H14 UNL     1      26.676  -0.405  54.931  1.00  0.00     0.188 HD
HETATM   27  C12 UNL     1      25.668   2.332  53.610  1.00  0.00     0.123 A 
ENDBRANCH   1  15
TORSDOF 6
ENDMDL
MODEL 7
REMARK VINA RESULT:      -7.2      3.490      6.091
REMARK  6 active torsions:
REMARK  status: ('A' for Active; 'I' for Inactive)
REMARK    1  A    between atoms: O1_2  and  C2_3 
REMARK    2  A    between atoms: C4_5  and  N1_6 
REMARK    3  A    between atoms: N1_6  and  C5_7 
REMARK    4  A    between atoms: C15_20  and  O3_21 
REMARK    5  A    between atoms: O3_21  and  C16_22 
REMARK    6  A    between atoms: C16_22  and  O4_23 
ROOT
HETATM    1  N1  UNL     1      23.153   2.151  52.718  1.00  0.00    -0.382 N 
HETATM    2  H5  UNL     1      22.764   2.896  53.303  1.00  0.00     0.160 HD
ENDROOT
BRANCH   1   3
HETATM    3  C4  UNL     1      24.548   2.098  52.465  1.00  0.00     0.036 A 
HETATM    4  C3  UNL     1      25.196   2.743  51.435  1.00  0.00     0.087 A 
HETATM    5  C2  UNL     1      26.558   2.669  51.229  1.00  0.00     0.168 A 
HETATM    6  N4  UNL     1      27.303   1.918  52.088  1.00  0.00    -0.200 NA
HETATM    7  C15 UNL     1      26.728   1.262  53.116  1.00  0.00     0.171 A 
HETATM    8  C14 UNL     1      25.364   1.360  53.292  1.00  0.00     0.087 A 
BRANCH   5   9
HETATM    9  O1  UNL     1      27.119   3.356  50.162  1.00  0.00    -0.339 OA
HETATM   10  C1  UNL     1      26.319   4.203  49.364  1.00  0.00     0.211 C 
ENDBRANCH   5   9
BRANCH   7  11
HETATM   11  O3  UNL     1      27.452   0.488  54.012  1.00  0.00    -0.309 OA
BRANCH  11  12
HETATM   12  C16 UNL     1      28.716  -0.053  53.663  1.00  0.00     0.343 C 
BRANCH  12  13
HETATM   13  O4  UNL     1      29.631   0.981  53.529  1.00  0.00    -0.377 OA
HETATM   14  H20 UNL     1      30.438   0.720  54.074  1.00  0.00     0.212 HD
ENDBRANCH  12  13
ENDBRANCH  11  12
ENDBRANCH   7  11
ENDBRANCH   1   3
BRANCH   1  15
HETATM   15  C5  UNL     1      22.208   1.165  52.173  1.00  0.00     0.119 C 
HETATM   16  C6  UNL     1      21.787   1.544  50.818  1.00  0.00     0.200 C 
HETATM   17  O2  UNL     1      20.457   2.021  50.679  1.00  0.00    -0.360 OA
HETATM   18  C7  UNL     1      19.318   1.226  50.733  1.00  0.00     0.141 C 
HETATM   19  C8  UNL     1      19.167   0.303  51.705  1.00  0.00    -0.032 C 
HETATM   20  C9  UNL     1      17.891  -0.498  51.657  1.00  0.00     0.050 C 
HETATM   21  C10 UNL     1      20.079  -0.034  52.821  1.00  0.00    -0.022 A 
HETATM   22  C11 UNL     1      19.701  -1.193  53.393  1.00  0.00     0.117 A 
HETATM   23  C13 UNL     1      21.196   0.801  53.193  1.00  0.00     0.087 A 
HETATM   24  N2  UNL     1      20.459  -1.681  54.489  1.00  0.00    -0.289 N 
HETATM   25  N3  UNL     1      21.586  -0.968  54.971  1.00  0.00    -0.191 NA
HETATM   26  H14 UNL     1      20.287  -2.550  55.022  1.00  0.00     0.188 HD
HETATM   27  C12 UNL     1      21.889   0.143  54.366  1.00  0.00     0.123 A 
ENDBRANCH   1  15
TORSDOF 6
ENDMDL
MODEL 8
REMARK VINA RESULT:      -7.1      3.024      7.057
REMARK  6 active torsions:
REMARK  status: ('A' for Active; 'I' for Inactive)
REMARK    1  A    between atoms: O1_2  and  C2_3 
REMARK    2  A    between atoms: C4_5  and  N1_6 
REMARK    3  A    between atoms: N1_6  and  C5_7 
REMARK    4  A    between atoms: C15_20  and  O3_21 
REMARK    5  A    between atoms: O3_21  and  C16_22 
REMARK    6  A    between atoms: C16_22  and  O4_23 
ROOT
HETATM    1  N1  UNL     1      24.443   2.310  50.461  1.00  0.00    -0.382 N 
HETATM    2  H5  UNL     1      24.226   1.639  49.719  1.00  0.00     0.160 HD
ENDROOT
BRANCH   1   3
HETATM    3  C4  UNL     1      25.059   3.549  50.144  1.00  0.00     0.036 A 
HETATM    4  C3  UNL     1      24.566   4.792  50.474  1.00  0.00     0.087 A 
HETATM    5  C2  UNL     1      25.201   5.972  50.151  1.00  0.00     0.168 A 
HETATM    6  N4  UNL     1      26.378   5.908  49.466  1.00  0.00    -0.200 NA
HETATM    7  C15 UNL     1      26.912   4.721  49.113  1.00  0.00     0.171 A 
HETATM    8  C14 UNL     1      26.251   3.561  49.454  1.00  0.00     0.087 A 
BRANCH   5   9
HETATM    9  O1  UNL     1      24.626   7.177  50.528  1.00  0.00    -0.339 OA
HETATM   10  C1  UNL     1      24.960   8.366  49.845  1.00  0.00     0.211 C 
ENDBRANCH   5   9
BRANCH   7  11
HETATM   11  O3  UNL     1      28.108   4.614  48.416  1.00  0.00    -0.309 OA
BRANCH  11  12
HETATM   12  C16 UNL     1      29.001   5.712  48.314  1.00  0.00     0.343 C 
BRANCH  12  13
HETATM   13  O4  UNL     1      29.992   5.581  49.276  1.00  0.00    -0.377 OA
HETATM   14  H20 UNL     1      29.668   6.082  50.089  1.00  0.00     0.212 HD
ENDBRANCH  12  13
ENDBRANCH  11  12
ENDBRANCH   7  11
ENDBRANCH   1   3
BRANCH   1  15
HETATM   15  C5  UNL     1      24.089   1.927  51.835  1.00  0.00     0.119 C 
HETATM   16  C6  UNL     1      25.283   1.514  52.583  1.00  0.00     0.200 C 
HETATM   17  O2  UNL     1      25.409   0.126  52.856  1.00  0.00    -0.360 OA
HETATM   18  C7  UNL     1      24.663  -0.568  53.803  1.00  0.00     0.141 C 
HETATM   19  C8  UNL     1      23.327  -0.404  53.883  1.00  0.00    -0.032 C 
HETATM   20  C9  UNL     1      22.629  -1.209  54.949  1.00  0.00     0.050 C 
HETATM   21  C10 UNL     1      22.442   0.457  53.067  1.00  0.00    -0.022 A 
HETATM   22  C11 UNL     1      21.230   0.554  53.645  1.00  0.00     0.117 A 
HETATM   23  C13 UNL     1      22.876   1.075  51.837  1.00  0.00     0.087 A 
HETATM   24  N2  UNL     1      20.239   1.342  53.003  1.00  0.00    -0.289 N 
HETATM   25  N3  UNL     1      20.516   2.010  51.784  1.00  0.00    -0.191 NA
HETATM   26  H14 UNL     1      19.272   1.505  53.329  1.00  0.00     0.188 HD
HETATM   27  C12 UNL     1      21.711   1.869  51.287  1.00  0.00     0.123 A 
ENDBRANCH   1  15
TORSDOF 6
ENDMDL
MODEL 9
REMARK VINA RESULT:      -7.0      3.425      7.248
REMARK  6 active torsions:
REMARK  status: ('A' for Active; 'I' for Inactive)
REMARK    1  A    between atoms: O1_2  and  C2_3 
REMARK    2  A    between atoms: C4_5  and  N1_6 
REMARK    3  A    between atoms: N1_6  and  C5_7 
REMARK    4  A    between atoms: C15_20  and  O3_21 
REMARK    5  A    between atoms: O3_21  and  C16_22 
REMARK    6  A    between atoms: C16_22  and  O4_23 
ROOT
HETATM    1  N1  UNL     1      25.835   3.543  49.399  1.00  0.00    -0.382 N 
HETATM    2  H5  UNL     1      25.528   2.956  48.619  1.00  0.00     0.160 HD
ENDROOT
BRANCH   1   3
HETATM    3  C4  UNL     1      26.527   4.756  49.149  1.00  0.00     0.036 A 
HETATM    4  C3  UNL     1      26.043   6.019  49.411  1.00  0.00     0.087 A 
HETATM    5  C2  UNL     1      26.753   7.173  49.157  1.00  0.00     0.168 A 
HETATM    6  N4  UNL     1      27.999   7.061  48.615  1.00  0.00    -0.200 NA
HETATM    7  C15 UNL     1      28.529   5.853  48.335  1.00  0.00     0.171 A 
HETATM    8  C14 UNL     1      27.791   4.720  48.604  1.00  0.00     0.087 A 
BRANCH   5   9
HETATM    9  O1  UNL     1      26.180   8.400  49.456  1.00  0.00    -0.339 OA
HETATM   10  C1  UNL     1      25.577   9.168  48.437  1.00  0.00     0.211 C 
ENDBRANCH   5   9
BRANCH   7  11
HETATM   11  O3  UNL     1      29.793   5.698  47.784  1.00  0.00    -0.309 OA
BRANCH  11  12
HETATM   12  C16 UNL     1      30.957   6.099  48.489  1.00  0.00     0.343 C 
BRANCH  12  13
HETATM   13  O4  UNL     1      30.803   5.789  49.832  1.00  0.00    -0.377 OA
HETATM   14  H20 UNL     1      30.722   4.786  49.886  1.00  0.00     0.212 HD
ENDBRANCH  12  13
ENDBRANCH  11  12
ENDBRANCH   7  11
ENDBRANCH   1   3
BRANCH   1  15
HETATM   15  C5  UNL     1      25.526   3.069  50.756  1.00  0.00     0.119 C 
HETATM   16  C6  UNL     1      26.707   2.452  51.372  1.00  0.00     0.200 C 
HETATM   17  O2  UNL     1      26.683   1.038  51.509  1.00  0.00    -0.360 OA
HETATM   18  C7  UNL     1      25.921   0.343  52.442  1.00  0.00     0.141 C 
HETATM   19  C8  UNL     1      24.622   0.650  52.638  1.00  0.00    -0.032 C 
HETATM   20  C9  UNL     1      23.903  -0.172  53.676  1.00  0.00     0.050 C 
HETATM   21  C10 UNL     1      23.796   1.682  51.971  1.00  0.00    -0.022 A 
HETATM   22  C11 UNL     1      22.645   1.858  52.645  1.00  0.00     0.117 A 
HETATM   23  C13 UNL     1      24.222   2.364  50.772  1.00  0.00     0.087 A 
HETATM   24  N2  UNL     1      21.717   2.813  52.153  1.00  0.00    -0.289 N 
HETATM   25  N3  UNL     1      21.994   3.562  50.982  1.00  0.00    -0.191 NA
HETATM   26  H14 UNL     1      20.799   3.053  52.564  1.00  0.00     0.188 HD
HETATM   27  C12 UNL     1      23.128   3.336  50.386  1.00  0.00     0.123 A 
ENDBRANCH   1  15
TORSDOF 6
ENDMDL
