MODEL 1
REMARK VINA RESULT:      -9.1      0.000      0.000
REMARK  6 active torsions:
REMARK  status: ('A' for Active; 'I' for Inactive)
REMARK    1  A    between atoms: O1_2  and  C2_3 
REMARK    2  A    between atoms: C7_8  and  C8_9 
REMARK    3  A    between atoms: C8_9  and  N1_10 
REMARK    4  A    between atoms: N1_10  and  C9_11 
REMARK    5  A    between atoms: C14_19  and  N4_20 
REMARK    6  A    between atoms: N4_20  and  C15_21 
ROOT
HETATM    1  C9  UNL     1      23.899   0.053  53.403  1.00  0.00     0.018 C 
HETATM    2  C10 UNL     1      22.672  -0.213  53.806  1.00  0.00    -0.041 C 
HETATM    3  C11 UNL     1      22.488  -1.438  54.668  1.00  0.00     0.047 C 
HETATM    4  C12 UNL     1      21.435   0.541  53.672  1.00  0.00     0.184 C 
HETATM    5  N2  UNL     1      20.449  -0.018  52.835  1.00  0.00    -0.295 NA
HETATM    6  C13 UNL     1      19.706   0.714  52.044  1.00  0.00     0.137 C 
HETATM    7  P1  UNL     1      20.178   2.454  52.252  1.00  0.00     0.041 P 
HETATM    8  N3  UNL     1      21.419   3.110  51.246  1.00  0.00    -0.242 NA
HETATM    9  C14 UNL     1      22.653   2.873  51.243  1.00  0.00     0.124 C 
HETATM   10  C21 UNL     1      23.919   2.196  51.629  1.00  0.00     0.035 C 
HETATM   11  C22 UNL     1      23.803   1.190  52.477  1.00  0.00     0.075 C 
HETATM   12  H17 UNL     1      19.054   3.331  52.498  1.00  0.00     0.088 HD
ENDROOT
BRANCH   1  13
HETATM   13  N1  UNL     1      25.045  -0.770  53.760  1.00  0.00    -0.388 N 
HETATM   14  H10 UNL     1      24.913  -0.890  54.784  1.00  0.00     0.159 HD
BRANCH  13  15
HETATM   15  C8  UNL     1      25.912  -1.112  52.651  1.00  0.00     0.161 C 
BRANCH  15  16
HETATM   16  C7  UNL     1      27.337  -1.084  53.042  1.00  0.00    -0.007 A 
HETATM   17  C2  UNL     1      27.963   0.113  53.416  1.00  0.00     0.076 A 
HETATM   18  C3  UNL     1      29.305   0.087  53.731  1.00  0.00     0.037 A 
HETATM   19  C4  UNL     1      30.027  -1.085  53.685  1.00  0.00     0.003 A 
HETATM   20  C5  UNL     1      29.474  -2.287  53.329  1.00  0.00     0.001 A 
HETATM   21  C6  UNL     1      28.106  -2.227  53.013  1.00  0.00     0.011 A 
BRANCH  17  22
HETATM   22  O1  UNL     1      27.241   1.272  53.465  1.00  0.00    -0.355 OA
HETATM   23  C1  UNL     1      27.356   2.323  52.526  1.00  0.00     0.210 C 
ENDBRANCH  17  22
ENDBRANCH  15  16
ENDBRANCH  13  15
ENDBRANCH   1  13
BRANCH   9  24
HETATM   24  N4  UNL     1      22.953   3.807  50.148  1.00  0.00    -0.341 N 
HETATM   25  H18 UNL     1      22.311   3.851  49.295  1.00  0.00     0.167 HD
BRANCH  24  26
HETATM   26  C15 UNL     1      24.036   4.764  49.998  1.00  0.00     0.035 A 
HETATM   27  C16 UNL     1      23.791   5.985  50.635  1.00  0.00     0.029 A 
HETATM   28  C17 UNL     1      24.678   7.070  50.626  1.00  0.00     0.004 A 
HETATM   29  C18 UNL     1      25.878   6.897  49.929  1.00  0.00     0.024 A 
HETATM   30  C19 UNL     1      26.094   5.688  49.312  1.00  0.00     0.036 A 
HETATM   31 CL1  UNL     1      27.607   5.470  48.431  1.00  0.00    -0.084 Cl
HETATM   32  C20 UNL     1      25.224   4.626  49.323  1.00  0.00     0.053 A 
ENDBRANCH  24  26
ENDBRANCH   9  24
TORSDOF 6
ENDMDL
MODEL 2
REMARK VINA RESULT:      -8.8      1.231      1.320
REMARK  6 active torsions:
REMARK  status: ('A' for Active; 'I' for Inactive)
REMARK    1  A    between atoms: O1_2  and  C2_3 
REMARK    2  A    between atoms: C7_8  and  C8_9 
REMARK    3  A    between atoms: C8_9  and  N1_10 
REMARK    4  A    between atoms: N1_10  and  C9_11 
REMARK    5  A    between atoms: C14_19  and  N4_20 
REMARK    6  A    between atoms: N4_20  and  C15_21 
ROOT
HETATM    1  C9  UNL     1      23.923   0.874  53.246  1.00  0.00     0.018 C 
HETATM    2  C10 UNL     1      22.732   0.408  52.928  1.00  0.00    -0.041 C 
HETATM    3  C11 UNL     1      22.559  -1.092  52.952  1.00  0.00     0.047 C 
HETATM    4  C12 UNL     1      21.475   1.090  52.664  1.00  0.00     0.184 C 
HETATM    5  N2  UNL     1      20.995   1.028  51.340  1.00  0.00    -0.295 NA
HETATM    6  C13 UNL     1      20.417   2.047  50.758  1.00  0.00     0.137 C 
HETATM    7  P1  UNL     1      20.365   3.433  51.929  1.00  0.00     0.041 P 
HETATM    8  N3  UNL     1      21.684   4.547  51.964  1.00  0.00    -0.242 NA
HETATM    9  C14 UNL     1      22.863   4.377  52.362  1.00  0.00     0.124 C 
HETATM   10  C21 UNL     1      24.043   3.628  52.871  1.00  0.00     0.035 C 
HETATM   11  C22 UNL     1      23.885   2.325  53.015  1.00  0.00     0.075 C 
HETATM   12  H17 UNL     1      19.052   4.024  52.066  1.00  0.00     0.088 HD
ENDROOT
BRANCH   1  13
HETATM   13  N1  UNL     1      25.038   0.015  53.614  1.00  0.00    -0.388 N 
HETATM   14  H10 UNL     1      24.880  -0.117  54.634  1.00  0.00     0.159 HD
BRANCH  13  15
HETATM   15  C8  UNL     1      25.919  -0.336  52.520  1.00  0.00     0.161 C 
BRANCH  15  16
HETATM   16  C7  UNL     1      27.253  -0.750  53.001  1.00  0.00    -0.007 A 
HETATM   17  C2  UNL     1      28.066   0.129  53.730  1.00  0.00     0.076 A 
HETATM   18  C3  UNL     1      29.319  -0.297  54.119  1.00  0.00     0.037 A 
HETATM   19  C4  UNL     1      29.773  -1.559  53.806  1.00  0.00     0.003 A 
HETATM   20  C5  UNL     1      29.027  -2.465  53.098  1.00  0.00     0.001 A 
HETATM   21  C6  UNL     1      27.758  -2.000  52.715  1.00  0.00     0.011 A 
BRANCH  17  22
HETATM   22  O1  UNL     1      27.609   1.378  54.043  1.00  0.00    -0.355 OA
HETATM   23  C1  UNL     1      28.069   2.570  53.439  1.00  0.00     0.210 C 
ENDBRANCH  17  22
ENDBRANCH  15  16
ENDBRANCH  13  15
ENDBRANCH   1  13
BRANCH   9  24
HETATM   24  N4  UNL     1      23.291   5.753  52.068  1.00  0.00    -0.341 N 
HETATM   25  H18 UNL     1      22.914   6.563  52.653  1.00  0.00     0.167 HD
BRANCH  24  26
HETATM   26  C15 UNL     1      24.208   6.257  51.060  1.00  0.00     0.035 A 
HETATM   27  C16 UNL     1      24.043   7.620  50.790  1.00  0.00     0.029 A 
HETATM   28  C17 UNL     1      24.798   8.334  49.851  1.00  0.00     0.004 A 
HETATM   29  C18 UNL     1      25.775   7.617  49.152  1.00  0.00     0.024 A 
HETATM   30  C19 UNL     1      25.917   6.280  49.435  1.00  0.00     0.036 A 
HETATM   31 CL1  UNL     1      27.145   5.374  48.552  1.00  0.00    -0.084 Cl
HETATM   32  C20 UNL     1      25.175   5.582  50.356  1.00  0.00     0.053 A 
ENDBRANCH  24  26
ENDBRANCH   9  24
TORSDOF 6
ENDMDL
MODEL 3
REMARK VINA RESULT:      -8.7      0.903      1.815
REMARK  6 active torsions:
REMARK  status: ('A' for Active; 'I' for Inactive)
REMARK    1  A    between atoms: O1_2  and  C2_3 
REMARK    2  A    between atoms: C7_8  and  C8_9 
REMARK    3  A    between atoms: C8_9  and  N1_10 
REMARK    4  A    between atoms: N1_10  and  C9_11 
REMARK    5  A    between atoms: C14_19  and  N4_20 
REMARK    6  A    between atoms: N4_20  and  C15_21 
ROOT
HETATM    1  C9  UNL     1      23.417   0.397  53.398  1.00  0.00     0.018 C 
HETATM    2  C10 UNL     1      22.185  -0.017  53.611  1.00  0.00    -0.041 C 
HETATM    3  C11 UNL     1      22.022  -1.299  54.392  1.00  0.00     0.047 C 
HETATM    4  C12 UNL     1      20.902   0.608  53.331  1.00  0.00     0.184 C 
HETATM    5  N2  UNL     1      20.109  -0.007  52.341  1.00  0.00    -0.295 NA
HETATM    6  C13 UNL     1      19.405   0.683  51.481  1.00  0.00     0.137 C 
HETATM    7  P1  UNL     1      19.646   2.450  51.818  1.00  0.00     0.041 P 
HETATM    8  N3  UNL     1      20.933   3.285  51.025  1.00  0.00    -0.242 NA
HETATM    9  C14 UNL     1      22.174   3.180  51.190  1.00  0.00     0.124 C 
HETATM   10  C21 UNL     1      23.442   2.621  51.727  1.00  0.00     0.035 C 
HETATM   11  C22 UNL     1      23.324   1.565  52.511  1.00  0.00     0.075 C 
HETATM   12  H17 UNL     1      18.408   3.190  51.934  1.00  0.00     0.088 HD
ENDROOT
BRANCH   1  13
HETATM   13  N1  UNL     1      24.588  -0.318  53.884  1.00  0.00    -0.388 N 
HETATM   14  H10 UNL     1      24.332  -0.501  54.875  1.00  0.00     0.159 HD
BRANCH  13  15
HETATM   15  C8  UNL     1      25.630  -0.513  52.897  1.00  0.00     0.161 C 
BRANCH  15  16
HETATM   16  C7  UNL     1      26.862   0.223  53.248  1.00  0.00    -0.007 A 
HETATM   17  C2  UNL     1      28.038  -0.455  53.597  1.00  0.00     0.076 A 
HETATM   18  C3  UNL     1      29.146   0.284  53.955  1.00  0.00     0.037 A 
HETATM   19  C4  UNL     1      29.112   1.660  53.971  1.00  0.00     0.003 A 
HETATM   20  C5  UNL     1      27.996   2.382  53.640  1.00  0.00     0.001 A 
HETATM   21  C6  UNL     1      26.883   1.601  53.282  1.00  0.00     0.011 A 
BRANCH  17  22
HETATM   22  O1  UNL     1      28.068  -1.820  53.573  1.00  0.00    -0.355 OA
HETATM   23  C1  UNL     1      29.216  -2.588  53.266  1.00  0.00     0.210 C 
ENDBRANCH  17  22
ENDBRANCH  15  16
ENDBRANCH  13  15
ENDBRANCH   1  13
BRANCH   9  24
HETATM   24  N4  UNL     1      22.516   4.197  50.184  1.00  0.00    -0.341 N 
HETATM   25  H18 UNL     1      21.820   4.436  49.410  1.00  0.00     0.167 HD
BRANCH  24  26
HETATM   26  C15 UNL     1      23.711   5.011  50.039  1.00  0.00     0.035 A 
HETATM   27  C16 UNL     1      23.609   6.263  50.653  1.00  0.00     0.029 A 
HETATM   28  C17 UNL     1      24.623   7.230  50.643  1.00  0.00     0.004 A 
HETATM   29  C18 UNL     1      25.803   6.899  49.969  1.00  0.00     0.024 A 
HETATM   30  C19 UNL     1      25.877   5.664  49.372  1.00  0.00     0.036 A 
HETATM   31 CL1  UNL     1      27.363   5.246  48.519  1.00  0.00    -0.084 Cl
HETATM   32  C20 UNL     1      24.882   4.717  49.384  1.00  0.00     0.053 A 
ENDBRANCH  24  26
ENDBRANCH   9  24
TORSDOF 6
ENDMDL
MODEL 4
REMARK VINA RESULT:      -8.7      2.441      6.423
REMARK  6 active torsions:
REMARK  status: ('A' for Active; 'I' for Inactive)
REMARK    1  A    between atoms: O1_2  and  C2_3 
REMARK    2  A    between atoms: C7_8  and  C8_9 
REMARK    3  A    between atoms: C8_9  and  N1_10 
REMARK    4  A    between atoms: N1_10  and  C9_11 
REMARK    5  A    between atoms: C14_19  and  N4_20 
REMARK    6  A    between atoms: N4_20  and  C15_21 
ROOT
HETATM    1  C9  UNL     1      23.002   2.253  51.124  1.00  0.00     0.018 C 
HETATM    2  C10 UNL     1      21.777   1.869  51.423  1.00  0.00    -0.041 C 
HETATM    3  C11 UNL     1      20.646   2.657  50.808  1.00  0.00     0.047 C 
HETATM    4  C12 UNL     1      21.288   0.717  52.165  1.00  0.00     0.184 C 
HETATM    5  N2  UNL     1      20.673   0.985  53.404  1.00  0.00    -0.295 NA
HETATM    6  C13 UNL     1      20.844   0.217  54.450  1.00  0.00     0.137 C 
HETATM    7  P1  UNL     1      21.944  -1.153  53.991  1.00  0.00     0.041 P 
HETATM    8  N3  UNL     1      23.648  -0.960  54.192  1.00  0.00    -0.242 NA
HETATM    9  C14 UNL     1      24.448  -0.228  53.558  1.00  0.00     0.124 C 
HETATM   10  C21 UNL     1      24.879   0.810  52.584  1.00  0.00     0.035 C 
HETATM   11  C22 UNL     1      23.912   1.439  51.942  1.00  0.00     0.075 C 
HETATM   12  H17 UNL     1      21.423  -2.455  54.346  1.00  0.00     0.088 HD
ENDROOT
BRANCH   1  13
HETATM   13  N1  UNL     1      23.286   3.374  50.241  1.00  0.00    -0.388 N 
HETATM   14  H10 UNL     1      22.871   3.052  49.345  1.00  0.00     0.159 HD
BRANCH  13  15
HETATM   15  C8  UNL     1      23.998   4.470  50.866  1.00  0.00     0.161 C 
BRANCH  15  16
HETATM   16  C7  UNL     1      25.196   4.857  50.092  1.00  0.00    -0.007 A 
HETATM   17  C2  UNL     1      25.388   6.179  49.667  1.00  0.00     0.076 A 
HETATM   18  C3  UNL     1      26.504   6.475  48.912  1.00  0.00     0.037 A 
HETATM   19  C4  UNL     1      27.420   5.502  48.578  1.00  0.00     0.003 A 
HETATM   20  C5  UNL     1      27.290   4.194  48.963  1.00  0.00     0.001 A 
HETATM   21  C6  UNL     1      26.143   3.924  49.729  1.00  0.00     0.011 A 
BRANCH  17  22
HETATM   22  O1  UNL     1      24.481   7.142  50.006  1.00  0.00    -0.355 OA
HETATM   23  C1  UNL     1      24.761   8.528  50.034  1.00  0.00     0.210 C 
ENDBRANCH  17  22
ENDBRANCH  15  16
ENDBRANCH  13  15
ENDBRANCH   1  13
BRANCH   9  24
HETATM   24  N4  UNL     1      25.632  -0.657  54.318  1.00  0.00    -0.341 N 
HETATM   25  H18 UNL     1      25.519  -1.307  55.157  1.00  0.00     0.167 HD
BRANCH  24  26
HETATM   26  C15 UNL     1      27.038  -0.347  54.122  1.00  0.00     0.035 A 
HETATM   27  C16 UNL     1      27.745  -1.362  53.467  1.00  0.00     0.029 A 
HETATM   28  C17 UNL     1      29.113  -1.305  53.173  1.00  0.00     0.004 A 
HETATM   29  C18 UNL     1      29.795  -0.150  53.569  1.00  0.00     0.024 A 
HETATM   30  C19 UNL     1      29.079   0.831  54.211  1.00  0.00     0.036 A 
HETATM   31 CL1  UNL     1      29.939   2.287  54.714  1.00  0.00    -0.084 Cl
HETATM   32  C20 UNL     1      27.737   0.774  54.498  1.00  0.00     0.053 A 
ENDBRANCH  24  26
ENDBRANCH   9  24
TORSDOF 6
ENDMDL
MODEL 5
REMARK VINA RESULT:      -8.5      3.061      5.914
REMARK  6 active torsions:
REMARK  status: ('A' for Active; 'I' for Inactive)
REMARK    1  A    between atoms: O1_2  and  C2_3 
REMARK    2  A    between atoms: C7_8  and  C8_9 
REMARK    3  A    between atoms: C8_9  and  N1_10 
REMARK    4  A    between atoms: N1_10  and  C9_11 
REMARK    5  A    between atoms: C14_19  and  N4_20 
REMARK    6  A    between atoms: N4_20  and  C15_21 
ROOT
HETATM    1  C9  UNL     1      25.765   2.926  51.203  1.00  0.00     0.018 C 
HETATM    2  C10 UNL     1      25.636   3.474  50.011  1.00  0.00    -0.041 C 
HETATM    3  C11 UNL     1      26.895   3.990  49.358  1.00  0.00     0.047 C 
HETATM    4  C12 UNL     1      24.489   3.573  49.121  1.00  0.00     0.184 C 
HETATM    5  N2  UNL     1      23.967   4.866  48.915  1.00  0.00    -0.295 NA
HETATM    6  C13 UNL     1      22.682   5.095  48.825  1.00  0.00     0.137 C 
HETATM    7  P1  UNL     1      21.798   3.519  49.000  1.00  0.00     0.041 P 
HETATM    8  N3  UNL     1      21.321   2.998  50.576  1.00  0.00    -0.242 NA
HETATM    9  C14 UNL     1      22.029   2.600  51.534  1.00  0.00     0.124 C 
HETATM   10  C21 UNL     1      23.278   2.300  52.283  1.00  0.00     0.035 C 
HETATM   11  C22 UNL     1      24.407   2.636  51.685  1.00  0.00     0.075 C 
HETATM   12  H17 UNL     1      20.831   3.280  47.951  1.00  0.00     0.088 HD
ENDROOT
BRANCH   1  13
HETATM   13  N1  UNL     1      27.045   2.802  51.882  1.00  0.00    -0.388 N 
HETATM   14  H10 UNL     1      27.694   3.241  51.200  1.00  0.00     0.159 HD
BRANCH  13  15
HETATM   15  C8  UNL     1      26.983   2.155  53.177  1.00  0.00     0.161 C 
BRANCH  15  16
HETATM   16  C7  UNL     1      27.770   0.905  53.204  1.00  0.00    -0.007 A 
HETATM   17  C2  UNL     1      27.163  -0.339  52.978  1.00  0.00     0.076 A 
HETATM   18  C3  UNL     1      27.939  -1.476  53.055  1.00  0.00     0.037 A 
HETATM   19  C4  UNL     1      29.283  -1.406  53.346  1.00  0.00     0.003 A 
HETATM   20  C5  UNL     1      29.935  -0.223  53.576  1.00  0.00     0.001 A 
HETATM   21  C6  UNL     1      29.118   0.917  53.491  1.00  0.00     0.011 A 
BRANCH  17  22
HETATM   22  O1  UNL     1      25.831  -0.403  52.684  1.00  0.00    -0.355 OA
HETATM   23  C1  UNL     1      24.819  -0.695  53.628  1.00  0.00     0.210 C 
ENDBRANCH  17  22
ENDBRANCH  15  16
ENDBRANCH  13  15
ENDBRANCH   1  13
BRANCH   9  24
HETATM   24  N4  UNL     1      20.891   2.360  52.435  1.00  0.00    -0.341 N 
HETATM   25  H18 UNL     1      20.579   3.124  53.112  1.00  0.00     0.167 HD
BRANCH  24  26
HETATM   26  C15 UNL     1      20.038   1.193  52.581  1.00  0.00     0.035 A 
HETATM   27  C16 UNL     1      20.503   0.282  53.536  1.00  0.00     0.029 A 
HETATM   28  C17 UNL     1      19.862  -0.924  53.851  1.00  0.00     0.004 A 
HETATM   29  C18 UNL     1      18.685  -1.213  53.152  1.00  0.00     0.024 A 
HETATM   30  C19 UNL     1      18.251  -0.302  52.219  1.00  0.00     0.036 A 
HETATM   31 CL1  UNL     1      16.768  -0.667  51.336  1.00  0.00    -0.084 Cl
HETATM   32  C20 UNL     1      18.880   0.880  51.913  1.00  0.00     0.053 A 
ENDBRANCH  24  26
ENDBRANCH   9  24
TORSDOF 6
ENDMDL
MODEL 6
REMARK VINA RESULT:      -8.3      4.405      8.008
REMARK  6 active torsions:
REMARK  status: ('A' for Active; 'I' for Inactive)
REMARK    1  A    between atoms: O1_2  and  C2_3 
REMARK    2  A    between atoms: C7_8  and  C8_9 
REMARK    3  A    between atoms: C8_9  and  N1_10 
REMARK    4  A    between atoms: N1_10  and  C9_11 
REMARK    5  A    between atoms: C14_19  and  N4_20 
REMARK    6  A    between atoms: N4_20  and  C15_21 
ROOT
HETATM    1  C9  UNL     1      27.471   6.011  48.413  1.00  0.00     0.018 C 
HETATM    2  C10 UNL     1      26.548   6.920  48.656  1.00  0.00    -0.041 C 
HETATM    3  C11 UNL     1      26.846   8.330  48.205  1.00  0.00     0.047 C 
HETATM    4  C12 UNL     1      25.200   6.800  49.188  1.00  0.00     0.184 C 
HETATM    5  N2  UNL     1      24.978   7.357  50.464  1.00  0.00    -0.295 NA
HETATM    6  C13 UNL     1      24.212   6.781  51.355  1.00  0.00     0.137 C 
HETATM    7  P1  UNL     1      23.551   5.246  50.646  1.00  0.00     0.041 P 
HETATM    8  N3  UNL     1      24.437   3.779  50.855  1.00  0.00    -0.242 NA
HETATM    9  C14 UNL     1      25.533   3.429  50.350  1.00  0.00     0.124 C 
HETATM   10  C21 UNL     1      26.790   3.574  49.570  1.00  0.00     0.035 C 
HETATM   11  C22 UNL     1      27.022   4.770  49.062  1.00  0.00     0.075 C 
HETATM   12  H17 UNL     1      22.115   5.124  50.773  1.00  0.00     0.088 HD
ENDROOT
BRANCH   1  13
HETATM   13  N1  UNL     1      28.723   6.315  47.739  1.00  0.00    -0.388 N 
HETATM   14  H10 UNL     1      28.484   7.183  47.221  1.00  0.00     0.159 HD
BRANCH  13  15
HETATM   15  C8  UNL     1      29.794   5.373  47.998  1.00  0.00     0.161 C 
BRANCH  15  16
HETATM   16  C7  UNL     1      31.086   6.057  48.208  1.00  0.00    -0.007 A 
HETATM   17  C2  UNL     1      32.281   5.332  48.318  1.00  0.00     0.076 A 
HETATM   18  C3  UNL     1      33.453   6.020  48.554  1.00  0.00     0.037 A 
HETATM   19  C4  UNL     1      33.463   7.392  48.678  1.00  0.00     0.003 A 
HETATM   20  C5  UNL     1      32.331   8.157  48.580  1.00  0.00     0.001 A 
HETATM   21  C6  UNL     1      31.154   7.428  48.341  1.00  0.00     0.011 A 
BRANCH  17  22
HETATM   22  O1  UNL     1      32.266   3.972  48.188  1.00  0.00    -0.355 OA
HETATM   23  C1  UNL     1      33.352   3.205  47.706  1.00  0.00     0.210 C 
ENDBRANCH  17  22
ENDBRANCH  15  16
ENDBRANCH  13  15
ENDBRANCH   1  13
BRANCH   9  24
HETATM   24  N4  UNL     1      25.554   2.113  51.006  1.00  0.00    -0.341 N 
HETATM   25  H18 UNL     1      24.756   1.423  50.841  1.00  0.00     0.167 HD
BRANCH  24  26
HETATM   26  C15 UNL     1      26.538   1.524  51.899  1.00  0.00     0.035 A 
HETATM   27  C16 UNL     1      26.469   0.128  51.959  1.00  0.00     0.029 A 
HETATM   28  C17 UNL     1      27.302  -0.669  52.755  1.00  0.00     0.004 A 
HETATM   29  C18 UNL     1      28.256  -0.003  53.531  1.00  0.00     0.024 A 
HETATM   30  C19 UNL     1      28.303   1.368  53.455  1.00  0.00     0.036 A 
HETATM   31 CL1  UNL     1      29.504   2.210  54.435  1.00  0.00    -0.084 Cl
HETATM   32  C20 UNL     1      27.486   2.148  52.673  1.00  0.00     0.053 A 
ENDBRANCH  24  26
ENDBRANCH   9  24
TORSDOF 6
ENDMDL
MODEL 7
REMARK VINA RESULT:      -8.2      5.576      8.486
REMARK  6 active torsions:
REMARK  status: ('A' for Active; 'I' for Inactive)
REMARK    1  A    between atoms: O1_2  and  C2_3 
REMARK    2  A    between atoms: C7_8  and  C8_9 
REMARK    3  A    between atoms: C8_9  and  N1_10 
REMARK    4  A    between atoms: N1_10  and  C9_11 
REMARK    5  A    between atoms: C14_19  and  N4_20 
REMARK    6  A    between atoms: N4_20  and  C15_21 
ROOT
HETATM    1  C9  UNL     1      29.410   6.709  47.964  1.00  0.00     0.018 C 
HETATM    2  C10 UNL     1      28.871   7.903  48.106  1.00  0.00    -0.041 C 
HETATM    3  C11 UNL     1      29.780   9.091  47.893  1.00  0.00     0.047 C 
HETATM    4  C12 UNL     1      27.492   8.314  48.320  1.00  0.00     0.184 C 
HETATM    5  N2  UNL     1      27.196   8.886  49.573  1.00  0.00    -0.295 NA
HETATM    6  C13 UNL     1      26.078   8.640  50.208  1.00  0.00     0.137 C 
HETATM    7  P1  UNL     1      25.078   7.507  49.203  1.00  0.00     0.041 P 
HETATM    8  N3  UNL     1      25.264   5.805  49.427  1.00  0.00    -0.242 NA
HETATM    9  C14 UNL     1      26.233   5.062  49.132  1.00  0.00     0.124 C 
HETATM   10  C21 UNL     1      27.600   4.715  48.661  1.00  0.00     0.035 C 
HETATM   11  C22 UNL     1      28.383   5.733  48.355  1.00  0.00     0.075 C 
HETATM   12  H17 UNL     1      23.718   7.959  49.004  1.00  0.00     0.088 HD
ENDROOT
BRANCH   1  13
HETATM   13  N1  UNL     1      30.807   6.508  47.612  1.00  0.00    -0.388 N 
HETATM   14  H10 UNL     1      30.862   6.963  46.679  1.00  0.00     0.159 HD
BRANCH  13  15
HETATM   15  C8  UNL     1      31.584   5.794  48.605  1.00  0.00     0.161 C 
BRANCH  15  16
HETATM   16  C7  UNL     1      32.463   4.779  47.989  1.00  0.00    -0.007 A 
HETATM   17  C2  UNL     1      33.851   4.809  48.181  1.00  0.00     0.076 A 
HETATM   18  C3  UNL     1      34.626   3.861  47.547  1.00  0.00     0.037 A 
HETATM   19  C4  UNL     1      34.061   2.897  46.742  1.00  0.00     0.003 A 
HETATM   20  C5  UNL     1      32.712   2.814  46.515  1.00  0.00     0.001 A 
HETATM   21  C6  UNL     1      31.950   3.794  47.172  1.00  0.00     0.011 A 
BRANCH  17  22
HETATM   22  O1  UNL     1      34.406   5.763  48.985  1.00  0.00    -0.355 OA
HETATM   23  C1  UNL     1      35.435   6.646  48.583  1.00  0.00     0.210 C 
ENDBRANCH  17  22
ENDBRANCH  15  16
ENDBRANCH  13  15
ENDBRANCH   1  13
BRANCH   9  24
HETATM   24  N4  UNL     1      25.596   3.830  49.623  1.00  0.00    -0.341 N 
HETATM   25  H18 UNL     1      24.915   3.297  48.996  1.00  0.00     0.167 HD
BRANCH  24  26
HETATM   26  C15 UNL     1      25.735   3.142  50.895  1.00  0.00     0.035 A 
HETATM   27  C16 UNL     1      24.610   3.263  51.718  1.00  0.00     0.029 A 
HETATM   28  C17 UNL     1      24.506   2.699  52.997  1.00  0.00     0.004 A 
HETATM   29  C18 UNL     1      25.609   1.974  53.458  1.00  0.00     0.024 A 
HETATM   30  C19 UNL     1      26.702   1.871  52.630  1.00  0.00     0.036 A 
HETATM   31 CL1  UNL     1      28.096   0.960  53.211  1.00  0.00    -0.084 Cl
HETATM   32  C20 UNL     1      26.802   2.425  51.377  1.00  0.00     0.053 A 
ENDBRANCH  24  26
ENDBRANCH   9  24
TORSDOF 6
ENDMDL
MODEL 8
REMARK VINA RESULT:      -8.2      2.367      3.441
REMARK  6 active torsions:
REMARK  status: ('A' for Active; 'I' for Inactive)
REMARK    1  A    between atoms: O1_2  and  C2_3 
REMARK    2  A    between atoms: C7_8  and  C8_9 
REMARK    3  A    between atoms: C8_9  and  N1_10 
REMARK    4  A    between atoms: N1_10  and  C9_11 
REMARK    5  A    between atoms: C14_19  and  N4_20 
REMARK    6  A    between atoms: N4_20  and  C15_21 
ROOT
HETATM    1  C9  UNL     1      24.623   1.620  52.077  1.00  0.00     0.018 C 
HETATM    2  C10 UNL     1      23.411   2.138  52.068  1.00  0.00    -0.041 C 
HETATM    3  C11 UNL     1      22.349   1.400  52.847  1.00  0.00     0.047 C 
HETATM    4  C12 UNL     1      22.909   3.392  51.530  1.00  0.00     0.184 C 
HETATM    5  N2  UNL     1      22.033   3.296  50.430  1.00  0.00    -0.295 NA
HETATM    6  C13 UNL     1      22.072   4.139  49.430  1.00  0.00     0.137 C 
HETATM    7  P1  UNL     1      23.380   5.357  49.747  1.00  0.00     0.041 P 
HETATM    8  N3  UNL     1      24.979   5.032  49.182  1.00  0.00    -0.242 NA
HETATM    9  C14 UNL     1      25.808   4.176  49.581  1.00  0.00     0.124 C 
HETATM   10  C21 UNL     1      26.313   3.019  50.365  1.00  0.00     0.035 C 
HETATM   11  C22 UNL     1      25.433   2.422  51.148  1.00  0.00     0.075 C 
HETATM   12  H17 UNL     1      22.940   6.727  49.603  1.00  0.00     0.088 HD
ENDROOT
BRANCH   1  13
HETATM   13  N1  UNL     1      24.958   0.401  52.798  1.00  0.00    -0.388 N 
HETATM   14  H10 UNL     1      24.325  -0.293  52.352  1.00  0.00     0.159 HD
BRANCH  13  15
HETATM   15  C8  UNL     1      25.979   0.560  53.813  1.00  0.00     0.161 C 
BRANCH  15  16
HETATM   16  C7  UNL     1      27.092  -0.393  53.625  1.00  0.00    -0.007 A 
HETATM   17  C2  UNL     1      28.378  -0.109  54.106  1.00  0.00     0.076 A 
HETATM   18  C3  UNL     1      29.389  -1.017  53.866  1.00  0.00     0.037 A 
HETATM   19  C4  UNL     1      29.152  -2.183  53.172  1.00  0.00     0.003 A 
HETATM   20  C5  UNL     1      27.919  -2.518  52.677  1.00  0.00     0.001 A 
HETATM   21  C6  UNL     1      26.912  -1.573  52.936  1.00  0.00     0.011 A 
BRANCH  17  22
HETATM   22  O1  UNL     1      28.606   1.045  54.799  1.00  0.00    -0.355 OA
HETATM   23  C1  UNL     1      29.345   2.143  54.300  1.00  0.00     0.210 C 
ENDBRANCH  17  22
ENDBRANCH  15  16
ENDBRANCH  13  15
ENDBRANCH   1  13
BRANCH   9  24
HETATM   24  N4  UNL     1      26.855   4.566  48.623  1.00  0.00    -0.341 N 
HETATM   25  H18 UNL     1      27.095   3.923  47.806  1.00  0.00     0.167 HD
BRANCH  24  26
HETATM   26  C15 UNL     1      27.681   5.761  48.569  1.00  0.00     0.035 A 
HETATM   27  C16 UNL     1      29.034   5.490  48.339  1.00  0.00     0.029 A 
HETATM   28  C17 UNL     1      30.030   6.472  48.256  1.00  0.00     0.004 A 
HETATM   29  C18 UNL     1      29.621   7.800  48.416  1.00  0.00     0.024 A 
HETATM   30  C19 UNL     1      28.287   8.038  48.642  1.00  0.00     0.036 A 
HETATM   31 CL1  UNL     1      27.770   9.712  48.848  1.00  0.00    -0.084 Cl
HETATM   32  C20 UNL     1      27.312   7.075  48.723  1.00  0.00     0.053 A 
ENDBRANCH  24  26
ENDBRANCH   9  24
TORSDOF 6
ENDMDL
MODEL 9
REMARK VINA RESULT:      -8.1      2.857      7.001
REMARK  6 active torsions:
REMARK  status: ('A' for Active; 'I' for Inactive)
REMARK    1  A    between atoms: O1_2  and  C2_3 
REMARK    2  A    between atoms: C7_8  and  C8_9 
REMARK    3  A    between atoms: C8_9  and  N1_10 
REMARK    4  A    between atoms: N1_10  and  C9_11 
REMARK    5  A    between atoms: C14_19  and  N4_20 
REMARK    6  A    between atoms: N4_20  and  C15_21 
ROOT
HETATM    1  C9  UNL     1      22.970   3.044  52.150  1.00  0.00     0.018 C 
HETATM    2  C10 UNL     1      21.755   2.559  52.303  1.00  0.00    -0.041 C 
HETATM    3  C11 UNL     1      20.606   3.482  51.975  1.00  0.00     0.047 C 
HETATM    4  C12 UNL     1      21.291   1.218  52.625  1.00  0.00     0.184 C 
HETATM    5  N2  UNL     1      20.675   1.054  53.882  1.00  0.00    -0.295 NA
HETATM    6  C13 UNL     1      20.865  -0.010  54.620  1.00  0.00     0.137 C 
HETATM    7  P1  UNL     1      21.990  -1.132  53.742  1.00  0.00     0.041 P 
HETATM    8  N3  UNL     1      23.691  -0.981  54.000  1.00  0.00    -0.242 NA
HETATM    9  C14 UNL     1      24.475  -0.067  53.643  1.00  0.00     0.124 C 
HETATM   10  C21 UNL     1      24.881   1.241  53.064  1.00  0.00     0.035 C 
HETATM   11  C22 UNL     1      23.900   2.026  52.659  1.00  0.00     0.075 C 
HETATM   12  H17 UNL     1      21.497  -2.489  53.651  1.00  0.00     0.088 HD
ENDROOT
BRANCH   1  13
HETATM   13  N1  UNL     1      23.229   4.398  51.683  1.00  0.00    -0.388 N 
HETATM   14  H10 UNL     1      22.786   4.971  52.428  1.00  0.00     0.159 HD
BRANCH  13  15
HETATM   15  C8  UNL     1      23.959   4.477  50.434  1.00  0.00     0.161 C 
BRANCH  15  16
HETATM   16  C7  UNL     1      23.121   4.078  49.284  1.00  0.00    -0.007 A 
HETATM   17  C2  UNL     1      22.145   4.939  48.764  1.00  0.00     0.076 A 
HETATM   18  C3  UNL     1      21.365   4.498  47.716  1.00  0.00     0.037 A 
HETATM   19  C4  UNL     1      21.533   3.240  47.180  1.00  0.00     0.003 A 
HETATM   20  C5  UNL     1      22.469   2.353  47.642  1.00  0.00     0.001 A 
HETATM   21  C6  UNL     1      23.247   2.831  48.710  1.00  0.00     0.011 A 
BRANCH  17  22
HETATM   22  O1  UNL     1      21.986   6.187  49.295  1.00  0.00    -0.355 OA
HETATM   23  C1  UNL     1      20.809   6.637  49.937  1.00  0.00     0.210 C 
ENDBRANCH  17  22
ENDBRANCH  15  16
ENDBRANCH  13  15
ENDBRANCH   1  13
BRANCH   9  24
HETATM   24  N4  UNL     1      25.669  -0.697  54.225  1.00  0.00    -0.341 N 
HETATM   25  H18 UNL     1      25.565  -1.541  54.870  1.00  0.00     0.167 HD
BRANCH  24  26
HETATM   26  C15 UNL     1      27.076  -0.369  54.068  1.00  0.00     0.035 A 
HETATM   27  C16 UNL     1      27.803  -1.349  53.385  1.00  0.00     0.029 A 
HETATM   28  C17 UNL     1      29.176  -1.270  53.119  1.00  0.00     0.004 A 
HETATM   29  C18 UNL     1      29.841  -0.127  53.575  1.00  0.00     0.024 A 
HETATM   30  C19 UNL     1      29.105   0.821  54.244  1.00  0.00     0.036 A 
HETATM   31 CL1  UNL     1      29.943   2.261  54.823  1.00  0.00    -0.084 Cl
HETATM   32  C20 UNL     1      27.759   0.741  54.504  1.00  0.00     0.053 A 
ENDBRANCH  24  26
ENDBRANCH   9  24
TORSDOF 6
ENDMDL
