MODEL 1
REMARK VINA RESULT:      -8.2      0.000      0.000
REMARK  8 active torsions:
REMARK  status: ('A' for Active; 'I' for Inactive)
REMARK    1  A    between atoms: C2_2  and  N1_3 
REMARK    2  A    between atoms: N1_3  and  C3_4 
REMARK    3  A    between atoms: C3_4  and  N2_5 
REMARK    4  A    between atoms: C7_10  and  C8_11 
REMARK    5  A    between atoms: C13_16  and  C14_17 
REMARK    6  A    between atoms: C14_17  and  C15_18 
REMARK    7  A    between atoms: C16_19  and  C17_20 
REMARK    8  A    between atoms: C18_21  and  C19_22 
ROOT
HETATM    1  N2  UNL     1      25.470   1.759  52.785  1.00  0.00    -0.329 N 
HETATM    2  C4  UNL     1      24.610   0.770  53.106  1.00  0.00     0.044 A 
HETATM    3  N3  UNL     1      23.497   0.466  52.656  1.00  0.00     0.000 N 
HETATM    4  C5  UNL     1      22.664   0.804  51.814  1.00  0.00    -0.046 A 
HETATM    5  C6  UNL     1      22.259  -0.279  52.523  1.00  0.00     0.034 A 
HETATM    6  C7  UNL     1      23.043  -0.871  53.561  1.00  0.00     0.016 A 
HETATM    7  C8  UNL     1      24.309  -0.306  53.876  1.00  0.00     0.018 A 
HETATM    8  C9  UNL     1      25.442  -0.416  54.717  1.00  0.00     0.023 C 
HETATM    9  C10 UNL     1      22.954   1.920  51.000  1.00  0.00     0.014 C 
HETATM   10  C11 UNL     1      24.061   2.658  50.952  1.00  0.00    -0.035 C 
HETATM   11  C12 UNL     1      23.694   3.405  49.758  1.00  0.00     0.048 C 
HETATM   12  C13 UNL     1      25.010   3.953  49.231  1.00  0.00     0.033 C 
HETATM   13  C20 UNL     1      26.181   3.218  49.671  1.00  0.00     0.091 C 
HETATM   14  N5  UNL     1      26.347   2.684  50.785  1.00  0.00    -0.275 NA
HETATM   15  C21 UNL     1      25.300   2.775  51.770  1.00  0.00     0.238 C 
ENDROOT
BRANCH  12  16
HETATM   16  C14 UNL     1      25.033   5.440  49.506  1.00  0.00     0.037 C 
BRANCH  16  17
HETATM   17  C15 UNL     1      26.385   5.950  49.206  1.00  0.00    -0.026 C 
HETATM   18  C16 UNL     1      26.549   7.281  49.147  1.00  0.00    -0.004 C 
BRANCH  18  19
HETATM   19  C17 UNL     1      27.845   7.920  48.855  1.00  0.00     0.001 C 
HETATM   20  C18 UNL     1      28.297   8.979  49.486  1.00  0.00     0.019 C 
BRANCH  20  21
HETATM   21  C19 UNL     1      29.579   9.561  49.154  1.00  0.00     0.107 C 
HETATM   22  N4  UNL     1      30.431   9.872  50.058  1.00  0.00    -0.312 NA
HETATM   23  H25 UNL     1      30.236   9.715  51.089  1.00  0.00     0.186 HD
ENDBRANCH  20  21
ENDBRANCH  18  19
ENDBRANCH  16  17
ENDBRANCH  12  16
BRANCH   1  24
HETATM   24  C3  UNL     1      26.415   1.337  53.788  1.00  0.00     0.397 C 
BRANCH  24  25
HETATM   25  N1  UNL     1      27.241   2.606  53.844  1.00  0.00     0.100 N 
HETATM   26  H6  UNL     1      27.111   3.088  54.727  1.00  0.00     0.318 HD
BRANCH  25  27
HETATM   27  C2  UNL     1      28.640   2.265  53.705  1.00  0.00     0.267 C 
HETATM   28  C1  UNL     1      29.026   0.939  54.268  1.00  0.00     0.037 C 
ENDBRANCH  25  27
ENDBRANCH  24  25
ENDBRANCH   1  24
TORSDOF 8
ENDMDL
MODEL 2
REMARK VINA RESULT:      -8.0      2.183      4.364
REMARK  8 active torsions:
REMARK  status: ('A' for Active; 'I' for Inactive)
REMARK    1  A    between atoms: C2_2  and  N1_3 
REMARK    2  A    between atoms: N1_3  and  C3_4 
REMARK    3  A    between atoms: C3_4  and  N2_5 
REMARK    4  A    between atoms: C7_10  and  C8_11 
REMARK    5  A    between atoms: C13_16  and  C14_17 
REMARK    6  A    between atoms: C14_17  and  C15_18 
REMARK    7  A    between atoms: C16_19  and  C17_20 
REMARK    8  A    between atoms: C18_21  and  C19_22 
ROOT
HETATM    1  N2  UNL     1      22.394   0.445  52.445  1.00  0.00    -0.329 N 
HETATM    2  C4  UNL     1      22.645  -0.317  53.530  1.00  0.00     0.044 A 
HETATM    3  N3  UNL     1      23.687  -0.534  54.163  1.00  0.00     0.000 N 
HETATM    4  C5  UNL     1      24.884  -0.247  54.191  1.00  0.00    -0.046 A 
HETATM    5  C6  UNL     1      24.544  -1.101  55.187  1.00  0.00     0.034 A 
HETATM    6  C7  UNL     1      23.214  -1.589  55.378  1.00  0.00     0.016 A 
HETATM    7  C8  UNL     1      22.191  -1.167  54.485  1.00  0.00     0.018 A 
HETATM    8  C9  UNL     1      20.817  -1.287  54.169  1.00  0.00     0.023 C 
HETATM    9  C10 UNL     1      25.382   0.637  53.209  1.00  0.00     0.014 C 
HETATM   10  C11 UNL     1      24.720   1.289  52.255  1.00  0.00    -0.035 C 
HETATM   11  C12 UNL     1      25.832   2.134  51.849  1.00  0.00     0.048 C 
HETATM   12  C13 UNL     1      25.181   3.296  51.117  1.00  0.00     0.033 C 
HETATM   13  C20 UNL     1      23.789   3.515  51.464  1.00  0.00     0.091 C 
HETATM   14  N5  UNL     1      22.944   2.639  51.728  1.00  0.00    -0.275 NA
HETATM   15  C21 UNL     1      23.337   1.253  51.703  1.00  0.00     0.238 C 
ENDROOT
BRANCH  12  16
HETATM   16  C14 UNL     1      25.466   3.128  49.641  1.00  0.00     0.037 C 
BRANCH  16  17
HETATM   17  C15 UNL     1      26.686   3.891  49.312  1.00  0.00    -0.026 C 
HETATM   18  C16 UNL     1      26.531   5.145  48.858  1.00  0.00    -0.004 C 
BRANCH  18  19
HETATM   19  C17 UNL     1      27.664   6.014  48.493  1.00  0.00     0.001 C 
HETATM   20  C18 UNL     1      28.906   5.598  48.400  1.00  0.00     0.019 C 
BRANCH  20  21
HETATM   21  C19 UNL     1      29.976   6.500  48.037  1.00  0.00     0.107 C 
HETATM   22  N4  UNL     1      30.618   7.173  48.917  1.00  0.00    -0.312 NA
HETATM   23  H25 UNL     1      30.393   7.099  49.952  1.00  0.00     0.186 HD
ENDBRANCH  20  21
ENDBRANCH  18  19
ENDBRANCH  16  17
ENDBRANCH  12  16
BRANCH   1  24
HETATM   24  C3  UNL     1      21.001   0.078  52.441  1.00  0.00     0.397 C 
BRANCH  24  25
HETATM   25  N1  UNL     1      20.690   0.450  51.006  1.00  0.00     0.100 N 
HETATM   26  H6  UNL     1      20.800  -0.347  50.389  1.00  0.00     0.318 HD
BRANCH  25  27
HETATM   27  C2  UNL     1      19.322   0.914  50.924  1.00  0.00     0.267 C 
HETATM   28  C1  UNL     1      18.294  -0.068  51.376  1.00  0.00     0.037 C 
ENDBRANCH  25  27
ENDBRANCH  24  25
ENDBRANCH   1  24
TORSDOF 8
ENDMDL
MODEL 3
REMARK VINA RESULT:      -7.9      2.672      7.791
REMARK  8 active torsions:
REMARK  status: ('A' for Active; 'I' for Inactive)
REMARK    1  A    between atoms: C2_2  and  N1_3 
REMARK    2  A    between atoms: N1_3  and  C3_4 
REMARK    3  A    between atoms: C3_4  and  N2_5 
REMARK    4  A    between atoms: C7_10  and  C8_11 
REMARK    5  A    between atoms: C13_16  and  C14_17 
REMARK    6  A    between atoms: C14_17  and  C15_18 
REMARK    7  A    between atoms: C16_19  and  C17_20 
REMARK    8  A    between atoms: C18_21  and  C19_22 
ROOT
HETATM    1  N2  UNL     1      24.479   5.810  50.753  1.00  0.00    -0.329 N 
HETATM    2  C4  UNL     1      25.428   6.185  49.870  1.00  0.00     0.044 A 
HETATM    3  N3  UNL     1      26.344   5.554  49.325  1.00  0.00     0.000 N 
HETATM    4  C5  UNL     1      26.848   4.432  49.263  1.00  0.00    -0.046 A 
HETATM    5  C6  UNL     1      27.495   5.323  48.473  1.00  0.00     0.034 A 
HETATM    6  C7  UNL     1      27.109   6.695  48.364  1.00  0.00     0.016 A 
HETATM    7  C8  UNL     1      25.996   7.160  49.116  1.00  0.00     0.018 A 
HETATM    8  C9  UNL     1      25.202   8.292  49.418  1.00  0.00     0.023 C 
HETATM    9  C10 UNL     1      26.274   3.400  50.037  1.00  0.00     0.014 C 
HETATM   10  C11 UNL     1      25.188   3.433  50.807  1.00  0.00    -0.035 C 
HETATM   11  C12 UNL     1      25.125   1.999  51.043  1.00  0.00     0.048 C 
HETATM   12  C13 UNL     1      23.692   1.748  51.484  1.00  0.00     0.033 C 
HETATM   13  C20 UNL     1      22.751   2.769  51.064  1.00  0.00     0.091 C 
HETATM   14  N5  UNL     1      22.972   3.992  50.980  1.00  0.00    -0.275 NA
HETATM   15  C21 UNL     1      24.279   4.495  51.320  1.00  0.00     0.238 C 
ENDROOT
BRANCH  12  16
HETATM   16  C14 UNL     1      23.713   1.450  52.967  1.00  0.00     0.037 C 
BRANCH  16  17
HETATM   17  C15 UNL     1      24.979   0.761  53.286  1.00  0.00    -0.026 C 
HETATM   18  C16 UNL     1      25.049  -0.556  53.036  1.00  0.00    -0.004 C 
BRANCH  18  19
HETATM   19  C17 UNL     1      26.251  -1.364  53.308  1.00  0.00     0.001 C 
HETATM   20  C18 UNL     1      27.433  -1.114  52.796  1.00  0.00     0.019 C 
BRANCH  20  21
HETATM   21  C19 UNL     1      28.577  -1.944  53.102  1.00  0.00     0.107 C 
HETATM   22  N4  UNL     1      28.515  -3.222  53.044  1.00  0.00    -0.312 NA
HETATM   23  H25 UNL     1      27.624  -3.728  52.769  1.00  0.00     0.186 HD
ENDBRANCH  20  21
ENDBRANCH  18  19
ENDBRANCH  16  17
ENDBRANCH  12  16
BRANCH   1  24
HETATM   24  C3  UNL     1      23.925   7.139  50.805  1.00  0.00     0.397 C 
BRANCH  24  25
HETATM   25  N1  UNL     1      22.602   6.789  51.455  1.00  0.00     0.100 N 
HETATM   26  H6  UNL     1      22.574   7.102  52.420  1.00  0.00     0.318 HD
BRANCH  25  27
HETATM   27  C2  UNL     1      21.532   7.436  50.728  1.00  0.00     0.267 C 
HETATM   28  C1  UNL     1      20.821   6.567  49.745  1.00  0.00     0.037 C 
ENDBRANCH  25  27
ENDBRANCH  24  25
ENDBRANCH   1  24
TORSDOF 8
ENDMDL
MODEL 4
REMARK VINA RESULT:      -7.7      2.399      3.295
REMARK  8 active torsions:
REMARK  status: ('A' for Active; 'I' for Inactive)
REMARK    1  A    between atoms: C2_2  and  N1_3 
REMARK    2  A    between atoms: N1_3  and  C3_4 
REMARK    3  A    between atoms: C3_4  and  N2_5 
REMARK    4  A    between atoms: C7_10  and  C8_11 
REMARK    5  A    between atoms: C13_16  and  C14_17 
REMARK    6  A    between atoms: C14_17  and  C15_18 
REMARK    7  A    between atoms: C16_19  and  C17_20 
REMARK    8  A    between atoms: C18_21  and  C19_22 
ROOT
HETATM    1  N2  UNL     1      25.783   1.798  52.795  1.00  0.00    -0.329 N 
HETATM    2  C4  UNL     1      24.839   0.876  53.080  1.00  0.00     0.044 A 
HETATM    3  N3  UNL     1      23.706   0.686  52.620  1.00  0.00     0.000 N 
HETATM    4  C5  UNL     1      22.907   1.125  51.792  1.00  0.00    -0.046 A 
HETATM    5  C6  UNL     1      22.408   0.056  52.460  1.00  0.00     0.034 A 
HETATM    6  C7  UNL     1      23.135  -0.640  53.474  1.00  0.00     0.016 A 
HETATM    7  C8  UNL     1      24.445  -0.198  53.809  1.00  0.00     0.018 A 
HETATM    8  C9  UNL     1      25.562  -0.436  54.645  1.00  0.00     0.023 C 
HETATM    9  C10 UNL     1      23.294   2.242  51.019  1.00  0.00     0.014 C 
HETATM   10  C11 UNL     1      24.461   2.883  50.998  1.00  0.00    -0.035 C 
HETATM   11  C12 UNL     1      24.162   3.703  49.834  1.00  0.00     0.048 C 
HETATM   12  C13 UNL     1      25.522   4.155  49.326  1.00  0.00     0.033 C 
HETATM   13  C20 UNL     1      26.624   3.305  49.737  1.00  0.00     0.091 C 
HETATM   14  N5  UNL     1      26.741   2.719  50.830  1.00  0.00    -0.275 NA
HETATM   15  C21 UNL     1      25.703   2.862  51.819  1.00  0.00     0.238 C 
ENDROOT
BRANCH  12  16
HETATM   16  C14 UNL     1      25.672   5.623  49.657  1.00  0.00     0.037 C 
BRANCH  16  17
HETATM   17  C15 UNL     1      24.355   6.273  49.501  1.00  0.00    -0.026 C 
HETATM   18  C16 UNL     1      24.062   7.289  50.328  1.00  0.00    -0.004 C 
BRANCH  18  19
HETATM   19  C17 UNL     1      22.785   8.022  50.280  1.00  0.00     0.001 C 
HETATM   20  C18 UNL     1      21.615   7.446  50.125  1.00  0.00     0.019 C 
BRANCH  20  21
HETATM   21  C19 UNL     1      20.395   8.221  50.086  1.00  0.00     0.107 C 
HETATM   22  N4  UNL     1      20.247   9.206  49.281  1.00  0.00    -0.312 NA
HETATM   23  H25 UNL     1      21.013   9.497  48.606  1.00  0.00     0.186 HD
ENDBRANCH  20  21
ENDBRANCH  18  19
ENDBRANCH  16  17
ENDBRANCH  12  16
BRANCH   1  24
HETATM   24  C3  UNL     1      26.685   1.260  53.781  1.00  0.00     0.397 C 
BRANCH  24  25
HETATM   25  N1  UNL     1      27.584   2.471  53.926  1.00  0.00     0.100 N 
HETATM   26  H6  UNL     1      27.445   2.924  54.822  1.00  0.00     0.318 HD
BRANCH  25  27
HETATM   27  C2  UNL     1      28.964   2.048  53.829  1.00  0.00     0.267 C 
HETATM   28  C1  UNL     1      29.173   0.571  53.800  1.00  0.00     0.037 C 
ENDBRANCH  25  27
ENDBRANCH  24  25
ENDBRANCH   1  24
TORSDOF 8
ENDMDL
MODEL 5
REMARK VINA RESULT:      -7.4      3.964      7.264
REMARK  8 active torsions:
REMARK  status: ('A' for Active; 'I' for Inactive)
REMARK    1  A    between atoms: C2_2  and  N1_3 
REMARK    2  A    between atoms: N1_3  and  C3_4 
REMARK    3  A    between atoms: C3_4  and  N2_5 
REMARK    4  A    between atoms: C7_10  and  C8_11 
REMARK    5  A    between atoms: C13_16  and  C14_17 
REMARK    6  A    between atoms: C14_17  and  C15_18 
REMARK    7  A    between atoms: C16_19  and  C17_20 
REMARK    8  A    between atoms: C18_21  and  C19_22 
ROOT
HETATM    1  N2  UNL     1      23.628   0.978  52.306  1.00  0.00    -0.329 N 
HETATM    2  C4  UNL     1      23.804   0.153  53.359  1.00  0.00     0.044 A 
HETATM    3  N3  UNL     1      22.997  -0.435  54.091  1.00  0.00     0.000 N 
HETATM    4  C5  UNL     1      21.790  -0.598  54.271  1.00  0.00    -0.046 A 
HETATM    5  C6  UNL     1      22.535  -1.285  55.171  1.00  0.00     0.034 A 
HETATM    6  C7  UNL     1      23.964  -1.266  55.181  1.00  0.00     0.016 A 
HETATM    7  C8  UNL     1      24.648  -0.490  54.205  1.00  0.00     0.018 A 
HETATM    8  C9  UNL     1      25.923  -0.093  53.737  1.00  0.00     0.023 C 
HETATM    9  C10 UNL     1      20.891   0.059  53.404  1.00  0.00     0.014 C 
HETATM   10  C11 UNL     1      21.153   0.810  52.336  1.00  0.00    -0.035 C 
HETATM   11  C12 UNL     1      19.777   0.902  51.872  1.00  0.00     0.048 C 
HETATM   12  C13 UNL     1      19.893   1.291  50.407  1.00  0.00     0.033 C 
HETATM   13  C20 UNL     1      21.168   0.957  49.801  1.00  0.00     0.091 C 
HETATM   14  N5  UNL     1      22.285   0.998  50.351  1.00  0.00    -0.275 NA
HETATM   15  C21 UNL     1      22.374   1.409  51.729  1.00  0.00     0.238 C 
ENDROOT
BRANCH  12  16
HETATM   16  C14 UNL     1      19.469   2.738  50.281  1.00  0.00     0.037 C 
BRANCH  16  17
HETATM   17  C15 UNL     1      18.236   2.933  51.068  1.00  0.00    -0.026 C 
HETATM   18  C16 UNL     1      17.614   4.118  50.966  1.00  0.00    -0.004 C 
BRANCH  18  19
HETATM   19  C17 UNL     1      16.377   4.444  51.698  1.00  0.00     0.001 C 
HETATM   20  C18 UNL     1      15.770   3.615  52.516  1.00  0.00     0.019 C 
BRANCH  20  21
HETATM   21  C19 UNL     1      14.558   3.994  53.206  1.00  0.00     0.107 C 
HETATM   22  N4  UNL     1      14.585   4.657  54.301  1.00  0.00    -0.312 NA
HETATM   23  H25 UNL     1      15.498   4.960  54.750  1.00  0.00     0.186 HD
ENDBRANCH  20  21
ENDBRANCH  18  19
ENDBRANCH  16  17
ENDBRANCH  12  16
BRANCH   1  24
HETATM   24  C3  UNL     1      25.049   1.151  52.134  1.00  0.00     0.397 C 
BRANCH  24  25
HETATM   25  N1  UNL     1      25.002   2.296  51.142  1.00  0.00     0.100 N 
HETATM   26  H6  UNL     1      24.541   3.106  51.541  1.00  0.00     0.318 HD
BRANCH  25  27
HETATM   27  C2  UNL     1      26.353   2.662  50.779  1.00  0.00     0.267 C 
HETATM   28  C1  UNL     1      26.464   3.621  49.642  1.00  0.00     0.037 C 
ENDBRANCH  25  27
ENDBRANCH  24  25
ENDBRANCH   1  24
TORSDOF 8
ENDMDL
MODEL 6
REMARK VINA RESULT:      -7.4      3.043      7.449
REMARK  8 active torsions:
REMARK  status: ('A' for Active; 'I' for Inactive)
REMARK    1  A    between atoms: C2_2  and  N1_3 
REMARK    2  A    between atoms: N1_3  and  C3_4 
REMARK    3  A    between atoms: C3_4  and  N2_5 
REMARK    4  A    between atoms: C7_10  and  C8_11 
REMARK    5  A    between atoms: C13_16  and  C14_17 
REMARK    6  A    between atoms: C14_17  and  C15_18 
REMARK    7  A    between atoms: C16_19  and  C17_20 
REMARK    8  A    between atoms: C18_21  and  C19_22 
ROOT
HETATM    1  N2  UNL     1      23.714   5.509  49.143  1.00  0.00    -0.329 N 
HETATM    2  C4  UNL     1      23.056   5.220  48.001  1.00  0.00     0.044 A 
HETATM    3  N3  UNL     1      22.485   4.192  47.614  1.00  0.00     0.000 N 
HETATM    4  C5  UNL     1      22.218   3.040  47.960  1.00  0.00    -0.046 A 
HETATM    5  C6  UNL     1      21.737   3.323  46.725  1.00  0.00     0.034 A 
HETATM    6  C7  UNL     1      21.911   4.591  46.090  1.00  0.00     0.016 A 
HETATM    7  C8  UNL     1      22.622   5.614  46.777  1.00  0.00     0.018 A 
HETATM    8  C9  UNL     1      23.090   6.947  46.692  1.00  0.00     0.023 C 
HETATM    9  C10 UNL     1      22.658   2.607  49.230  1.00  0.00     0.014 C 
HETATM   10  C11 UNL     1      23.287   3.296  50.180  1.00  0.00    -0.035 C 
HETATM   11  C12 UNL     1      23.170   2.275  51.210  1.00  0.00     0.048 C 
HETATM   12  C13 UNL     1      23.376   3.026  52.516  1.00  0.00     0.033 C 
HETATM   13  C20 UNL     1      23.105   4.449  52.435  1.00  0.00     0.091 C 
HETATM   14  N5  UNL     1      23.337   5.194  51.463  1.00  0.00    -0.275 NA
HETATM   15  C21 UNL     1      23.930   4.636  50.275  1.00  0.00     0.238 C 
ENDROOT
BRANCH  12  16
HETATM   16  C14 UNL     1      24.741   2.652  53.052  1.00  0.00     0.037 C 
BRANCH  16  17
HETATM   17  C15 UNL     1      24.920   1.195  52.893  1.00  0.00    -0.026 C 
HETATM   18  C16 UNL     1      26.155   0.747  52.620  1.00  0.00    -0.004 C 
BRANCH  18  19
HETATM   19  C17 UNL     1      26.472  -0.681  52.437  1.00  0.00     0.001 C 
HETATM   20  C18 UNL     1      27.531  -1.267  52.945  1.00  0.00     0.019 C 
BRANCH  20  21
HETATM   21  C19 UNL     1      27.787  -2.674  52.731  1.00  0.00     0.107 C 
HETATM   22  N4  UNL     1      28.708  -3.296  53.367  1.00  0.00    -0.312 NA
HETATM   23  H25 UNL     1      29.323  -2.807  54.081  1.00  0.00     0.186 HD
ENDBRANCH  20  21
ENDBRANCH  18  19
ENDBRANCH  16  17
ENDBRANCH  12  16
BRANCH   1  24
HETATM   24  C3  UNL     1      24.015   6.846  48.697  1.00  0.00     0.397 C 
BRANCH  24  25
HETATM   25  N1  UNL     1      25.273   7.061  49.513  1.00  0.00     0.100 N 
HETATM   26  H6  UNL     1      25.417   6.301  50.169  1.00  0.00     0.318 HD
BRANCH  25  27
HETATM   27  C2  UNL     1      26.409   7.126  48.621  1.00  0.00     0.267 C 
HETATM   28  C1  UNL     1      27.235   5.885  48.559  1.00  0.00     0.037 C 
ENDBRANCH  25  27
ENDBRANCH  24  25
ENDBRANCH   1  24
TORSDOF 8
ENDMDL
MODEL 7
REMARK VINA RESULT:      -7.3      3.421      6.304
REMARK  8 active torsions:
REMARK  status: ('A' for Active; 'I' for Inactive)
REMARK    1  A    between atoms: C2_2  and  N1_3 
REMARK    2  A    between atoms: N1_3  and  C3_4 
REMARK    3  A    between atoms: C3_4  and  N2_5 
REMARK    4  A    between atoms: C7_10  and  C8_11 
REMARK    5  A    between atoms: C13_16  and  C14_17 
REMARK    6  A    between atoms: C14_17  and  C15_18 
REMARK    7  A    between atoms: C16_19  and  C17_20 
REMARK    8  A    between atoms: C18_21  and  C19_22 
ROOT
HETATM    1  N2  UNL     1      19.777   0.825  50.826  1.00  0.00    -0.329 N 
HETATM    2  C4  UNL     1      18.775   0.130  51.405  1.00  0.00     0.044 A 
HETATM    3  N3  UNL     1      18.734  -0.560  52.431  1.00  0.00     0.000 N 
HETATM    4  C5  UNL     1      19.434  -0.953  53.366  1.00  0.00    -0.046 A 
HETATM    5  C6  UNL     1      18.164  -1.418  53.453  1.00  0.00     0.034 A 
HETATM    6  C7  UNL     1      17.151  -1.107  52.494  1.00  0.00     0.016 A 
HETATM    7  C8  UNL     1      17.480  -0.274  51.390  1.00  0.00     0.018 A 
HETATM    8  C9  UNL     1      16.976   0.333  50.214  1.00  0.00     0.023 C 
HETATM    9  C10 UNL     1      20.785  -0.546  53.405  1.00  0.00     0.014 C 
HETATM   10  C11 UNL     1      21.434   0.285  52.591  1.00  0.00    -0.035 C 
HETATM   11  C12 UNL     1      22.642   0.375  53.398  1.00  0.00     0.048 C 
HETATM   12  C13 UNL     1      23.325   1.647  52.922  1.00  0.00     0.033 C 
HETATM   13  C20 UNL     1      22.435   2.598  52.283  1.00  0.00     0.091 C 
HETATM   14  N5  UNL     1      21.461   2.329  51.554  1.00  0.00    -0.275 NA
HETATM   15  C21 UNL     1      21.141   0.949  51.291  1.00  0.00     0.238 C 
ENDROOT
BRANCH  12  16
HETATM   16  C14 UNL     1      24.538   1.243  52.113  1.00  0.00     0.037 C 
BRANCH  16  17
HETATM   17  C15 UNL     1      25.181   2.466  51.595  1.00  0.00    -0.026 C 
HETATM   18  C16 UNL     1      25.128   2.684  50.272  1.00  0.00    -0.004 C 
BRANCH  18  19
HETATM   19  C17 UNL     1      25.730   3.863  49.625  1.00  0.00     0.001 C 
HETATM   20  C18 UNL     1      27.001   3.956  49.308  1.00  0.00     0.019 C 
BRANCH  20  21
HETATM   21  C19 UNL     1      27.533   5.142  48.674  1.00  0.00     0.107 C 
HETATM   22  N4  UNL     1      28.766   5.469  48.785  1.00  0.00    -0.312 NA
HETATM   23  H25 UNL     1      29.453   4.885  49.346  1.00  0.00     0.186 HD
ENDBRANCH  20  21
ENDBRANCH  18  19
ENDBRANCH  16  17
ENDBRANCH  12  16
BRANCH   1  24
HETATM   24  C3  UNL     1      18.928   1.257  49.745  1.00  0.00     0.397 C 
BRANCH  24  25
HETATM   25  N1  UNL     1      20.015   1.703  48.789  1.00  0.00     0.100 N 
HETATM   26  H6  UNL     1      20.043   1.112  47.966  1.00  0.00     0.318 HD
BRANCH  25  27
HETATM   27  C2  UNL     1      19.751   3.063  48.375  1.00  0.00     0.267 C 
HETATM   28  C1  UNL     1      19.422   3.231  46.930  1.00  0.00     0.037 C 
ENDBRANCH  25  27
ENDBRANCH  24  25
ENDBRANCH   1  24
TORSDOF 8
ENDMDL
MODEL 8
REMARK VINA RESULT:      -7.2      3.346      8.121
REMARK  8 active torsions:
REMARK  status: ('A' for Active; 'I' for Inactive)
REMARK    1  A    between atoms: C2_2  and  N1_3 
REMARK    2  A    between atoms: N1_3  and  C3_4 
REMARK    3  A    between atoms: C3_4  and  N2_5 
REMARK    4  A    between atoms: C7_10  and  C8_11 
REMARK    5  A    between atoms: C13_16  and  C14_17 
REMARK    6  A    between atoms: C14_17  and  C15_18 
REMARK    7  A    between atoms: C16_19  and  C17_20 
REMARK    8  A    between atoms: C18_21  and  C19_22 
ROOT
HETATM    1  N2  UNL     1      24.627   2.071  51.902  1.00  0.00    -0.329 N 
HETATM    2  C4  UNL     1      25.421   1.318  52.692  1.00  0.00     0.044 A 
HETATM    3  N3  UNL     1      25.185   0.326  53.394  1.00  0.00     0.000 N 
HETATM    4  C5  UNL     1      24.274  -0.431  53.731  1.00  0.00    -0.046 A 
HETATM    5  C6  UNL     1      25.452  -0.766  54.311  1.00  0.00     0.034 A 
HETATM    6  C7  UNL     1      26.667  -0.047  54.085  1.00  0.00     0.016 A 
HETATM    7  C8  UNL     1      26.650   1.076  53.214  1.00  0.00     0.018 A 
HETATM    8  C9  UNL     1      27.440   2.103  52.644  1.00  0.00     0.023 C 
HETATM    9  C10 UNL     1      22.986  -0.202  53.201  1.00  0.00     0.014 C 
HETATM   10  C11 UNL     1      22.596   0.704  52.306  1.00  0.00    -0.035 C 
HETATM   11  C12 UNL     1      21.260   0.162  52.113  1.00  0.00     0.048 C 
HETATM   12  C13 UNL     1      20.806   0.732  50.779  1.00  0.00     0.033 C 
HETATM   13  C20 UNL     1      21.889   1.144  49.907  1.00  0.00     0.091 C 
HETATM   14  N5  UNL     1      22.967   1.663  50.257  1.00  0.00    -0.275 NA
HETATM   15  C21 UNL     1      23.212   1.895  51.658  1.00  0.00     0.238 C 
ENDROOT
BRANCH  12  16
HETATM   16  C14 UNL     1      19.758   1.786  51.061  1.00  0.00     0.037 C 
BRANCH  16  17
HETATM   17  C15 UNL     1      18.520   1.108  51.494  1.00  0.00    -0.026 C 
HETATM   18  C16 UNL     1      17.946   0.253  50.633  1.00  0.00    -0.004 C 
BRANCH  18  19
HETATM   19  C17 UNL     1      16.709  -0.488  50.937  1.00  0.00     0.001 C 
HETATM   20  C18 UNL     1      16.141  -0.509  52.121  1.00  0.00     0.019 C 
BRANCH  20  21
HETATM   21  C19 UNL     1      14.926  -1.255  52.358  1.00  0.00     0.107 C 
HETATM   22  N4  UNL     1      14.947  -2.442  52.840  1.00  0.00    -0.312 NA
HETATM   23  H25 UNL     1      15.857  -2.930  53.087  1.00  0.00     0.186 HD
ENDBRANCH  20  21
ENDBRANCH  18  19
ENDBRANCH  16  17
ENDBRANCH  12  16
BRANCH   1  24
HETATM   24  C3  UNL     1      25.718   2.939  51.539  1.00  0.00     0.397 C 
BRANCH  24  25
HETATM   25  N1  UNL     1      24.897   4.104  51.025  1.00  0.00     0.100 N 
HETATM   26  H6  UNL     1      25.043   4.932  51.591  1.00  0.00     0.318 HD
BRANCH  25  27
HETATM   27  C2  UNL     1      25.291   4.396  49.664  1.00  0.00     0.267 C 
HETATM   28  C1  UNL     1      26.730   4.148  49.357  1.00  0.00     0.037 C 
ENDBRANCH  25  27
ENDBRANCH  24  25
ENDBRANCH   1  24
TORSDOF 8
ENDMDL
MODEL 9
REMARK VINA RESULT:      -7.1      3.157      8.821
REMARK  8 active torsions:
REMARK  status: ('A' for Active; 'I' for Inactive)
REMARK    1  A    between atoms: C2_2  and  N1_3 
REMARK    2  A    between atoms: N1_3  and  C3_4 
REMARK    3  A    between atoms: C3_4  and  N2_5 
REMARK    4  A    between atoms: C7_10  and  C8_11 
REMARK    5  A    between atoms: C13_16  and  C14_17 
REMARK    6  A    between atoms: C14_17  and  C15_18 
REMARK    7  A    between atoms: C16_19  and  C17_20 
REMARK    8  A    between atoms: C18_21  and  C19_22 
ROOT
HETATM    1  N2  UNL     1      25.822   7.143  48.674  1.00  0.00    -0.329 N 
HETATM    2  C4  UNL     1      27.108   7.154  48.264  1.00  0.00     0.044 A 
HETATM    3  N3  UNL     1      27.973   6.269  48.236  1.00  0.00     0.000 N 
HETATM    4  C5  UNL     1      28.156   5.081  48.503  1.00  0.00    -0.046 A 
HETATM    5  C6  UNL     1      29.270   5.665  47.997  1.00  0.00     0.034 A 
HETATM    6  C7  UNL     1      29.324   7.038  47.605  1.00  0.00     0.016 A 
HETATM    7  C8  UNL     1      28.159   7.841  47.750  1.00  0.00     0.018 A 
HETATM    8  C9  UNL     1      27.626   9.139  47.568  1.00  0.00     0.023 C 
HETATM    9  C10 UNL     1      27.078   4.344  49.039  1.00  0.00     0.014 C 
HETATM   10  C11 UNL     1      25.821   4.730  49.250  1.00  0.00    -0.035 C 
HETATM   11  C12 UNL     1      25.306   3.406  49.565  1.00  0.00     0.048 C 
HETATM   12  C13 UNL     1      23.805   3.521  49.356  1.00  0.00     0.033 C 
HETATM   13  C20 UNL     1      23.406   4.602  48.475  1.00  0.00     0.091 C 
HETATM   14  N5  UNL     1      23.945   5.722  48.385  1.00  0.00    -0.275 NA
HETATM   15  C21 UNL     1      25.084   6.023  49.215  1.00  0.00     0.238 C 
ENDROOT
BRANCH  12  16
HETATM   16  C14 UNL     1      23.149   3.514  50.720  1.00  0.00     0.037 C 
BRANCH  16  17
HETATM   17  C15 UNL     1      23.015   2.114  51.166  1.00  0.00    -0.026 C 
HETATM   18  C16 UNL     1      23.247   1.849  52.462  1.00  0.00    -0.004 C 
BRANCH  18  19
HETATM   19  C17 UNL     1      23.148   0.496  53.037  1.00  0.00     0.001 C 
HETATM   20  C18 UNL     1      22.110   0.061  53.712  1.00  0.00     0.019 C 
BRANCH  20  21
HETATM   21  C19 UNL     1      22.072  -1.280  54.252  1.00  0.00     0.107 C 
HETATM   22  N4  UNL     1      21.080  -1.699  54.945  1.00  0.00    -0.312 NA
HETATM   23  H25 UNL     1      20.241  -1.083  55.153  1.00  0.00     0.186 HD
ENDBRANCH  20  21
ENDBRANCH  18  19
ENDBRANCH  16  17
ENDBRANCH  12  16
BRANCH   1  24
HETATM   24  C3  UNL     1      25.651   8.538  48.357  1.00  0.00     0.397 C 
BRANCH  24  25
HETATM   25  N1  UNL     1      24.352   8.765  49.102  1.00  0.00     0.100 N 
HETATM   26  H6  UNL     1      24.474   9.438  49.851  1.00  0.00     0.318 HD
BRANCH  25  27
HETATM   27  C2  UNL     1      23.360   9.272  48.180  1.00  0.00     0.267 C 
HETATM   28  C1  UNL     1      21.980   9.385  48.735  1.00  0.00     0.037 C 
ENDBRANCH  25  27
ENDBRANCH  24  25
ENDBRANCH   1  24
TORSDOF 8
ENDMDL
