MODEL 1
REMARK VINA RESULT:      -7.1      0.000      0.000
REMARK  4 active torsions:
REMARK  status: ('A' for Active; 'I' for Inactive)
REMARK    1  A    between atoms: O1_2  and  C2_3 
REMARK    2  A    between atoms: C2_3  and  C3_4 
REMARK    3  A    between atoms: C3_4  and  O2_5 
REMARK    4  A    between atoms: O2_5  and  C4_6 
ROOT
HETATM    1  C4  UNL     1      22.145   1.127  50.723  1.00  0.00     0.174 C 
HETATM    2  C5  UNL     1      21.186   0.272  51.007  1.00  0.00     0.218 C 
HETATM    3  S1  UNL     1      21.324   0.021  52.792  1.00  0.00    -0.183 SA
HETATM    4  C6  UNL     1      23.094   0.077  53.151  1.00  0.00     0.090 C 
HETATM    5  N1  UNL     1      23.293  -0.755  54.207  1.00  0.00    -0.236 NA
HETATM    6  C7  UNL     1      24.343  -0.924  55.058  1.00  0.00     0.234 C 
HETATM    7  N2  UNL     1      25.667  -0.687  55.073  1.00  0.00    -0.241 NA
HETATM    8  C8  UNL     1      26.540  -0.140  54.191  1.00  0.00     0.068 A 
HETATM    9  C9  UNL     1      27.893   0.032  53.937  1.00  0.00     0.033 A 
HETATM   10  C10 UNL     1      27.711   0.739  52.766  1.00  0.00     0.016 A 
HETATM   11  C11 UNL     1      26.357   0.605  52.954  1.00  0.00    -0.006 A 
HETATM   12  C12 UNL     1      25.286   1.045  52.202  1.00  0.00     0.029 C 
HETATM   13  C13 UNL     1      23.929   0.869  52.393  1.00  0.00     0.042 C 
HETATM   14  C14 UNL     1      23.192   1.838  51.501  1.00  0.00     0.237 C 
HETATM   15  O3  UNL     1      22.651   2.802  52.397  1.00  0.00    -0.319 OA
HETATM   16  C15 UNL     1      23.396   3.957  52.706  1.00  0.00     0.137 C 
HETATM   17  C16 UNL     1      24.049   4.535  51.693  1.00  0.00     0.023 C 
HETATM   18  C17 UNL     1      23.832   3.790  50.399  1.00  0.00     0.201 C 
HETATM   19  O4  UNL     1      24.053   2.412  50.599  1.00  0.00    -0.344 OA
ENDROOT
BRANCH   1  20
HETATM   20  O2  UNL     1      21.549   0.882  49.503  1.00  0.00    -0.367 OA
BRANCH  20  21
HETATM   21  C3  UNL     1      21.228   1.836  48.554  1.00  0.00     0.195 C 
BRANCH  21  22
HETATM   22  C2  UNL     1      22.270   2.195  47.559  1.00  0.00     0.193 C 
BRANCH  22  23
HETATM   23  O1  UNL     1      22.296   3.472  47.093  1.00  0.00    -0.394 OA
HETATM   24  C1  UNL     1      21.879   3.610  45.793  1.00  0.00     0.201 C 
ENDBRANCH  22  23
ENDBRANCH  21  22
ENDBRANCH  20  21
ENDBRANCH   1  20
TORSDOF 4
ENDMDL
MODEL 2
REMARK VINA RESULT:      -6.9      2.552      4.382
REMARK  4 active torsions:
REMARK  status: ('A' for Active; 'I' for Inactive)
REMARK    1  A    between atoms: O1_2  and  C2_3 
REMARK    2  A    between atoms: C2_3  and  C3_4 
REMARK    3  A    between atoms: C3_4  and  O2_5 
REMARK    4  A    between atoms: O2_5  and  C4_6 
ROOT
HETATM    1  C4  UNL     1      23.113   4.066  51.047  1.00  0.00     0.174 C 
HETATM    2  C5  UNL     1      24.337   4.538  50.964  1.00  0.00     0.218 C 
HETATM    3  S1  UNL     1      25.379   3.065  50.859  1.00  0.00    -0.183 SA
HETATM    4  C6  UNL     1      24.584   1.835  51.916  1.00  0.00     0.090 C 
HETATM    5  N1  UNL     1      25.585   1.066  52.422  1.00  0.00    -0.236 NA
HETATM    6  C7  UNL     1      25.585  -0.138  53.060  1.00  0.00     0.234 C 
HETATM    7  N2  UNL     1      24.727  -0.896  53.764  1.00  0.00    -0.241 NA
HETATM    8  C8  UNL     1      23.430  -0.761  54.138  1.00  0.00     0.068 A 
HETATM    9  C9  UNL     1      22.456  -1.299  54.965  1.00  0.00     0.033 A 
HETATM   10  C10 UNL     1      21.467  -0.416  54.585  1.00  0.00     0.016 A 
HETATM   11  C11 UNL     1      22.382   0.168  53.743  1.00  0.00    -0.006 A 
HETATM   12  C12 UNL     1      22.268   1.237  52.876  1.00  0.00     0.029 C 
HETATM   13  C13 UNL     1      23.214   1.830  52.062  1.00  0.00     0.042 C 
HETATM   14  C14 UNL     1      22.501   2.712  51.067  1.00  0.00     0.237 C 
HETATM   15  O3  UNL     1      22.639   2.029  49.826  1.00  0.00    -0.319 OA
HETATM   16  C15 UNL     1      21.649   1.110  49.426  1.00  0.00     0.137 C 
HETATM   17  C16 UNL     1      20.380   1.460  49.659  1.00  0.00     0.023 C 
HETATM   18  C17 UNL     1      20.293   2.812  50.323  1.00  0.00     0.201 C 
HETATM   19  O4  UNL     1      21.182   2.864  51.417  1.00  0.00    -0.344 OA
ENDROOT
BRANCH   1  20
HETATM   20  O2  UNL     1      22.942   5.434  51.086  1.00  0.00    -0.367 OA
BRANCH  20  21
HETATM   21  C3  UNL     1      22.375   6.207  50.089  1.00  0.00     0.195 C 
BRANCH  21  22
HETATM   22  C2  UNL     1      22.631   7.670  50.122  1.00  0.00     0.193 C 
BRANCH  22  23
HETATM   23  O1  UNL     1      23.701   8.115  50.831  1.00  0.00    -0.394 OA
HETATM   24  C1  UNL     1      24.800   8.423  50.069  1.00  0.00     0.201 C 
ENDBRANCH  22  23
ENDBRANCH  21  22
ENDBRANCH  20  21
ENDBRANCH   1  20
TORSDOF 4
ENDMDL
MODEL 3
REMARK VINA RESULT:      -6.6      3.273      6.727
REMARK  4 active torsions:
REMARK  status: ('A' for Active; 'I' for Inactive)
REMARK    1  A    between atoms: O1_2  and  C2_3 
REMARK    2  A    between atoms: C2_3  and  C3_4 
REMARK    3  A    between atoms: C3_4  and  O2_5 
REMARK    4  A    between atoms: O2_5  and  C4_6 
ROOT
HETATM    1  C4  UNL     1      24.209   0.541  52.681  1.00  0.00     0.174 C 
HETATM    2  C5  UNL     1      25.091   1.517  52.702  1.00  0.00     0.218 C 
HETATM    3  S1  UNL     1      24.115   2.993  53.069  1.00  0.00    -0.183 SA
HETATM    4  C6  UNL     1      22.538   2.753  52.222  1.00  0.00     0.090 C 
HETATM    5  N1  UNL     1      22.105   3.992  51.868  1.00  0.00    -0.236 NA
HETATM    6  C7  UNL     1      20.897   4.455  51.442  1.00  0.00     0.234 C 
HETATM    7  N2  UNL     1      19.786   3.967  50.862  1.00  0.00    -0.241 NA
HETATM    8  C8  UNL     1      19.396   2.734  50.452  1.00  0.00     0.068 A 
HETATM    9  C9  UNL     1      18.429   2.070  49.713  1.00  0.00     0.033 A 
HETATM   10  C10 UNL     1      18.952   0.812  49.924  1.00  0.00     0.016 A 
HETATM   11  C11 UNL     1      19.943   1.404  50.669  1.00  0.00    -0.006 A 
HETATM   12  C12 UNL     1      21.021   0.863  51.342  1.00  0.00     0.029 C 
HETATM   13  C13 UNL     1      22.026   1.483  52.059  1.00  0.00     0.042 C 
HETATM   14  C14 UNL     1      22.741   0.438  52.881  1.00  0.00     0.237 C 
HETATM   15  O3  UNL     1      22.348   0.713  54.221  1.00  0.00    -0.319 OA
HETATM   16  C15 UNL     1      21.211   0.075  54.755  1.00  0.00     0.137 C 
HETATM   17  C16 UNL     1      21.050  -1.215  54.448  1.00  0.00     0.023 C 
HETATM   18  C17 UNL     1      22.166  -1.715  53.564  1.00  0.00     0.201 C 
HETATM   19  O4  UNL     1      22.361  -0.822  52.491  1.00  0.00    -0.344 OA
ENDROOT
BRANCH   1  20
HETATM   20  O2  UNL     1      25.406  -0.090  52.410  1.00  0.00    -0.367 OA
BRANCH  20  21
HETATM   21  C3  UNL     1      26.131  -0.865  53.297  1.00  0.00     0.195 C 
BRANCH  21  22
HETATM   22  C2  UNL     1      27.496  -1.285  52.888  1.00  0.00     0.193 C 
BRANCH  22  23
HETATM   23  O1  UNL     1      28.449  -1.383  53.851  1.00  0.00    -0.394 OA
HETATM   24  C1  UNL     1      29.452  -0.452  53.755  1.00  0.00     0.201 C 
ENDBRANCH  22  23
ENDBRANCH  21  22
ENDBRANCH  20  21
ENDBRANCH   1  20
TORSDOF 4
ENDMDL
MODEL 4
REMARK VINA RESULT:      -6.6      8.955     10.792
REMARK  4 active torsions:
REMARK  status: ('A' for Active; 'I' for Inactive)
REMARK    1  A    between atoms: O1_2  and  C2_3 
REMARK    2  A    between atoms: C2_3  and  C3_4 
REMARK    3  A    between atoms: C3_4  and  O2_5 
REMARK    4  A    between atoms: O2_5  and  C4_6 
ROOT
HETATM    1  C4  UNL     1      31.351   7.139  45.943  1.00  0.00     0.174 C 
HETATM    2  C5  UNL     1      31.122   8.117  45.093  1.00  0.00     0.218 C 
HETATM    3  S1  UNL     1      29.966   9.202  45.961  1.00  0.00    -0.183 SA
HETATM    4  C6  UNL     1      28.898   8.104  46.918  1.00  0.00     0.090 C 
HETATM    5  N1  UNL     1      27.686   8.715  46.983  1.00  0.00    -0.236 NA
HETATM    6  C7  UNL     1      26.588   8.497  47.760  1.00  0.00     0.234 C 
HETATM    7  N2  UNL     1      26.053   7.492  48.476  1.00  0.00    -0.241 NA
HETATM    8  C8  UNL     1      26.422   6.213  48.735  1.00  0.00     0.068 A 
HETATM    9  C9  UNL     1      25.965   5.017  49.267  1.00  0.00     0.033 A 
HETATM   10  C10 UNL     1      27.141   4.328  49.054  1.00  0.00     0.016 A 
HETATM   11  C11 UNL     1      27.659   5.479  48.513  1.00  0.00    -0.006 A 
HETATM   12  C12 UNL     1      28.903   5.754  47.979  1.00  0.00     0.029 C 
HETATM   13  C13 UNL     1      29.391   6.913  47.409  1.00  0.00     0.042 C 
HETATM   14  C14 UNL     1      30.894   6.803  47.315  1.00  0.00     0.237 C 
HETATM   15  O3  UNL     1      31.377   7.715  48.294  1.00  0.00    -0.319 OA
HETATM   16  C15 UNL     1      31.621   7.261  49.606  1.00  0.00     0.137 C 
HETATM   17  C16 UNL     1      32.193   6.059  49.725  1.00  0.00     0.023 C 
HETATM   18  C17 UNL     1      32.458   5.437  48.377  1.00  0.00     0.201 C 
HETATM   19  O4  UNL     1      31.298   5.517  47.579  1.00  0.00    -0.344 OA
ENDROOT
BRANCH   1  20
HETATM   20  O2  UNL     1      32.117   6.808  44.844  1.00  0.00    -0.367 OA
BRANCH  20  21
HETATM   21  C3  UNL     1      33.396   6.280  44.879  1.00  0.00     0.195 C 
BRANCH  21  22
HETATM   22  C2  UNL     1      33.540   4.813  44.697  1.00  0.00     0.193 C 
BRANCH  22  23
HETATM   23  O1  UNL     1      34.786   4.278  44.784  1.00  0.00    -0.394 OA
HETATM   24  C1  UNL     1      35.001   3.519  45.907  1.00  0.00     0.201 C 
ENDBRANCH  22  23
ENDBRANCH  21  22
ENDBRANCH  20  21
ENDBRANCH   1  20
TORSDOF 4
ENDMDL
MODEL 5
REMARK VINA RESULT:      -6.3      3.138      6.633
REMARK  4 active torsions:
REMARK  status: ('A' for Active; 'I' for Inactive)
REMARK    1  A    between atoms: O1_2  and  C2_3 
REMARK    2  A    between atoms: C2_3  and  C3_4 
REMARK    3  A    between atoms: C3_4  and  O2_5 
REMARK    4  A    between atoms: O2_5  and  C4_6 
ROOT
HETATM    1  C4  UNL     1      23.675   1.893  52.422  1.00  0.00     0.174 C 
HETATM    2  C5  UNL     1      24.435   2.681  53.151  1.00  0.00     0.218 C 
HETATM    3  S1  UNL     1      23.752   4.333  52.883  1.00  0.00    -0.183 SA
HETATM    4  C6  UNL     1      23.219   4.362  51.158  1.00  0.00     0.090 C 
HETATM    5  N1  UNL     1      23.379   5.642  50.732  1.00  0.00    -0.236 NA
HETATM    6  C7  UNL     1      22.923   6.309  49.635  1.00  0.00     0.234 C 
HETATM    7  N2  UNL     1      22.482   6.017  48.398  1.00  0.00    -0.241 NA
HETATM    8  C8  UNL     1      22.293   4.864  47.709  1.00  0.00     0.068 A 
HETATM    9  C9  UNL     1      22.033   4.364  46.442  1.00  0.00     0.033 A 
HETATM   10  C10 UNL     1      22.033   3.040  46.827  1.00  0.00     0.016 A 
HETATM   11  C11 UNL     1      22.292   3.465  48.108  1.00  0.00    -0.006 A 
HETATM   12  C12 UNL     1      22.472   2.759  49.281  1.00  0.00     0.029 C 
HETATM   13  C13 UNL     1      22.766   3.208  50.554  1.00  0.00     0.042 C 
HETATM   14  C14 UNL     1      22.504   2.085  51.528  1.00  0.00     0.237 C 
HETATM   15  O3  UNL     1      21.337   2.492  52.232  1.00  0.00    -0.319 OA
HETATM   16  C15 UNL     1      20.068   2.111  51.753  1.00  0.00     0.137 C 
HETATM   17  C16 UNL     1      19.955   0.863  51.290  1.00  0.00     0.023 C 
HETATM   18  C17 UNL     1      21.262   0.116  51.390  1.00  0.00     0.201 C 
HETATM   19  O4  UNL     1      22.303   0.903  50.857  1.00  0.00    -0.344 OA
ENDROOT
BRANCH   1  20
HETATM   20  O2  UNL     1      24.586   1.032  52.999  1.00  0.00    -0.367 OA
BRANCH  20  21
HETATM   21  C3  UNL     1      25.681   0.470  52.367  1.00  0.00     0.195 C 
BRANCH  21  22
HETATM   22  C2  UNL     1      26.373  -0.649  53.055  1.00  0.00     0.193 C 
BRANCH  22  23
HETATM   23  O1  UNL     1      26.585  -0.544  54.393  1.00  0.00    -0.394 OA
HETATM   24  C1  UNL     1      27.692   0.189  54.737  1.00  0.00     0.201 C 
ENDBRANCH  22  23
ENDBRANCH  21  22
ENDBRANCH  20  21
ENDBRANCH   1  20
TORSDOF 4
ENDMDL
MODEL 6
REMARK VINA RESULT:      -6.2      2.421      3.313
REMARK  4 active torsions:
REMARK  status: ('A' for Active; 'I' for Inactive)
REMARK    1  A    between atoms: O1_2  and  C2_3 
REMARK    2  A    between atoms: C2_3  and  C3_4 
REMARK    3  A    between atoms: C3_4  and  O2_5 
REMARK    4  A    between atoms: O2_5  and  C4_6 
ROOT
HETATM    1  C4  UNL     1      21.518   2.509  49.164  1.00  0.00     0.174 C 
HETATM    2  C5  UNL     1      20.402   2.192  48.543  1.00  0.00     0.218 C 
HETATM    3  S1  UNL     1      19.220   1.888  49.876  1.00  0.00    -0.183 SA
HETATM    4  C6  UNL     1      20.175   1.114  51.201  1.00  0.00     0.090 C 
HETATM    5  N1  UNL     1      19.321   0.274  51.843  1.00  0.00    -0.236 NA
HETATM    6  C7  UNL     1      19.394  -0.371  53.041  1.00  0.00     0.234 C 
HETATM    7  N2  UNL     1      20.344  -0.774  53.903  1.00  0.00    -0.241 NA
HETATM    8  C8  UNL     1      21.697  -0.685  53.930  1.00  0.00     0.068 A 
HETATM    9  C9  UNL     1      22.823  -1.156  54.589  1.00  0.00     0.033 A 
HETATM   10  C10 UNL     1      23.722  -0.433  53.832  1.00  0.00     0.016 A 
HETATM   11  C11 UNL     1      22.652   0.073  53.135  1.00  0.00    -0.006 A 
HETATM   12  C12 UNL     1      22.592   0.967  52.084  1.00  0.00     0.029 C 
HETATM   13  C13 UNL     1      21.503   1.437  51.375  1.00  0.00     0.042 C 
HETATM   14  C14 UNL     1      21.936   2.646  50.582  1.00  0.00     0.237 C 
HETATM   15  O3  UNL     1      21.308   3.742  51.237  1.00  0.00    -0.319 OA
HETATM   16  C15 UNL     1      21.989   4.418  52.268  1.00  0.00     0.137 C 
HETATM   17  C16 UNL     1      23.294   4.638  52.079  1.00  0.00     0.023 C 
HETATM   18  C17 UNL     1      23.758   4.091  50.751  1.00  0.00     0.201 C 
HETATM   19  O4  UNL     1      23.304   2.765  50.597  1.00  0.00    -0.344 OA
ENDROOT
BRANCH   1  20
HETATM   20  O2  UNL     1      21.852   2.579  47.827  1.00  0.00    -0.367 OA
BRANCH  20  21
HETATM   21  C3  UNL     1      21.221   3.362  46.876  1.00  0.00     0.195 C 
BRANCH  21  22
HETATM   22  C2  UNL     1      21.975   3.683  45.638  1.00  0.00     0.193 C 
BRANCH  22  23
HETATM   23  O1  UNL     1      22.107   4.990  45.291  1.00  0.00    -0.394 OA
HETATM   24  C1  UNL     1      22.227   5.851  46.353  1.00  0.00     0.201 C 
ENDBRANCH  22  23
ENDBRANCH  21  22
ENDBRANCH  20  21
ENDBRANCH   1  20
TORSDOF 4
ENDMDL
MODEL 7
REMARK VINA RESULT:      -6.0      9.179     11.174
REMARK  4 active torsions:
REMARK  status: ('A' for Active; 'I' for Inactive)
REMARK    1  A    between atoms: O1_2  and  C2_3 
REMARK    2  A    between atoms: C2_3  and  C3_4 
REMARK    3  A    between atoms: C3_4  and  O2_5 
REMARK    4  A    between atoms: O2_5  and  C4_6 
ROOT
HETATM    1  C4  UNL     1      29.776  10.928  47.444  1.00  0.00     0.174 C 
HETATM    2  C5  UNL     1      31.055  11.105  47.699  1.00  0.00     0.218 C 
HETATM    3  S1  UNL     1      31.841   9.584  47.121  1.00  0.00    -0.183 SA
HETATM    4  C6  UNL     1      30.665   8.263  47.490  1.00  0.00     0.090 C 
HETATM    5  N1  UNL     1      31.408   7.154  47.748  1.00  0.00    -0.236 NA
HETATM    6  C7  UNL     1      31.088   5.834  47.837  1.00  0.00     0.234 C 
HETATM    7  N2  UNL     1      29.997   5.083  48.071  1.00  0.00    -0.241 NA
HETATM    8  C8  UNL     1      28.692   5.360  48.320  1.00  0.00     0.068 A 
HETATM    9  C9  UNL     1      27.502   4.788  48.741  1.00  0.00     0.033 A 
HETATM   10  C10 UNL     1      26.764   5.949  48.645  1.00  0.00     0.016 A 
HETATM   11  C11 UNL     1      27.908   6.582  48.222  1.00  0.00    -0.006 A 
HETATM   12  C12 UNL     1      28.141   7.893  47.858  1.00  0.00     0.029 C 
HETATM   13  C13 UNL     1      29.310   8.515  47.467  1.00  0.00     0.042 C 
HETATM   14  C14 UNL     1      28.958   9.844  46.843  1.00  0.00     0.237 C 
HETATM   15  O3  UNL     1      29.219   9.664  45.456  1.00  0.00    -0.319 OA
HETATM   16  C15 UNL     1      28.188   9.214  44.608  1.00  0.00     0.137 C 
HETATM   17  C16 UNL     1      26.973   9.730  44.820  1.00  0.00     0.023 C 
HETATM   18  C17 UNL     1      26.983  10.715  45.962  1.00  0.00     0.201 C 
HETATM   19  O4  UNL     1      27.640  10.149  47.074  1.00  0.00    -0.344 OA
ENDROOT
BRANCH   1  20
HETATM   20  O2  UNL     1      29.829  12.182  48.017  1.00  0.00    -0.367 OA
BRANCH  20  21
HETATM   21  C3  UNL     1      28.936  12.684  48.949  1.00  0.00     0.195 C 
BRANCH  21  22
HETATM   22  C2  UNL     1      27.851  13.568  48.455  1.00  0.00     0.193 C 
BRANCH  22  23
HETATM   23  O1  UNL     1      26.567  13.145  48.597  1.00  0.00    -0.394 OA
HETATM   24  C1  UNL     1      25.678  13.726  47.728  1.00  0.00     0.201 C 
ENDBRANCH  22  23
ENDBRANCH  21  22
ENDBRANCH  20  21
ENDBRANCH   1  20
TORSDOF 4
ENDMDL
MODEL 8
REMARK VINA RESULT:      -6.0      3.554      6.541
REMARK  4 active torsions:
REMARK  status: ('A' for Active; 'I' for Inactive)
REMARK    1  A    between atoms: O1_2  and  C2_3 
REMARK    2  A    between atoms: C2_3  and  C3_4 
REMARK    3  A    between atoms: C3_4  and  O2_5 
REMARK    4  A    between atoms: O2_5  and  C4_6 
ROOT
HETATM    1  C4  UNL     1      22.440   1.973  51.643  1.00  0.00     0.174 C 
HETATM    2  C5  UNL     1      22.663   3.254  51.444  1.00  0.00     0.218 C 
HETATM    3  S1  UNL     1      21.220   4.076  52.158  1.00  0.00    -0.183 SA
HETATM    4  C6  UNL     1      19.823   2.984  51.814  1.00  0.00     0.090 C 
HETATM    5  N1  UNL     1      18.738   3.789  51.666  1.00  0.00    -0.236 NA
HETATM    6  C7  UNL     1      17.400   3.534  51.647  1.00  0.00     0.234 C 
HETATM    7  N2  UNL     1      16.584   2.493  51.405  1.00  0.00    -0.241 NA
HETATM    8  C8  UNL     1      16.782   1.193  51.072  1.00  0.00     0.068 A 
HETATM    9  C9  UNL     1      16.127   0.054  50.627  1.00  0.00     0.033 A 
HETATM   10  C10 UNL     1      17.255  -0.739  50.610  1.00  0.00     0.016 A 
HETATM   11  C11 UNL     1      17.967   0.349  51.050  1.00  0.00    -0.006 A 
HETATM   12  C12 UNL     1      19.309   0.502  51.341  1.00  0.00     0.029 C 
HETATM   13  C13 UNL     1      20.010   1.619  51.751  1.00  0.00     0.042 C 
HETATM   14  C14 UNL     1      21.356   1.174  52.269  1.00  0.00     0.237 C 
HETATM   15  O3  UNL     1      21.275   1.366  53.677  1.00  0.00    -0.319 OA
HETATM   16  C15 UNL     1      20.828   0.312  54.497  1.00  0.00     0.137 C 
HETATM   17  C16 UNL     1      21.270  -0.912  54.190  1.00  0.00     0.023 C 
HETATM   18  C17 UNL     1      22.182  -0.884  52.989  1.00  0.00     0.201 C 
HETATM   19  O4  UNL     1      21.582  -0.143  51.951  1.00  0.00    -0.344 OA
ENDROOT
BRANCH   1  20
HETATM   20  O2  UNL     1      23.657   2.000  50.994  1.00  0.00    -0.367 OA
BRANCH  20  21
HETATM   21  C3  UNL     1      24.847   1.494  51.486  1.00  0.00     0.195 C 
BRANCH  21  22
HETATM   22  C2  UNL     1      26.077   2.300  51.277  1.00  0.00     0.193 C 
BRANCH  22  23
HETATM   23  O1  UNL     1      25.955   3.500  50.650  1.00  0.00    -0.394 OA
HETATM   24  C1  UNL     1      26.671   3.606  49.484  1.00  0.00     0.201 C 
ENDBRANCH  22  23
ENDBRANCH  21  22
ENDBRANCH  20  21
ENDBRANCH   1  20
TORSDOF 4
ENDMDL
MODEL 9
REMARK VINA RESULT:      -5.8     22.346     25.057
REMARK  4 active torsions:
REMARK  status: ('A' for Active; 'I' for Inactive)
REMARK    1  A    between atoms: O1_2  and  C2_3 
REMARK    2  A    between atoms: C2_3  and  C3_4 
REMARK    3  A    between atoms: C3_4  and  O2_5 
REMARK    4  A    between atoms: O2_5  and  C4_6 
ROOT
HETATM    1  C4  UNL     1      42.330   2.600  69.302  1.00  0.00     0.174 C 
HETATM    2  C5  UNL     1      41.895   3.657  69.954  1.00  0.00     0.218 C 
HETATM    3  S1  UNL     1      40.546   3.027  70.978  1.00  0.00    -0.183 SA
HETATM    4  C6  UNL     1      39.738   1.754  69.984  1.00  0.00     0.090 C 
HETATM    5  N1  UNL     1      38.426   1.772  70.337  1.00  0.00    -0.236 NA
HETATM    6  C7  UNL     1      37.404   0.898  70.120  1.00  0.00     0.234 C 
HETATM    7  N2  UNL     1      37.096  -0.086  69.256  1.00  0.00    -0.241 NA
HETATM    8  C8  UNL     1      37.725  -0.642  68.191  1.00  0.00     0.068 A 
HETATM    9  C9  UNL     1      37.531  -1.492  67.113  1.00  0.00     0.033 A 
HETATM   10  C10 UNL     1      38.823  -1.390  66.640  1.00  0.00     0.016 A 
HETATM   11  C11 UNL     1      39.086  -0.539  67.686  1.00  0.00    -0.006 A 
HETATM   12  C12 UNL     1      40.241   0.125  68.050  1.00  0.00     0.029 C 
HETATM   13  C13 UNL     1      40.473   1.005  69.090  1.00  0.00     0.042 C 
HETATM   14  C14 UNL     1      41.964   1.161  69.259  1.00  0.00     0.237 C 
HETATM   15  O3  UNL     1      42.256   0.483  70.475  1.00  0.00    -0.319 OA
HETATM   16  C15 UNL     1      42.599  -0.883  70.444  1.00  0.00     0.137 C 
HETATM   17  C16 UNL     1      43.409  -1.272  69.455  1.00  0.00     0.023 C 
HETATM   18  C17 UNL     1      43.787  -0.116  68.563  1.00  0.00     0.201 C 
HETATM   19  O4  UNL     1      42.630   0.601  68.196  1.00  0.00    -0.344 OA
ENDROOT
BRANCH   1  20
HETATM   20  O2  UNL     1      43.139   3.622  68.851  1.00  0.00    -0.367 OA
BRANCH  20  21
HETATM   21  C3  UNL     1      44.460   3.494  68.457  1.00  0.00     0.195 C 
BRANCH  21  22
HETATM   22  C2  UNL     1      44.725   3.142  67.039  1.00  0.00     0.193 C 
BRANCH  22  23
HETATM   23  O1  UNL     1      44.396   4.050  66.083  1.00  0.00    -0.394 OA
HETATM   24  C1  UNL     1      45.179   5.177  66.077  1.00  0.00     0.201 C 
ENDBRANCH  22  23
ENDBRANCH  21  22
ENDBRANCH  20  21
ENDBRANCH   1  20
TORSDOF 4
ENDMDL
