MODEL 1
REMARK VINA RESULT:      -7.7      0.000      0.000
REMARK  5 active torsions:
REMARK  status: ('A' for Active; 'I' for Inactive)
REMARK       I    between atoms: C1_2  and  N1_3 
REMARK    1  A    between atoms: C1_2  and  C8_11 
REMARK    2  A    between atoms: N1_3  and  C2_4 
REMARK    3  A    between atoms: C11_14  and  N2_15 
REMARK    4  A    between atoms: N2_15  and  C12_16 
REMARK    5  A    between atoms: N2_15  and  C13_18 
ROOT
HETATM    1  O1  UNL     1      25.432  -1.057  55.447  1.00  0.00    -0.268 OA
HETATM    2  C1  UNL     1      24.888  -0.733  54.338  1.00  0.00     0.252 C 
HETATM    3  N1  UNL     1      25.784  -0.426  53.278  1.00  0.00    -0.322 N 
HETATM    4  H1  UNL     1      25.385  -0.156  52.353  1.00  0.00     0.169 HD
ENDROOT
BRANCH   2   5
HETATM    5  C8  UNL     1      23.439  -0.660  54.101  1.00  0.00     0.015 A 
HETATM    6  C9  UNL     1      22.465  -1.200  54.819  1.00  0.00     0.015 A 
HETATM    7  C10 UNL     1      21.205  -0.834  54.162  1.00  0.00     0.026 A 
HETATM    8  C11 UNL     1      21.444  -0.097  53.082  1.00  0.00     0.013 A 
HETATM    9  C14 UNL     1      22.903   0.099  52.919  1.00  0.00     0.101 A 
BRANCH   8  10
HETATM   10  N2  UNL     1      20.380   0.400  52.247  1.00  0.00    -0.358 N 
BRANCH  10  11
HETATM   11  C12 UNL     1      20.462   1.391  51.186  1.00  0.00     0.239 C 
HETATM   12 CL2  UNL     1      21.354   0.711  49.800  1.00  0.00    -0.109 Cl
ENDBRANCH  10  11
BRANCH  10  13
HETATM   13  C13 UNL     1      19.107  -0.222  52.578  1.00  0.00     0.239 C 
HETATM   14 CL3  UNL     1      18.110  -0.213  51.108  1.00  0.00    -0.109 Cl
ENDBRANCH  10  13
ENDBRANCH   8  10
ENDBRANCH   2   5
BRANCH   3  15
HETATM   15  C2  UNL     1      27.206  -0.447  53.338  1.00  0.00     0.056 A 
HETATM   16  C3  UNL     1      28.015  -1.552  53.184  1.00  0.00     0.031 A 
HETATM   17  C4  UNL     1      29.389  -1.459  53.261  1.00  0.00     0.002 A 
HETATM   18  C5  UNL     1      29.975  -0.213  53.502  1.00  0.00     0.002 A 
HETATM   19  C6  UNL     1      29.164   0.913  53.660  1.00  0.00     0.026 A 
HETATM   20  C7  UNL     1      27.785   0.796  53.578  1.00  0.00     0.060 A 
HETATM   21 CL1  UNL     1      26.825   2.254  53.787  1.00  0.00    -0.082 Cl
ENDBRANCH   3  15
TORSDOF 5
ENDMDL
MODEL 2
REMARK VINA RESULT:      -7.7      1.186      1.570
REMARK  5 active torsions:
REMARK  status: ('A' for Active; 'I' for Inactive)
REMARK       I    between atoms: C1_2  and  N1_3 
REMARK    1  A    between atoms: C1_2  and  C8_11 
REMARK    2  A    between atoms: N1_3  and  C2_4 
REMARK    3  A    between atoms: C11_14  and  N2_15 
REMARK    4  A    between atoms: N2_15  and  C12_16 
REMARK    5  A    between atoms: N2_15  and  C13_18 
ROOT
HETATM    1  O1  UNL     1      25.174  -1.228  55.607  1.00  0.00    -0.268 OA
HETATM    2  C1  UNL     1      24.662  -0.767  54.532  1.00  0.00     0.252 C 
HETATM    3  N1  UNL     1      25.582  -0.243  53.584  1.00  0.00    -0.322 N 
HETATM    4  H1  UNL     1      25.210   0.144  52.690  1.00  0.00     0.169 HD
ENDROOT
BRANCH   2   5
HETATM    5  C8  UNL     1      23.223  -0.746  54.226  1.00  0.00     0.015 A 
HETATM    6  C9  UNL     1      22.242  -1.364  54.869  1.00  0.00     0.015 A 
HETATM    7  C10 UNL     1      21.000  -1.021  54.167  1.00  0.00     0.026 A 
HETATM    8  C11 UNL     1      21.255  -0.220  53.138  1.00  0.00     0.013 A 
HETATM    9  C14 UNL     1      22.710   0.047  53.058  1.00  0.00     0.101 A 
BRANCH   8  10
HETATM   10  N2  UNL     1      20.211   0.270  52.275  1.00  0.00    -0.358 N 
BRANCH  10  11
HETATM   11  C12 UNL     1      20.298   1.314  51.266  1.00  0.00     0.239 C 
HETATM   12 CL2  UNL     1      21.220   0.712  49.864  1.00  0.00    -0.109 Cl
ENDBRANCH  10  11
BRANCH  10  13
HETATM   13  C13 UNL     1      18.952  -0.419  52.516  1.00  0.00     0.239 C 
HETATM   14 CL3  UNL     1      17.943  -0.209  51.069  1.00  0.00    -0.109 Cl
ENDBRANCH  10  13
ENDBRANCH   8  10
ENDBRANCH   2   5
BRANCH   3  15
HETATM   15  C2  UNL     1      26.999  -0.187  53.721  1.00  0.00     0.056 A 
HETATM   16  C3  UNL     1      27.718   0.780  54.390  1.00  0.00     0.031 A 
HETATM   17  C4  UNL     1      29.094   0.738  54.462  1.00  0.00     0.002 A 
HETATM   18  C5  UNL     1      29.777  -0.311  53.839  1.00  0.00     0.002 A 
HETATM   19  C6  UNL     1      29.058  -1.296  53.158  1.00  0.00     0.026 A 
HETATM   20  C7  UNL     1      27.674  -1.233  53.100  1.00  0.00     0.060 A 
HETATM   21 CL1  UNL     1      26.833  -2.505  52.226  1.00  0.00    -0.082 Cl
ENDBRANCH   3  15
TORSDOF 5
ENDMDL
MODEL 3
REMARK VINA RESULT:      -7.6      1.073      1.417
REMARK  5 active torsions:
REMARK  status: ('A' for Active; 'I' for Inactive)
REMARK       I    between atoms: C1_2  and  N1_3 
REMARK    1  A    between atoms: C1_2  and  C8_11 
REMARK    2  A    between atoms: N1_3  and  C2_4 
REMARK    3  A    between atoms: C11_14  and  N2_15 
REMARK    4  A    between atoms: N2_15  and  C12_16 
REMARK    5  A    between atoms: N2_15  and  C13_18 
ROOT
HETATM    1  O1  UNL     1      25.395  -0.959  55.322  1.00  0.00    -0.268 OA
HETATM    2  C1  UNL     1      24.927  -0.595  54.191  1.00  0.00     0.252 C 
HETATM    3  N1  UNL     1      25.885  -0.414  53.156  1.00  0.00    -0.322 N 
HETATM    4  H1  UNL     1      25.549  -0.117  52.214  1.00  0.00     0.169 HD
ENDROOT
BRANCH   2   5
HETATM    5  C8  UNL     1      23.504  -0.358  53.905  1.00  0.00     0.015 A 
HETATM    6  C9  UNL     1      22.451  -0.932  54.469  1.00  0.00     0.015 A 
HETATM    7  C10 UNL     1      21.265  -0.350  53.831  1.00  0.00     0.026 A 
HETATM    8  C11 UNL     1      21.622   0.544  52.915  1.00  0.00     0.013 A 
HETATM    9  C14 UNL     1      23.099   0.640  52.857  1.00  0.00     0.101 A 
BRANCH   8  10
HETATM   10  N2  UNL     1      20.651   1.268  52.136  1.00  0.00    -0.358 N 
BRANCH  10  11
HETATM   11  C12 UNL     1      20.110   2.595  52.386  1.00  0.00     0.239 C 
HETATM   12 CL2  UNL     1      21.416   3.803  52.278  1.00  0.00    -0.109 Cl
ENDBRANCH  10  11
BRANCH  10  13
HETATM   13  C13 UNL     1      20.215   0.500  50.979  1.00  0.00     0.239 C 
HETATM   14 CL3  UNL     1      21.364   0.821  49.661  1.00  0.00    -0.109 Cl
ENDBRANCH  10  13
ENDBRANCH   8  10
ENDBRANCH   2   5
BRANCH   3  15
HETATM   15  C2  UNL     1      27.292  -0.599  53.263  1.00  0.00     0.056 A 
HETATM   16  C3  UNL     1      27.972  -1.792  53.141  1.00  0.00     0.031 A 
HETATM   17  C4  UNL     1      29.344  -1.858  53.262  1.00  0.00     0.002 A 
HETATM   18  C5  UNL     1      30.063  -0.687  53.517  1.00  0.00     0.002 A 
HETATM   19  C6  UNL     1      29.384   0.527  53.643  1.00  0.00     0.026 A 
HETATM   20  C7  UNL     1      28.004   0.570  53.516  1.00  0.00     0.060 A 
HETATM   21 CL1  UNL     1      27.214   2.131  53.687  1.00  0.00    -0.082 Cl
ENDBRANCH   3  15
TORSDOF 5
ENDMDL
MODEL 4
REMARK VINA RESULT:      -7.6      1.418      2.112
REMARK  5 active torsions:
REMARK  status: ('A' for Active; 'I' for Inactive)
REMARK       I    between atoms: C1_2  and  N1_3 
REMARK    1  A    between atoms: C1_2  and  C8_11 
REMARK    2  A    between atoms: N1_3  and  C2_4 
REMARK    3  A    between atoms: C11_14  and  N2_15 
REMARK    4  A    between atoms: N2_15  and  C12_16 
REMARK    5  A    between atoms: N2_15  and  C13_18 
ROOT
HETATM    1  O1  UNL     1      25.325  -1.122  55.594  1.00  0.00    -0.268 OA
HETATM    2  C1  UNL     1      24.777  -0.699  54.520  1.00  0.00     0.252 C 
HETATM    3  N1  UNL     1      25.663  -0.176  53.539  1.00  0.00    -0.322 N 
HETATM    4  H1  UNL     1      25.261   0.180  52.646  1.00  0.00     0.169 HD
ENDROOT
BRANCH   2   5
HETATM    5  C8  UNL     1      23.333  -0.721  54.248  1.00  0.00     0.015 A 
HETATM    6  C9  UNL     1      22.386  -1.376  54.906  1.00  0.00     0.015 A 
HETATM    7  C10 UNL     1      21.118  -1.065  54.237  1.00  0.00     0.026 A 
HETATM    8  C11 UNL     1      21.324  -0.247  53.211  1.00  0.00     0.013 A 
HETATM    9  C14 UNL     1      22.768   0.067  53.100  1.00  0.00     0.101 A 
BRANCH   8  10
HETATM   10  N2  UNL     1      20.245   0.219  52.377  1.00  0.00    -0.358 N 
BRANCH  10  11
HETATM   11  C12 UNL     1      18.891  -0.303  52.290  1.00  0.00     0.239 C 
HETATM   12 CL2  UNL     1      18.155   0.198  50.746  1.00  0.00    -0.109 Cl
ENDBRANCH  10  11
BRANCH  10  13
HETATM   13  C13 UNL     1      20.654   1.349  51.558  1.00  0.00     0.239 C 
HETATM   14 CL3  UNL     1      20.456   2.819  52.537  1.00  0.00    -0.109 Cl
ENDBRANCH  10  13
ENDBRANCH   8  10
ENDBRANCH   2   5
BRANCH   3  15
HETATM   15  C2  UNL     1      27.080  -0.082  53.642  1.00  0.00     0.056 A 
HETATM   16  C3  UNL     1      27.791   0.948  54.219  1.00  0.00     0.031 A 
HETATM   17  C4  UNL     1      29.169   0.938  54.265  1.00  0.00     0.002 A 
HETATM   18  C5  UNL     1      29.862  -0.142  53.711  1.00  0.00     0.002 A 
HETATM   19  C6  UNL     1      29.151  -1.191  53.123  1.00  0.00     0.026 A 
HETATM   20  C7  UNL     1      27.765  -1.160  53.089  1.00  0.00     0.060 A 
HETATM   21 CL1  UNL     1      26.934  -2.512  52.333  1.00  0.00    -0.082 Cl
ENDBRANCH   3  15
TORSDOF 5
ENDMDL
MODEL 5
REMARK VINA RESULT:      -7.5      0.669      1.517
REMARK  5 active torsions:
REMARK  status: ('A' for Active; 'I' for Inactive)
REMARK       I    between atoms: C1_2  and  N1_3 
REMARK    1  A    between atoms: C1_2  and  C8_11 
REMARK    2  A    between atoms: N1_3  and  C2_4 
REMARK    3  A    between atoms: C11_14  and  N2_15 
REMARK    4  A    between atoms: N2_15  and  C12_16 
REMARK    5  A    between atoms: N2_15  and  C13_18 
ROOT
HETATM    1  O1  UNL     1      25.321  -1.119  55.162  1.00  0.00    -0.268 OA
HETATM    2  C1  UNL     1      24.900  -0.646  54.053  1.00  0.00     0.252 C 
HETATM    3  N1  UNL     1      25.897  -0.382  53.075  1.00  0.00    -0.322 N 
HETATM    4  H1  UNL     1      25.599   0.005  52.154  1.00  0.00     0.169 HD
ENDROOT
BRANCH   2   5
HETATM    5  C8  UNL     1      23.490  -0.368  53.739  1.00  0.00     0.015 A 
HETATM    6  C9  UNL     1      22.409  -0.857  54.329  1.00  0.00     0.015 A 
HETATM    7  C10 UNL     1      21.254  -0.268  53.643  1.00  0.00     0.026 A 
HETATM    8  C11 UNL     1      21.656   0.546  52.674  1.00  0.00     0.013 A 
HETATM    9  C14 UNL     1      23.136   0.574  52.623  1.00  0.00     0.101 A 
BRANCH   8  10
HETATM   10  N2  UNL     1      20.723   1.258  51.839  1.00  0.00    -0.358 N 
BRANCH  10  11
HETATM   11  C12 UNL     1      19.279   1.350  51.985  1.00  0.00     0.239 C 
HETATM   12 CL2  UNL     1      18.515  -0.105  51.294  1.00  0.00    -0.109 Cl
ENDBRANCH  10  11
BRANCH  10  13
HETATM   13  C13 UNL     1      21.398   1.936  50.742  1.00  0.00     0.239 C 
HETATM   14 CL3  UNL     1      21.452   0.807  49.370  1.00  0.00    -0.109 Cl
ENDBRANCH  10  13
ENDBRANCH   8  10
ENDBRANCH   2   5
BRANCH   3  15
HETATM   15  C2  UNL     1      27.298  -0.592  53.216  1.00  0.00     0.056 A 
HETATM   16  C3  UNL     1      27.962  -1.793  53.091  1.00  0.00     0.031 A 
HETATM   17  C4  UNL     1      29.328  -1.884  53.247  1.00  0.00     0.002 A 
HETATM   18  C5  UNL     1      30.059  -0.729  53.542  1.00  0.00     0.002 A 
HETATM   19  C6  UNL     1      29.396   0.493  53.672  1.00  0.00     0.026 A 
HETATM   20  C7  UNL     1      28.021   0.561  53.509  1.00  0.00     0.060 A 
HETATM   21 CL1  UNL     1      27.252   2.132  53.686  1.00  0.00    -0.082 Cl
ENDBRANCH   3  15
TORSDOF 5
ENDMDL
MODEL 6
REMARK VINA RESULT:      -7.2      1.489      1.842
REMARK  5 active torsions:
REMARK  status: ('A' for Active; 'I' for Inactive)
REMARK       I    between atoms: C1_2  and  N1_3 
REMARK    1  A    between atoms: C1_2  and  C8_11 
REMARK    2  A    between atoms: N1_3  and  C2_4 
REMARK    3  A    between atoms: C11_14  and  N2_15 
REMARK    4  A    between atoms: N2_15  and  C12_16 
REMARK    5  A    between atoms: N2_15  and  C13_18 
ROOT
HETATM    1  O1  UNL     1      25.317  -1.033  55.332  1.00  0.00    -0.268 OA
HETATM    2  C1  UNL     1      24.871  -0.539  54.242  1.00  0.00     0.252 C 
HETATM    3  N1  UNL     1      25.854  -0.084  53.322  1.00  0.00    -0.322 N 
HETATM    4  H1  UNL     1      25.536   0.327  52.418  1.00  0.00     0.169 HD
ENDROOT
BRANCH   2   5
HETATM    5  C8  UNL     1      23.447  -0.417  53.894  1.00  0.00     0.015 A 
HETATM    6  C9  UNL     1      22.438  -1.175  54.301  1.00  0.00     0.015 A 
HETATM    7  C10 UNL     1      21.228  -0.637  53.669  1.00  0.00     0.026 A 
HETATM    8  C11 UNL     1      21.529   0.412  52.911  1.00  0.00     0.013 A 
HETATM    9  C14 UNL     1      22.986   0.672  52.967  1.00  0.00     0.101 A 
BRANCH   8  10
HETATM   10  N2  UNL     1      20.524   1.133  52.173  1.00  0.00    -0.358 N 
BRANCH  10  11
HETATM   11  C12 UNL     1      19.999   2.463  52.438  1.00  0.00     0.239 C 
HETATM   12 CL2  UNL     1      19.992   3.414  50.931  1.00  0.00    -0.109 Cl
ENDBRANCH  10  11
BRANCH  10  13
HETATM   13  C13 UNL     1      20.030   0.358  51.045  1.00  0.00     0.239 C 
HETATM   14 CL3  UNL     1      18.409  -0.232  51.470  1.00  0.00    -0.109 Cl
ENDBRANCH  10  13
ENDBRANCH   8  10
ENDBRANCH   2   5
BRANCH   3  15
HETATM   15  C2  UNL     1      27.266  -0.128  53.501  1.00  0.00     0.056 A 
HETATM   16  C3  UNL     1      28.048   0.852  54.072  1.00  0.00     0.031 A 
HETATM   17  C4  UNL     1      29.414   0.707  54.197  1.00  0.00     0.002 A 
HETATM   18  C5  UNL     1      30.019  -0.464  53.731  1.00  0.00     0.002 A 
HETATM   19  C6  UNL     1      29.236  -1.464  53.150  1.00  0.00     0.026 A 
HETATM   20  C7  UNL     1      27.864  -1.295  53.036  1.00  0.00     0.060 A 
HETATM   21 CL1  UNL     1      26.938  -2.593  52.295  1.00  0.00    -0.082 Cl
ENDBRANCH   3  15
TORSDOF 5
ENDMDL
MODEL 7
REMARK VINA RESULT:      -7.0      1.999      2.491
REMARK  5 active torsions:
REMARK  status: ('A' for Active; 'I' for Inactive)
REMARK       I    between atoms: C1_2  and  N1_3 
REMARK    1  A    between atoms: C1_2  and  C8_11 
REMARK    2  A    between atoms: N1_3  and  C2_4 
REMARK    3  A    between atoms: C11_14  and  N2_15 
REMARK    4  A    between atoms: N2_15  and  C12_16 
REMARK    5  A    between atoms: N2_15  and  C13_18 
ROOT
HETATM    1  O1  UNL     1      25.040  -0.738  54.366  1.00  0.00    -0.268 OA
HETATM    2  C1  UNL     1      24.948  -0.024  53.311  1.00  0.00     0.252 C 
HETATM    3  N1  UNL     1      26.157   0.172  52.591  1.00  0.00    -0.322 N 
HETATM    4  H1  UNL     1      26.131   0.749  51.722  1.00  0.00     0.169 HD
ENDROOT
BRANCH   2   5
HETATM    5  C8  UNL     1      23.707   0.588  52.815  1.00  0.00     0.015 A 
HETATM    6  C9  UNL     1      22.503   0.559  53.369  1.00  0.00     0.015 A 
HETATM    7  C10 UNL     1      21.614   1.318  52.482  1.00  0.00     0.026 A 
HETATM    8  C11 UNL     1      22.289   1.778  51.434  1.00  0.00     0.013 A 
HETATM    9  C14 UNL     1      23.707   1.362  51.527  1.00  0.00     0.101 A 
BRANCH   8  10
HETATM   10  N2  UNL     1      21.656   2.558  50.401  1.00  0.00    -0.358 N 
BRANCH  10  11
HETATM   11  C12 UNL     1      21.499   4.003  50.338  1.00  0.00     0.239 C 
HETATM   12 CL2  UNL     1      22.253   4.748  51.771  1.00  0.00    -0.109 Cl
ENDBRANCH  10  11
BRANCH  10  13
HETATM   13  C13 UNL     1      21.138   1.713  49.335  1.00  0.00     0.239 C 
HETATM   14 CL3  UNL     1      22.300   1.776  47.992  1.00  0.00    -0.109 Cl
ENDBRANCH  10  13
ENDBRANCH   8  10
ENDBRANCH   2   5
BRANCH   3  15
HETATM   15  C2  UNL     1      27.439  -0.346  52.930  1.00  0.00     0.056 A 
HETATM   16  C3  UNL     1      27.835  -1.664  52.854  1.00  0.00     0.031 A 
HETATM   17  C4  UNL     1      29.107  -2.060  53.209  1.00  0.00     0.002 A 
HETATM   18  C5  UNL     1      30.018  -1.099  53.659  1.00  0.00     0.002 A 
HETATM   19  C6  UNL     1      29.627   0.239  53.741  1.00  0.00     0.026 A 
HETATM   20  C7  UNL     1      28.343   0.613  53.377  1.00  0.00     0.060 A 
HETATM   21 CL1  UNL     1      27.918   2.314  53.506  1.00  0.00    -0.082 Cl
ENDBRANCH   3  15
TORSDOF 5
ENDMDL
MODEL 8
REMARK VINA RESULT:      -6.6      6.559      8.104
REMARK  5 active torsions:
REMARK  status: ('A' for Active; 'I' for Inactive)
REMARK       I    between atoms: C1_2  and  N1_3 
REMARK    1  A    between atoms: C1_2  and  C8_11 
REMARK    2  A    between atoms: N1_3  and  C2_4 
REMARK    3  A    between atoms: C11_14  and  N2_15 
REMARK    4  A    between atoms: N2_15  and  C12_16 
REMARK    5  A    between atoms: N2_15  and  C13_18 
ROOT
HETATM    1  O1  UNL     1      25.077   2.925  49.304  1.00  0.00    -0.268 OA
HETATM    2  C1  UNL     1      25.984   3.665  49.814  1.00  0.00     0.252 C 
HETATM    3  N1  UNL     1      26.511   3.228  51.059  1.00  0.00    -0.322 N 
HETATM    4  H1  UNL     1      27.254   3.801  51.514  1.00  0.00     0.169 HD
ENDROOT
BRANCH   2   5
HETATM    5  C8  UNL     1      26.499   4.902  49.208  1.00  0.00     0.015 A 
HETATM    6  C9  UNL     1      27.670   5.098  48.618  1.00  0.00     0.015 A 
HETATM    7  C10 UNL     1      27.693   6.500  48.186  1.00  0.00     0.026 A 
HETATM    8  C11 UNL     1      26.558   7.106  48.519  1.00  0.00     0.013 A 
HETATM    9  C14 UNL     1      25.663   6.151  49.213  1.00  0.00     0.101 A 
BRANCH   8  10
HETATM   10  N2  UNL     1      26.315   8.493  48.213  1.00  0.00    -0.358 N 
BRANCH  10  11
HETATM   11  C12 UNL     1      26.378   9.149  46.916  1.00  0.00     0.239 C 
HETATM   12 CL2  UNL     1      25.383   8.248  45.743  1.00  0.00    -0.109 Cl
ENDBRANCH  10  11
BRANCH  10  13
HETATM   13  C13 UNL     1      25.975   9.251  49.407  1.00  0.00     0.239 C 
HETATM   14 CL3  UNL     1      27.423   9.304  50.436  1.00  0.00    -0.109 Cl
ENDBRANCH  10  13
ENDBRANCH   8  10
ENDBRANCH   2   5
BRANCH   3  15
HETATM   15  C2  UNL     1      26.126   2.061  51.779  1.00  0.00     0.056 A 
HETATM   16  C3  UNL     1      26.761   0.838  51.753  1.00  0.00     0.031 A 
HETATM   17  C4  UNL     1      26.302  -0.231  52.493  1.00  0.00     0.002 A 
HETATM   18  C5  UNL     1      25.164  -0.070  53.288  1.00  0.00     0.002 A 
HETATM   19  C6  UNL     1      24.512   1.164  53.321  1.00  0.00     0.026 A 
HETATM   20  C7  UNL     1      24.993   2.226  52.569  1.00  0.00     0.060 A 
HETATM   21 CL1  UNL     1      24.124   3.752  52.658  1.00  0.00    -0.082 Cl
ENDBRANCH   3  15
TORSDOF 5
ENDMDL
MODEL 9
REMARK VINA RESULT:      -6.5      6.545      8.835
REMARK  5 active torsions:
REMARK  status: ('A' for Active; 'I' for Inactive)
REMARK       I    between atoms: C1_2  and  N1_3 
REMARK    1  A    between atoms: C1_2  and  C8_11 
REMARK    2  A    between atoms: N1_3  and  C2_4 
REMARK    3  A    between atoms: C11_14  and  N2_15 
REMARK    4  A    between atoms: N2_15  and  C12_16 
REMARK    5  A    between atoms: N2_15  and  C13_18 
ROOT
HETATM    1  O1  UNL     1      25.177   3.012  49.262  1.00  0.00    -0.268 OA
HETATM    2  C1  UNL     1      26.058   3.746  49.823  1.00  0.00     0.252 C 
HETATM    3  N1  UNL     1      26.528   3.292  51.085  1.00  0.00    -0.322 N 
HETATM    4  H1  UNL     1      27.249   3.860  51.581  1.00  0.00     0.169 HD
ENDROOT
BRANCH   2   5
HETATM    5  C8  UNL     1      26.598   4.992  49.258  1.00  0.00     0.015 A 
HETATM    6  C9  UNL     1      26.050   6.199  49.269  1.00  0.00     0.015 A 
HETATM    7  C10 UNL     1      26.987   7.091  48.578  1.00  0.00     0.026 A 
HETATM    8  C11 UNL     1      28.057   6.416  48.174  1.00  0.00     0.013 A 
HETATM    9  C14 UNL     1      27.930   4.992  48.563  1.00  0.00     0.101 A 
BRANCH   8  10
HETATM   10  N2  UNL     1      29.138   7.052  47.465  1.00  0.00    -0.358 N 
BRANCH  10  11
HETATM   11  C12 UNL     1      29.059   7.922  46.302  1.00  0.00     0.239 C 
HETATM   12 CL2  UNL     1      30.601   7.870  45.410  1.00  0.00    -0.109 Cl
ENDBRANCH  10  11
BRANCH  10  13
HETATM   13  C13 UNL     1      30.428   6.725  48.054  1.00  0.00     0.239 C 
HETATM   14 CL3  UNL     1      30.900   8.087  49.094  1.00  0.00    -0.109 Cl
ENDBRANCH  10  13
ENDBRANCH   8  10
ENDBRANCH   2   5
BRANCH   3  15
HETATM   15  C2  UNL     1      26.114   2.115  51.770  1.00  0.00     0.056 A 
HETATM   16  C3  UNL     1      26.767   0.902  51.780  1.00  0.00     0.031 A 
HETATM   17  C4  UNL     1      26.276  -0.179  52.481  1.00  0.00     0.002 A 
HETATM   18  C5  UNL     1      25.084  -0.041  53.198  1.00  0.00     0.002 A 
HETATM   19  C6  UNL     1      24.413   1.184  53.194  1.00  0.00     0.026 A 
HETATM   20  C7  UNL     1      24.927   2.257  52.483  1.00  0.00     0.060 A 
HETATM   21 CL1  UNL     1      24.031   3.770  52.521  1.00  0.00    -0.082 Cl
ENDBRANCH   3  15
TORSDOF 5
ENDMDL
