MODEL 1
REMARK VINA RESULT:      -7.6      0.000      0.000
REMARK  6 active torsions:
REMARK  status: ('A' for Active; 'I' for Inactive)
REMARK    1  A    between atoms: O1_2  and  C2_3 
REMARK    2  A    between atoms: C3_4  and  N1_5 
REMARK    3  A    between atoms: C5_7  and  C6_8 
REMARK    4  A    between atoms: C8_13  and  N4_14 
REMARK    5  A    between atoms: N4_14  and  C9_15 
REMARK    6  A    between atoms: C9_15  and  C10_16 
ROOT
HETATM    1  C6  UNL     1      24.847   0.664  52.708  1.00  0.00     0.178 A 
HETATM    2  N2  UNL     1      25.842  -0.012  53.309  1.00  0.00    -0.197 NA
HETATM    3  C7  UNL     1      27.105   0.448  53.112  1.00  0.00     0.243 A 
HETATM    4 CL1  UNL     1      28.424  -0.410  53.882  1.00  0.00    -0.041 Cl
HETATM    5  N3  UNL     1      27.383   1.538  52.349  1.00  0.00    -0.031 NA
HETATM    6  C8  UNL     1      26.353   2.200  51.753  1.00  0.00     0.727 A 
HETATM    7  N5  UNL     1      25.113   1.745  51.950  1.00  0.00    -0.043 NA
ENDROOT
BRANCH   1   8
HETATM    8  C5  UNL     1      23.449   0.237  52.867  1.00  0.00    -0.001 A 
HETATM    9  C4  UNL     1      22.972  -0.567  53.830  1.00  0.00     0.043 A 
HETATM   10  C3  UNL     1      21.527  -0.751  53.639  1.00  0.00     0.056 A 
HETATM   11  C2  UNL     1      21.180  -0.053  52.571  1.00  0.00     0.076 A 
HETATM   12  C14 UNL     1      22.332   0.639  51.973  1.00  0.00     0.109 A 
BRANCH  10  13
HETATM   13  N1  UNL     1      20.761  -1.565  54.525  1.00  0.00    -0.397 N 
HETATM   14  H4  UNL     1      19.743  -1.831  54.450  1.00  0.00     0.156 HD
HETATM   15  H5  UNL     1      20.993  -2.065  55.400  1.00  0.00     0.156 HD
ENDBRANCH  10  13
BRANCH  11  16
HETATM   16  O1  UNL     1      19.970   0.165  51.901  1.00  0.00    -0.358 OA
HETATM   17  C1  UNL     1      19.411   1.467  51.899  1.00  0.00     0.209 C 
ENDBRANCH  11  16
ENDBRANCH   1   8
BRANCH   6  18
HETATM   18  N4  UNL     1      26.711   3.331  50.970  1.00  0.00    -0.216 N 
HETATM   19  H7  UNL     1      27.097   4.097  51.573  1.00  0.00     0.178 HD
BRANCH  18  20
HETATM   20  C9  UNL     1      26.520   3.312  49.535  1.00  0.00     0.203 C 
BRANCH  20  21
HETATM   21  C10 UNL     1      27.065   4.602  48.993  1.00  0.00     0.070 A 
HETATM   22  C11 UNL     1      26.488   5.828  48.780  1.00  0.00     0.036 A 
HETATM   23  C12 UNL     1      27.448   6.690  48.254  1.00  0.00     0.027 A 
HETATM   24  C13 UNL     1      28.580   5.900  48.182  1.00  0.00     0.142 A 
HETATM   25  O2  UNL     1      28.332   4.700  48.615  1.00  0.00    -0.325 OA
ENDBRANCH  20  21
ENDBRANCH  18  20
ENDBRANCH   6  18
TORSDOF 6
ENDMDL
MODEL 2
REMARK VINA RESULT:      -7.5      2.980      6.881
REMARK  6 active torsions:
REMARK  status: ('A' for Active; 'I' for Inactive)
REMARK    1  A    between atoms: O1_2  and  C2_3 
REMARK    2  A    between atoms: C3_4  and  N1_5 
REMARK    3  A    between atoms: C5_7  and  C6_8 
REMARK    4  A    between atoms: C8_13  and  N4_14 
REMARK    5  A    between atoms: N4_14  and  C9_15 
REMARK    6  A    between atoms: C9_15  and  C10_16 
ROOT
HETATM    1  C6  UNL     1      24.516   1.973  51.463  1.00  0.00     0.178 A 
HETATM    2  N2  UNL     1      23.200   1.701  51.410  1.00  0.00    -0.197 NA
HETATM    3  C7  UNL     1      22.736   0.741  52.251  1.00  0.00     0.243 A 
HETATM    4 CL1  UNL     1      21.026   0.362  52.207  1.00  0.00    -0.041 Cl
HETATM    5  N3  UNL     1      23.538   0.066  53.116  1.00  0.00    -0.031 NA
HETATM    6  C8  UNL     1      24.867   0.365  53.145  1.00  0.00     0.727 A 
HETATM    7  N5  UNL     1      25.318   1.311  52.317  1.00  0.00    -0.043 NA
ENDROOT
BRANCH   1   8
HETATM    8  C5  UNL     1      25.104   2.998  50.589  1.00  0.00    -0.001 A 
HETATM    9  C4  UNL     1      24.478   4.086  50.112  1.00  0.00     0.043 A 
HETATM   10  C3  UNL     1      25.409   4.858  49.279  1.00  0.00     0.056 A 
HETATM   11  C2  UNL     1      26.564   4.214  49.280  1.00  0.00     0.076 A 
HETATM   12  C14 UNL     1      26.505   2.989  50.093  1.00  0.00     0.109 A 
BRANCH  10  13
HETATM   13  N1  UNL     1      25.004   6.069  48.642  1.00  0.00    -0.397 N 
HETATM   14  H4  UNL     1      24.638   6.199  47.662  1.00  0.00     0.156 HD
HETATM   15  H5  UNL     1      24.969   7.053  48.959  1.00  0.00     0.156 HD
ENDBRANCH  10  13
BRANCH  11  16
HETATM   16  O1  UNL     1      27.810   4.445  48.684  1.00  0.00    -0.358 OA
HETATM   17  C1  UNL     1      28.197   5.777  48.396  1.00  0.00     0.209 C 
ENDBRANCH  11  16
ENDBRANCH   1   8
BRANCH   6  18
HETATM   18  N4  UNL     1      25.650  -0.375  54.072  1.00  0.00    -0.216 N 
HETATM   19  H7  UNL     1      25.360  -1.382  54.088  1.00  0.00     0.178 HD
BRANCH  18  20
HETATM   20  C9  UNL     1      26.686   0.286  54.840  1.00  0.00     0.203 C 
BRANCH  20  21
HETATM   21  C10 UNL     1      28.008  -0.147  54.274  1.00  0.00     0.070 A 
HETATM   22  C11 UNL     1      29.182   0.527  54.060  1.00  0.00     0.036 A 
HETATM   23  C12 UNL     1      30.110  -0.353  53.506  1.00  0.00     0.027 A 
HETATM   24  C13 UNL     1      29.408  -1.541  53.419  1.00  0.00     0.142 A 
HETATM   25  O2  UNL     1      28.198  -1.395  53.869  1.00  0.00    -0.325 OA
ENDBRANCH  20  21
ENDBRANCH  18  20
ENDBRANCH   6  18
TORSDOF 6
ENDMDL
MODEL 3
REMARK VINA RESULT:      -7.5      3.637      6.020
REMARK  6 active torsions:
REMARK  status: ('A' for Active; 'I' for Inactive)
REMARK    1  A    between atoms: O1_2  and  C2_3 
REMARK    2  A    between atoms: C3_4  and  N1_5 
REMARK    3  A    between atoms: C5_7  and  C6_8 
REMARK    4  A    between atoms: C8_13  and  N4_14 
REMARK    5  A    between atoms: N4_14  and  C9_15 
REMARK    6  A    between atoms: C9_15  and  C10_16 
ROOT
HETATM    1  C6  UNL     1      23.495   1.592  52.789  1.00  0.00     0.178 A 
HETATM    2  N2  UNL     1      22.297   1.098  53.148  1.00  0.00    -0.197 NA
HETATM    3  C7  UNL     1      22.289  -0.126  53.738  1.00  0.00     0.243 A 
HETATM    4 CL1  UNL     1      20.744  -0.799  54.218  1.00  0.00    -0.041 Cl
HETATM    5  N3  UNL     1      23.420  -0.843  53.967  1.00  0.00    -0.031 NA
HETATM    6  C8  UNL     1      24.617  -0.314  53.591  1.00  0.00     0.727 A 
HETATM    7  N5  UNL     1      24.622   0.889  53.013  1.00  0.00    -0.043 NA
ENDROOT
BRANCH   1   8
HETATM    8  C5  UNL     1      23.598   2.910  52.146  1.00  0.00    -0.001 A 
HETATM    9  C4  UNL     1      23.829   4.078  52.766  1.00  0.00     0.043 A 
HETATM   10  C3  UNL     1      23.860   5.160  51.773  1.00  0.00     0.056 A 
HETATM   11  C2  UNL     1      23.648   4.611  50.588  1.00  0.00     0.076 A 
HETATM   12  C14 UNL     1      23.463   3.155  50.686  1.00  0.00     0.109 A 
BRANCH  10  13
HETATM   13  N1  UNL     1      24.087   6.514  52.159  1.00  0.00    -0.397 N 
HETATM   14  H4  UNL     1      23.429   7.169  52.659  1.00  0.00     0.156 HD
HETATM   15  H5  UNL     1      24.897   7.149  52.055  1.00  0.00     0.156 HD
ENDBRANCH  10  13
BRANCH  11  16
HETATM   16  O1  UNL     1      23.566   5.112  49.283  1.00  0.00    -0.358 OA
HETATM   17  C1  UNL     1      22.874   4.361  48.301  1.00  0.00     0.209 C 
ENDBRANCH  11  16
ENDBRANCH   1   8
BRANCH   6  18
HETATM   18  N4  UNL     1      25.762  -1.113  53.861  1.00  0.00    -0.216 N 
HETATM   19  H7  UNL     1      25.809  -1.369  54.877  1.00  0.00     0.178 HD
BRANCH  18  20
HETATM   20  C9  UNL     1      26.673  -1.464  52.791  1.00  0.00     0.203 C 
BRANCH  20  21
HETATM   21  C10 UNL     1      28.024  -0.921  53.157  1.00  0.00     0.070 A 
HETATM   22  C11 UNL     1      29.242  -1.526  53.336  1.00  0.00     0.036 A 
HETATM   23  C12 UNL     1      30.181  -0.553  53.673  1.00  0.00     0.027 A 
HETATM   24  C13 UNL     1      29.441   0.615  53.675  1.00  0.00     0.142 A 
HETATM   25  O2  UNL     1      28.200   0.375  53.374  1.00  0.00    -0.325 OA
ENDBRANCH  20  21
ENDBRANCH  18  20
ENDBRANCH   6  18
TORSDOF 6
ENDMDL
MODEL 4
REMARK VINA RESULT:      -7.4      3.715      5.227
REMARK  6 active torsions:
REMARK  status: ('A' for Active; 'I' for Inactive)
REMARK    1  A    between atoms: O1_2  and  C2_3 
REMARK    2  A    between atoms: C3_4  and  N1_5 
REMARK    3  A    between atoms: C5_7  and  C6_8 
REMARK    4  A    between atoms: C8_13  and  N4_14 
REMARK    5  A    between atoms: N4_14  and  C9_15 
REMARK    6  A    between atoms: C9_15  and  C10_16 
ROOT
HETATM    1  C6  UNL     1      22.436   0.571  52.193  1.00  0.00     0.178 A 
HETATM    2  N2  UNL     1      22.962   1.488  51.361  1.00  0.00    -0.197 NA
HETATM    3  C7  UNL     1      24.297   1.715  51.460  1.00  0.00     0.243 A 
HETATM    4 CL1  UNL     1      25.013   2.903  50.390  1.00  0.00    -0.041 Cl
HETATM    5  N3  UNL     1      25.093   1.064  52.349  1.00  0.00    -0.031 NA
HETATM    6  C8  UNL     1      24.529   0.142  53.178  1.00  0.00     0.727 A 
HETATM    7  N5  UNL     1      23.217  -0.079  53.077  1.00  0.00    -0.043 NA
ENDROOT
BRANCH   1   8
HETATM    8  C5  UNL     1      21.000   0.261  52.154  1.00  0.00    -0.001 A 
HETATM    9  C4  UNL     1      20.167   0.494  51.128  1.00  0.00     0.043 A 
HETATM   10  C3  UNL     1      18.816   0.041  51.483  1.00  0.00     0.056 A 
HETATM   11  C2  UNL     1      18.876  -0.450  52.710  1.00  0.00     0.076 A 
HETATM   12  C14 UNL     1      20.237  -0.369  53.264  1.00  0.00     0.109 A 
BRANCH  10  13
HETATM   13  N1  UNL     1      17.727   0.169  50.570  1.00  0.00    -0.397 N 
HETATM   14  H4  UNL     1      17.765   0.277  49.522  1.00  0.00     0.156 HD
HETATM   15  H5  UNL     1      16.701   0.186  50.697  1.00  0.00     0.156 HD
ENDBRANCH  10  13
BRANCH  11  16
HETATM   16  O1  UNL     1      17.939  -1.021  53.578  1.00  0.00    -0.358 OA
HETATM   17  C1  UNL     1      17.882  -2.432  53.697  1.00  0.00     0.209 C 
ENDBRANCH  11  16
ENDBRANCH   1   8
BRANCH   6  18
HETATM   18  N4  UNL     1      25.416  -0.504  54.083  1.00  0.00    -0.216 N 
HETATM   19  H7  UNL     1      25.219  -1.533  54.130  1.00  0.00     0.178 HD
BRANCH  18  20
HETATM   20  C9  UNL     1      26.419   0.263  54.791  1.00  0.00     0.203 C 
BRANCH  20  21
HETATM   21  C10 UNL     1      27.760  -0.148  54.253  1.00  0.00     0.070 A 
HETATM   22  C11 UNL     1      28.955   0.517  54.154  1.00  0.00     0.036 A 
HETATM   23  C12 UNL     1      29.894  -0.333  53.570  1.00  0.00     0.027 A 
HETATM   24  C13 UNL     1      29.176  -1.494  53.348  1.00  0.00     0.142 A 
HETATM   25  O2  UNL     1      27.948  -1.361  53.751  1.00  0.00    -0.325 OA
ENDBRANCH  20  21
ENDBRANCH  18  20
ENDBRANCH   6  18
TORSDOF 6
ENDMDL
MODEL 5
REMARK VINA RESULT:      -7.4      3.328      7.473
REMARK  6 active torsions:
REMARK  status: ('A' for Active; 'I' for Inactive)
REMARK    1  A    between atoms: O1_2  and  C2_3 
REMARK    2  A    between atoms: C3_4  and  N1_5 
REMARK    3  A    between atoms: C5_7  and  C6_8 
REMARK    4  A    between atoms: C8_13  and  N4_14 
REMARK    5  A    between atoms: N4_14  and  C9_15 
REMARK    6  A    between atoms: C9_15  and  C10_16 
ROOT
HETATM    1  C6  UNL     1      25.740   2.048  51.762  1.00  0.00     0.178 A 
HETATM    2  N2  UNL     1      25.909   3.056  50.889  1.00  0.00    -0.197 NA
HETATM    3  C7  UNL     1      24.830   3.413  50.146  1.00  0.00     0.243 A 
HETATM    4 CL1  UNL     1      25.016   4.723  48.998  1.00  0.00    -0.041 Cl
HETATM    5  N3  UNL     1      23.621   2.800  50.256  1.00  0.00    -0.031 NA
HETATM    6  C8  UNL     1      23.484   1.782  51.151  1.00  0.00     0.727 A 
HETATM    7  N5  UNL     1      24.547   1.435  51.879  1.00  0.00    -0.043 NA
ENDROOT
BRANCH   1   8
HETATM    8  C5  UNL     1      26.855   1.595  52.608  1.00  0.00    -0.001 A 
HETATM    9  C4  UNL     1      27.753   2.381  53.221  1.00  0.00     0.043 A 
HETATM   10  C3  UNL     1      28.703   1.547  53.968  1.00  0.00     0.056 A 
HETATM   11  C2  UNL     1      28.348   0.286  53.783  1.00  0.00     0.076 A 
HETATM   12  C14 UNL     1      27.161   0.174  52.920  1.00  0.00     0.109 A 
BRANCH  10  13
HETATM   13  N1  UNL     1      29.770   2.126  54.717  1.00  0.00    -0.397 N 
HETATM   14  H4  UNL     1      29.728   2.578  55.669  1.00  0.00     0.156 HD
HETATM   15  H5  UNL     1      30.780   2.241  54.529  1.00  0.00     0.156 HD
ENDBRANCH  10  13
BRANCH  11  16
HETATM   16  O1  UNL     1      28.849  -0.943  54.227  1.00  0.00    -0.358 OA
HETATM   17  C1  UNL     1      29.420  -1.833  53.284  1.00  0.00     0.209 C 
ENDBRANCH  11  16
ENDBRANCH   1   8
BRANCH   6  18
HETATM   18  N4  UNL     1      22.195   1.184  51.218  1.00  0.00    -0.216 N 
HETATM   19  H7  UNL     1      22.011   0.595  50.370  1.00  0.00     0.178 HD
BRANCH  18  20
HETATM   20  C9  UNL     1      21.338   1.431  52.359  1.00  0.00     0.203 C 
BRANCH  20  21
HETATM   21  C10 UNL     1      21.386   0.207  53.228  1.00  0.00     0.070 A 
HETATM   22  C11 UNL     1      22.388  -0.346  53.984  1.00  0.00     0.036 A 
HETATM   23  C12 UNL     1      21.900  -1.495  54.604  1.00  0.00     0.027 A 
HETATM   24  C13 UNL     1      20.591  -1.561  54.164  1.00  0.00     0.142 A 
HETATM   25  O2  UNL     1      20.320  -0.567  53.372  1.00  0.00    -0.325 OA
ENDBRANCH  20  21
ENDBRANCH  18  20
ENDBRANCH   6  18
TORSDOF 6
ENDMDL
MODEL 6
REMARK VINA RESULT:      -7.4      2.979      5.179
REMARK  6 active torsions:
REMARK  status: ('A' for Active; 'I' for Inactive)
REMARK    1  A    between atoms: O1_2  and  C2_3 
REMARK    2  A    between atoms: C3_4  and  N1_5 
REMARK    3  A    between atoms: C5_7  and  C6_8 
REMARK    4  A    between atoms: C8_13  and  N4_14 
REMARK    5  A    between atoms: N4_14  and  C9_15 
REMARK    6  A    between atoms: C9_15  and  C10_16 
ROOT
HETATM    1  C6  UNL     1      24.704   0.187  52.747  1.00  0.00     0.178 A 
HETATM    2  N2  UNL     1      23.643  -0.357  53.368  1.00  0.00    -0.197 NA
HETATM    3  C7  UNL     1      22.438   0.231  53.154  1.00  0.00     0.243 A 
HETATM    4 CL1  UNL     1      21.034  -0.454  53.949  1.00  0.00    -0.041 Cl
HETATM    5  N3  UNL     1      22.278   1.319  52.356  1.00  0.00    -0.031 NA
HETATM    6  C8  UNL     1      23.373   1.846  51.742  1.00  0.00     0.727 A 
HETATM    7  N5  UNL     1      24.556   1.265  51.954  1.00  0.00    -0.043 NA
ENDROOT
BRANCH   1   8
HETATM    8  C5  UNL     1      26.048  -0.385  52.921  1.00  0.00    -0.001 A 
HETATM    9  C4  UNL     1      26.374  -1.683  52.828  1.00  0.00     0.043 A 
HETATM   10  C3  UNL     1      27.814  -1.843  53.067  1.00  0.00     0.056 A 
HETATM   11  C2  UNL     1      28.310  -0.639  53.296  1.00  0.00     0.076 A 
HETATM   12  C14 UNL     1      27.271   0.401  53.230  1.00  0.00     0.109 A 
BRANCH  10  13
HETATM   13  N1  UNL     1      28.433  -3.128  53.029  1.00  0.00    -0.397 N 
HETATM   14  H4  UNL     1      28.026  -4.057  53.317  1.00  0.00     0.156 HD
HETATM   15  H5  UNL     1      29.370  -3.449  52.730  1.00  0.00     0.156 HD
ENDBRANCH  10  13
BRANCH  11  16
HETATM   16  O1  UNL     1      29.591  -0.150  53.580  1.00  0.00    -0.358 OA
HETATM   17  C1  UNL     1      29.720   1.072  54.285  1.00  0.00     0.209 C 
ENDBRANCH  11  16
ENDBRANCH   1   8
BRANCH   6  18
HETATM   18  N4  UNL     1      23.138   2.983  50.920  1.00  0.00    -0.216 N 
HETATM   19  H7  UNL     1      22.693   3.757  51.470  1.00  0.00     0.178 HD
BRANCH  18  20
HETATM   20  C9  UNL     1      23.506   2.957  49.520  1.00  0.00     0.203 C 
BRANCH  20  21
HETATM   21  C10 UNL     1      24.799   3.710  49.383  1.00  0.00     0.070 A 
HETATM   22  C11 UNL     1      26.109   3.314  49.471  1.00  0.00     0.036 A 
HETATM   23  C12 UNL     1      26.927   4.422  49.260  1.00  0.00     0.027 A 
HETATM   24  C13 UNL     1      26.025   5.448  49.051  1.00  0.00     0.142 A 
HETATM   25  O2  UNL     1      24.804   5.011  49.127  1.00  0.00    -0.325 OA
ENDBRANCH  20  21
ENDBRANCH  18  20
ENDBRANCH   6  18
TORSDOF 6
ENDMDL
MODEL 7
REMARK VINA RESULT:      -7.3      3.343      4.437
REMARK  6 active torsions:
REMARK  status: ('A' for Active; 'I' for Inactive)
REMARK    1  A    between atoms: O1_2  and  C2_3 
REMARK    2  A    between atoms: C3_4  and  N1_5 
REMARK    3  A    between atoms: C5_7  and  C6_8 
REMARK    4  A    between atoms: C8_13  and  N4_14 
REMARK    5  A    between atoms: N4_14  and  C9_15 
REMARK    6  A    between atoms: C9_15  and  C10_16 
ROOT
HETATM    1  C6  UNL     1      24.862   1.878  51.908  1.00  0.00     0.178 A 
HETATM    2  N2  UNL     1      23.769   1.533  51.204  1.00  0.00    -0.197 NA
HETATM    3  C7  UNL     1      23.377   2.383  50.221  1.00  0.00     0.243 A 
HETATM    4 CL1  UNL     1      21.956   1.962  49.285  1.00  0.00    -0.041 Cl
HETATM    5  N3  UNL     1      24.035   3.537  49.936  1.00  0.00    -0.031 NA
HETATM    6  C8  UNL     1      25.138   3.859  50.668  1.00  0.00     0.727 A 
HETATM    7  N5  UNL     1      25.521   3.020  51.633  1.00  0.00    -0.043 NA
ENDROOT
BRANCH   1   8
HETATM    8  C5  UNL     1      25.359   1.016  52.990  1.00  0.00    -0.001 A 
HETATM    9  C4  UNL     1      24.623   0.173  53.732  1.00  0.00     0.043 A 
HETATM   10  C3  UNL     1      25.490  -0.504  54.705  1.00  0.00     0.056 A 
HETATM   11  C2  UNL     1      26.718  -0.049  54.520  1.00  0.00     0.076 A 
HETATM   12  C14 UNL     1      26.775   0.944  53.436  1.00  0.00     0.109 A 
BRANCH  10  13
HETATM   13  N1  UNL     1      24.966  -1.458  55.627  1.00  0.00    -0.397 N 
HETATM   14  H4  UNL     1      24.607  -2.429  55.425  1.00  0.00     0.156 HD
HETATM   15  H5  UNL     1      24.818  -1.441  56.650  1.00  0.00     0.156 HD
ENDBRANCH  10  13
BRANCH  11  16
HETATM   16  O1  UNL     1      27.955  -0.307  55.124  1.00  0.00    -0.358 OA
HETATM   17  C1  UNL     1      29.115  -0.370  54.315  1.00  0.00     0.209 C 
ENDBRANCH  11  16
ENDBRANCH   1   8
BRANCH   6  18
HETATM   18  N4  UNL     1      25.781   5.078  50.320  1.00  0.00    -0.216 N 
HETATM   19  H7  UNL     1      26.237   5.514  51.158  1.00  0.00     0.178 HD
BRANCH  18  20
HETATM   20  C9  UNL     1      25.743   5.556  48.953  1.00  0.00     0.203 C 
BRANCH  20  21
HETATM   21  C10 UNL     1      27.161   5.811  48.528  1.00  0.00     0.070 A 
HETATM   22  C11 UNL     1      27.779   6.914  48.000  1.00  0.00     0.036 A 
HETATM   23  C12 UNL     1      29.124   6.615  47.784  1.00  0.00     0.027 A 
HETATM   24  C13 UNL     1      29.230   5.305  48.212  1.00  0.00     0.142 A 
HETATM   25  O2  UNL     1      28.084   4.864  48.637  1.00  0.00    -0.325 OA
ENDBRANCH  20  21
ENDBRANCH  18  20
ENDBRANCH   6  18
TORSDOF 6
ENDMDL
MODEL 8
REMARK VINA RESULT:      -7.2      3.152      6.428
REMARK  6 active torsions:
REMARK  status: ('A' for Active; 'I' for Inactive)
REMARK    1  A    between atoms: O1_2  and  C2_3 
REMARK    2  A    between atoms: C3_4  and  N1_5 
REMARK    3  A    between atoms: C5_7  and  C6_8 
REMARK    4  A    between atoms: C8_13  and  N4_14 
REMARK    5  A    between atoms: N4_14  and  C9_15 
REMARK    6  A    between atoms: C9_15  and  C10_16 
ROOT
HETATM    1  C6  UNL     1      25.833   2.084  51.402  1.00  0.00     0.178 A 
HETATM    2  N2  UNL     1      26.755   2.822  50.760  1.00  0.00    -0.197 NA
HETATM    3  C7  UNL     1      26.317   3.601  49.738  1.00  0.00     0.243 A 
HETATM    4 CL1  UNL     1      27.494   4.576  48.881  1.00  0.00    -0.041 Cl
HETATM    5  N3  UNL     1      25.014   3.654  49.356  1.00  0.00    -0.031 NA
HETATM    6  C8  UNL     1      24.104   2.893  50.027  1.00  0.00     0.727 A 
HETATM    7  N5  UNL     1      24.539   2.130  51.031  1.00  0.00    -0.043 NA
ENDROOT
BRANCH   1   8
HETATM    8  C5  UNL     1      26.218   1.212  52.522  1.00  0.00    -0.001 A 
HETATM    9  C4  UNL     1      25.387   0.672  53.427  1.00  0.00     0.043 A 
HETATM   10  C3  UNL     1      26.161  -0.135  54.380  1.00  0.00     0.056 A 
HETATM   11  C2  UNL     1      27.431  -0.056  54.019  1.00  0.00     0.076 A 
HETATM   12  C14 UNL     1      27.609   0.786  52.826  1.00  0.00     0.109 A 
BRANCH  10  13
HETATM   13  N1  UNL     1      25.526  -0.825  55.454  1.00  0.00    -0.397 N 
HETATM   14  H4  UNL     1      24.830  -1.617  55.399  1.00  0.00     0.156 HD
HETATM   15  H5  UNL     1      25.583  -0.732  56.482  1.00  0.00     0.156 HD
ENDBRANCH  10  13
BRANCH  11  16
HETATM   16  O1  UNL     1      28.622  -0.597  54.521  1.00  0.00    -0.358 OA
HETATM   17  C1  UNL     1      29.751  -0.680  53.669  1.00  0.00     0.209 C 
ENDBRANCH  11  16
ENDBRANCH   1   8
BRANCH   6  18
HETATM   18  N4  UNL     1      22.759   2.995  49.578  1.00  0.00    -0.216 N 
HETATM   19  H7  UNL     1      22.354   3.933  49.818  1.00  0.00     0.178 HD
BRANCH  18  20
HETATM   20  C9  UNL     1      22.134   1.883  48.894  1.00  0.00     0.203 C 
BRANCH  20  21
HETATM   21  C10 UNL     1      21.132   1.282  49.837  1.00  0.00     0.070 A 
HETATM   22  C11 UNL     1      21.274   0.491  50.949  1.00  0.00     0.036 A 
HETATM   23  C12 UNL     1      20.009   0.209  51.463  1.00  0.00     0.027 A 
HETATM   24  C13 UNL     1      19.159   0.871  50.596  1.00  0.00     0.142 A 
HETATM   25  O2  UNL     1      19.832   1.483  49.668  1.00  0.00    -0.325 OA
ENDBRANCH  20  21
ENDBRANCH  18  20
ENDBRANCH   6  18
TORSDOF 6
ENDMDL
MODEL 9
REMARK VINA RESULT:      -7.1      4.117      8.036
REMARK  6 active torsions:
REMARK  status: ('A' for Active; 'I' for Inactive)
REMARK    1  A    between atoms: O1_2  and  C2_3 
REMARK    2  A    between atoms: C3_4  and  N1_5 
REMARK    3  A    between atoms: C5_7  and  C6_8 
REMARK    4  A    between atoms: C8_13  and  N4_14 
REMARK    5  A    between atoms: N4_14  and  C9_15 
REMARK    6  A    between atoms: C9_15  and  C10_16 
ROOT
HETATM    1  C6  UNL     1      24.339   1.008  52.563  1.00  0.00     0.178 A 
HETATM    2  N2  UNL     1      24.221   1.544  51.336  1.00  0.00    -0.197 NA
HETATM    3  C7  UNL     1      22.964   1.821  50.903  1.00  0.00     0.243 A 
HETATM    4 CL1  UNL     1      22.776   2.520  49.308  1.00  0.00    -0.041 Cl
HETATM    5  N3  UNL     1      21.856   1.579  51.651  1.00  0.00    -0.031 NA
HETATM    6  C8  UNL     1      22.009   1.034  52.891  1.00  0.00     0.727 A 
HETATM    7  N5  UNL     1      23.247   0.765  53.312  1.00  0.00    -0.043 NA
ENDROOT
BRANCH   1   8
HETATM    8  C5  UNL     1      25.662   0.677  53.112  1.00  0.00    -0.001 A 
HETATM    9  C4  UNL     1      26.458   1.501  53.810  1.00  0.00     0.043 A 
HETATM   10  C3  UNL     1      27.691   0.793  54.178  1.00  0.00     0.056 A 
HETATM   11  C2  UNL     1      27.600  -0.433  53.692  1.00  0.00     0.076 A 
HETATM   12  C14 UNL     1      26.331  -0.644  52.977  1.00  0.00     0.109 A 
BRANCH  10  13
HETATM   13  N1  UNL     1      28.720   1.437  54.928  1.00  0.00    -0.397 N 
HETATM   14  H4  UNL     1      28.887   2.471  55.051  1.00  0.00     0.156 HD
HETATM   15  H5  UNL     1      29.504   1.079  55.500  1.00  0.00     0.156 HD
ENDBRANCH  10  13
BRANCH  11  16
HETATM   16  O1  UNL     1      28.437  -1.555  53.714  1.00  0.00    -0.358 OA
HETATM   17  C1  UNL     1      29.816  -1.389  53.439  1.00  0.00     0.209 C 
ENDBRANCH  11  16
ENDBRANCH   1   8
BRANCH   6  18
HETATM   18  N4  UNL     1      20.811   0.807  53.622  1.00  0.00    -0.216 N 
HETATM   19  H7  UNL     1      20.433   1.706  54.009  1.00  0.00     0.178 HD
BRANCH  18  20
HETATM   20  C9  UNL     1      20.279  -0.534  53.748  1.00  0.00     0.203 C 
BRANCH  20  21
HETATM   21  C10 UNL     1      18.964  -0.563  53.023  1.00  0.00     0.070 A 
HETATM   22  C11 UNL     1      18.597  -0.160  51.765  1.00  0.00     0.036 A 
HETATM   23  C12 UNL     1      17.238  -0.415  51.590  1.00  0.00     0.027 A 
HETATM   24  C13 UNL     1      16.863  -0.975  52.797  1.00  0.00     0.142 A 
HETATM   25  O2  UNL     1      17.877  -1.050  53.606  1.00  0.00    -0.325 OA
ENDBRANCH  20  21
ENDBRANCH  18  20
ENDBRANCH   6  18
TORSDOF 6
ENDMDL
