MODEL 1
REMARK VINA RESULT:      -7.5      0.000      0.000
REMARK  4 active torsions:
REMARK  status: ('A' for Active; 'I' for Inactive)
REMARK    1  A    between atoms: O1_2  and  C2_3 
REMARK    2  A    between atoms: C6_9  and  N3_10 
REMARK    3  A    between atoms: C11_15  and  O2_16 
REMARK    4  A    between atoms: C15_20  and  O3_21 
ROOT
HETATM    1  C2  UNL     1      22.191   1.218  51.859  1.00  0.00     0.103 A 
HETATM    2  C3  UNL     1      22.968   2.117  51.154  1.00  0.00     0.072 A 
HETATM    3  C4  UNL     1      24.320   2.086  51.305  1.00  0.00     0.075 A 
HETATM    4  N1  UNL     1      25.174   2.916  50.666  1.00  0.00    -0.241 NA
HETATM    5  C5  UNL     1      26.514   2.833  50.862  1.00  0.00     0.236 A 
HETATM    6  N2  UNL     1      27.108   1.932  51.694  1.00  0.00    -0.224 NA
HETATM    7  C6  UNL     1      26.260   1.092  52.342  1.00  0.00     0.142 A 
HETATM    8  C13 UNL     1      24.896   1.164  52.155  1.00  0.00     0.041 A 
HETATM    9  C14 UNL     1      24.109   0.274  52.850  1.00  0.00     0.057 A 
HETATM   10  C15 UNL     1      22.723   0.279  52.718  1.00  0.00     0.102 A 
ENDROOT
BRANCH   7  11
HETATM   11  N3  UNL     1      26.921   0.167  53.203  1.00  0.00    -0.335 N 
HETATM   12  C7  UNL     1      27.380  -1.192  52.871  1.00  0.00     0.154 C 
HETATM   13  C8  UNL     1      28.854  -1.298  53.133  1.00  0.00    -0.011 C 
HETATM   14  C9  UNL     1      29.337  -0.379  53.932  1.00  0.00    -0.025 C 
HETATM   15  C10 UNL     1      28.715   0.754  54.635  1.00  0.00     0.081 C 
HETATM   16  C11 UNL     1      27.205   0.543  54.578  1.00  0.00     0.227 C 
BRANCH  16  17
HETATM   17  O2  UNL     1      26.818  -0.535  55.365  1.00  0.00    -0.371 OA
HETATM   18  C12 UNL     1      25.496  -0.483  55.785  1.00  0.00     0.204 C 
ENDBRANCH  16  17
ENDBRANCH   7  11
BRANCH  10  19
HETATM   19  O3  UNL     1      21.862  -0.584  53.385  1.00  0.00    -0.353 OA
HETATM   20  C16 UNL     1      21.838  -0.754  54.768  1.00  0.00     0.210 C 
ENDBRANCH  10  19
BRANCH   1  21
HETATM   21  O1  UNL     1      20.795   1.248  51.704  1.00  0.00    -0.353 OA
HETATM   22  C1  UNL     1      20.018   2.296  52.242  1.00  0.00     0.210 C 
ENDBRANCH   1  21
TORSDOF 4
ENDMDL
MODEL 2
REMARK VINA RESULT:      -7.3      1.876      3.626
REMARK  4 active torsions:
REMARK  status: ('A' for Active; 'I' for Inactive)
REMARK    1  A    between atoms: O1_2  and  C2_3 
REMARK    2  A    between atoms: C6_9  and  N3_10 
REMARK    3  A    between atoms: C11_15  and  O2_16 
REMARK    4  A    between atoms: C15_20  and  O3_21 
ROOT
HETATM    1  C2  UNL     1      21.024   0.832  52.641  1.00  0.00     0.103 A 
HETATM    2  C3  UNL     1      21.023  -0.008  53.738  1.00  0.00     0.072 A 
HETATM    3  C4  UNL     1      22.210  -0.445  54.240  1.00  0.00     0.075 A 
HETATM    4  N1  UNL     1      22.327  -1.266  55.306  1.00  0.00    -0.241 NA
HETATM    5  C5  UNL     1      23.543  -1.666  55.756  1.00  0.00     0.236 A 
HETATM    6  N2  UNL     1      24.725  -1.287  55.195  1.00  0.00    -0.224 NA
HETATM    7  C6  UNL     1      24.621  -0.461  54.122  1.00  0.00     0.142 A 
HETATM    8  C13 UNL     1      23.393  -0.046  53.652  1.00  0.00     0.041 A 
HETATM    9  C14 UNL     1      23.378   0.791  52.560  1.00  0.00     0.057 A 
HETATM   10  C15 UNL     1      22.181   1.256  52.022  1.00  0.00     0.102 A 
ENDROOT
BRANCH   7  11
HETATM   11  N3  UNL     1      25.880  -0.089  53.565  1.00  0.00    -0.335 N 
HETATM   12  C7  UNL     1      26.412  -0.447  52.239  1.00  0.00     0.154 C 
HETATM   13  C8  UNL     1      26.736   0.805  51.478  1.00  0.00    -0.011 C 
HETATM   14  C9  UNL     1      26.872   1.878  52.218  1.00  0.00    -0.025 C 
HETATM   15  C10 UNL     1      26.768   2.105  53.669  1.00  0.00     0.081 C 
HETATM   16  C11 UNL     1      26.793   0.735  54.340  1.00  0.00     0.227 C 
BRANCH  16  17
HETATM   17  O2  UNL     1      28.044   0.142  54.228  1.00  0.00    -0.371 OA
HETATM   18  C12 UNL     1      29.081   0.904  54.749  1.00  0.00     0.204 C 
ENDBRANCH  16  17
ENDBRANCH   7  11
BRANCH  10  19
HETATM   19  O3  UNL     1      22.083   2.102  50.924  1.00  0.00    -0.353 OA
HETATM   20  C16 UNL     1      22.128   1.673  49.598  1.00  0.00     0.210 C 
ENDBRANCH  10  19
BRANCH   1  21
HETATM   21  O1  UNL     1      19.799   1.284  52.122  1.00  0.00    -0.353 OA
HETATM   22  C1  UNL     1      18.898   0.402  51.490  1.00  0.00     0.210 C 
ENDBRANCH   1  21
TORSDOF 4
ENDMDL
MODEL 3
REMARK VINA RESULT:      -7.1      2.309      6.466
REMARK  4 active torsions:
REMARK  status: ('A' for Active; 'I' for Inactive)
REMARK    1  A    between atoms: O1_2  and  C2_3 
REMARK    2  A    between atoms: C6_9  and  N3_10 
REMARK    3  A    between atoms: C11_15  and  O2_16 
REMARK    4  A    between atoms: C15_20  and  O3_21 
ROOT
HETATM    1  C2  UNL     1      26.513   0.102  53.326  1.00  0.00     0.103 A 
HETATM    2  C3  UNL     1      25.778  -0.639  54.230  1.00  0.00     0.072 A 
HETATM    3  C4  UNL     1      24.420  -0.562  54.203  1.00  0.00     0.075 A 
HETATM    4  N1  UNL     1      23.604  -1.241  55.038  1.00  0.00    -0.241 NA
HETATM    5  C5  UNL     1      22.255  -1.119  54.957  1.00  0.00     0.236 A 
HETATM    6  N2  UNL     1      21.614  -0.324  54.055  1.00  0.00    -0.224 NA
HETATM    7  C6  UNL     1      22.424   0.364  53.209  1.00  0.00     0.142 A 
HETATM    8  C13 UNL     1      23.797   0.251  53.278  1.00  0.00     0.041 A 
HETATM    9  C14 UNL     1      24.542   0.983  52.383  1.00  0.00     0.057 A 
HETATM   10  C15 UNL     1      25.933   0.926  52.384  1.00  0.00     0.102 A 
ENDROOT
BRANCH   7  11
HETATM   11  N3  UNL     1      21.715   1.183  52.281  1.00  0.00    -0.335 N 
HETATM   12  C7  UNL     1      21.535   2.643  52.333  1.00  0.00     0.154 C 
HETATM   13  C8  UNL     1      22.065   3.255  51.069  1.00  0.00    -0.011 C 
HETATM   14  C9  UNL     1      22.193   2.422  50.066  1.00  0.00    -0.025 C 
HETATM   15  C10 UNL     1      21.917   0.983  49.928  1.00  0.00     0.081 C 
HETATM   16  C11 UNL     1      21.072   0.570  51.130  1.00  0.00     0.227 C 
BRANCH  16  17
HETATM   17  O2  UNL     1      19.797   1.118  51.059  1.00  0.00    -0.371 OA
HETATM   18  C12 UNL     1      18.783   0.238  51.408  1.00  0.00     0.204 C 
ENDBRANCH  16  17
ENDBRANCH   7  11
BRANCH  10  19
HETATM   19  O3  UNL     1      26.755   1.634  51.516  1.00  0.00    -0.353 OA
HETATM   20  C16 UNL     1      26.372   2.794  50.844  1.00  0.00     0.210 C 
ENDBRANCH  10  19
BRANCH   1  21
HETATM   21  O1  UNL     1      27.916   0.023  53.353  1.00  0.00    -0.353 OA
HETATM   22  C1  UNL     1      28.641   0.225  54.547  1.00  0.00     0.210 C 
ENDBRANCH   1  21
TORSDOF 4
ENDMDL
MODEL 4
REMARK VINA RESULT:      -7.1      1.726      5.662
REMARK  4 active torsions:
REMARK  status: ('A' for Active; 'I' for Inactive)
REMARK    1  A    between atoms: O1_2  and  C2_3 
REMARK    2  A    between atoms: C6_9  and  N3_10 
REMARK    3  A    between atoms: C11_15  and  O2_16 
REMARK    4  A    between atoms: C15_20  and  O3_21 
ROOT
HETATM    1  C2  UNL     1      26.490   0.368  53.452  1.00  0.00     0.103 A 
HETATM    2  C3  UNL     1      27.140   1.279  52.642  1.00  0.00     0.072 A 
HETATM    3  C4  UNL     1      26.417   2.000  51.743  1.00  0.00     0.075 A 
HETATM    4  N1  UNL     1      26.947   2.916  50.903  1.00  0.00    -0.241 NA
HETATM    5  C5  UNL     1      26.169   3.602  50.029  1.00  0.00     0.236 A 
HETATM    6  N2  UNL     1      24.821   3.439  49.918  1.00  0.00    -0.224 NA
HETATM    7  C6  UNL     1      24.276   2.520  50.757  1.00  0.00     0.142 A 
HETATM    8  C13 UNL     1      25.053   1.814  51.651  1.00  0.00     0.041 A 
HETATM    9  C14 UNL     1      24.420   0.903  52.465  1.00  0.00     0.057 A 
HETATM   10  C15 UNL     1      25.130   0.150  53.396  1.00  0.00     0.102 A 
ENDROOT
BRANCH   7  11
HETATM   11  N3  UNL     1      22.864   2.379  50.609  1.00  0.00    -0.335 N 
HETATM   12  C7  UNL     1      22.146   1.413  49.761  1.00  0.00     0.154 C 
HETATM   13  C8  UNL     1      21.219   0.597  50.612  1.00  0.00    -0.011 C 
HETATM   14  C9  UNL     1      20.932   1.126  51.776  1.00  0.00    -0.025 C 
HETATM   15  C10 UNL     1      21.345   2.380  52.427  1.00  0.00     0.081 C 
HETATM   16  C11 UNL     1      21.974   3.258  51.350  1.00  0.00     0.227 C 
BRANCH  16  17
HETATM   17  O2  UNL     1      21.021   3.702  50.442  1.00  0.00    -0.371 OA
HETATM   18  C12 UNL     1      21.118   5.051  50.133  1.00  0.00     0.204 C 
ENDBRANCH  16  17
ENDBRANCH   7  11
BRANCH  10  19
HETATM   19  O3  UNL     1      24.565  -0.788  54.250  1.00  0.00    -0.353 OA
HETATM   20  C16 UNL     1      23.196  -0.913  54.484  1.00  0.00     0.210 C 
ENDBRANCH  10  19
BRANCH   1  21
HETATM   21  O1  UNL     1      27.236  -0.378  54.381  1.00  0.00    -0.353 OA
HETATM   22  C1  UNL     1      28.506   0.052  54.819  1.00  0.00     0.210 C 
ENDBRANCH   1  21
TORSDOF 4
ENDMDL
MODEL 5
REMARK VINA RESULT:      -7.0      2.379      6.591
REMARK  4 active torsions:
REMARK  status: ('A' for Active; 'I' for Inactive)
REMARK    1  A    between atoms: O1_2  and  C2_3 
REMARK    2  A    between atoms: C6_9  and  N3_10 
REMARK    3  A    between atoms: C11_15  and  O2_16 
REMARK    4  A    between atoms: C15_20  and  O3_21 
ROOT
HETATM    1  C2  UNL     1      26.106  -0.358  53.750  1.00  0.00     0.103 A 
HETATM    2  C3  UNL     1      25.162  -0.934  54.579  1.00  0.00     0.072 A 
HETATM    3  C4  UNL     1      23.842  -0.709  54.336  1.00  0.00     0.075 A 
HETATM    4  N1  UNL     1      22.836  -1.220  55.079  1.00  0.00    -0.241 NA
HETATM    5  C5  UNL     1      21.539  -0.957  54.782  1.00  0.00     0.236 A 
HETATM    6  N2  UNL     1      21.138  -0.178  53.738  1.00  0.00    -0.224 NA
HETATM    7  C6  UNL     1      22.141   0.341  52.983  1.00  0.00     0.142 A 
HETATM    8  C13 UNL     1      23.465   0.084  53.271  1.00  0.00     0.041 A 
HETATM    9  C14 UNL     1      24.416   0.649  52.455  1.00  0.00     0.057 A 
HETATM   10  C15 UNL     1      25.775   0.440  52.676  1.00  0.00     0.102 A 
ENDROOT
BRANCH   7  11
HETATM   11  N3  UNL     1      21.680   1.150  51.902  1.00  0.00    -0.335 N 
HETATM   12  C7  UNL     1      21.319   0.707  50.545  1.00  0.00     0.154 C 
HETATM   13  C8  UNL     1      19.904   1.111  50.249  1.00  0.00    -0.011 C 
HETATM   14  C9  UNL     1      19.433   2.062  51.017  1.00  0.00    -0.025 C 
HETATM   15  C10 UNL     1      20.021   2.826  52.129  1.00  0.00     0.081 C 
HETATM   16  C11 UNL     1      21.526   2.583  52.094  1.00  0.00     0.227 C 
BRANCH  16  17
HETATM   17  O2  UNL     1      22.108   3.187  50.986  1.00  0.00    -0.371 OA
HETATM   18  C12 UNL     1      23.170   4.026  51.291  1.00  0.00     0.204 C 
ENDBRANCH  16  17
ENDBRANCH   7  11
BRANCH  10  19
HETATM   19  O3  UNL     1      26.794   0.975  51.899  1.00  0.00    -0.353 OA
HETATM   20  C16 UNL     1      26.853   2.307  51.489  1.00  0.00     0.210 C 
ENDBRANCH  10  19
BRANCH   1  21
HETATM   21  O1  UNL     1      27.470  -0.589  54.001  1.00  0.00    -0.353 OA
HETATM   22  C1  UNL     1      28.197   0.212  54.905  1.00  0.00     0.210 C 
ENDBRANCH   1  21
TORSDOF 4
ENDMDL
MODEL 6
REMARK VINA RESULT:      -6.9      1.314      5.594
REMARK  4 active torsions:
REMARK  status: ('A' for Active; 'I' for Inactive)
REMARK    1  A    between atoms: O1_2  and  C2_3 
REMARK    2  A    between atoms: C6_9  and  N3_10 
REMARK    3  A    between atoms: C11_15  and  O2_16 
REMARK    4  A    between atoms: C15_20  and  O3_21 
ROOT
HETATM    1  C2  UNL     1      27.228   0.178  53.755  1.00  0.00     0.103 A 
HETATM    2  C3  UNL     1      27.598   1.011  52.716  1.00  0.00     0.072 A 
HETATM    3  C4  UNL     1      26.631   1.653  52.006  1.00  0.00     0.075 A 
HETATM    4  N1  UNL     1      26.877   2.488  50.973  1.00  0.00    -0.241 NA
HETATM    5  C5  UNL     1      25.865   3.098  50.305  1.00  0.00     0.236 A 
HETATM    6  N2  UNL     1      24.546   2.932  50.603  1.00  0.00    -0.224 NA
HETATM    7  C6  UNL     1      24.286   2.094  51.640  1.00  0.00     0.142 A 
HETATM    8  C13 UNL     1      25.302   1.467  52.329  1.00  0.00     0.041 A 
HETATM    9  C14 UNL     1      24.950   0.635  53.367  1.00  0.00     0.057 A 
HETATM   10  C15 UNL     1      25.914  -0.037  54.113  1.00  0.00     0.102 A 
ENDROOT
BRANCH   7  11
HETATM   11  N3  UNL     1      22.895   1.948  51.920  1.00  0.00    -0.335 N 
HETATM   12  C7  UNL     1      21.922   3.017  52.198  1.00  0.00     0.154 C 
HETATM   13  C8  UNL     1      20.798   2.938  51.207  1.00  0.00    -0.011 C 
HETATM   14  C9  UNL     1      20.683   1.785  50.597  1.00  0.00    -0.025 C 
HETATM   15  C10 UNL     1      21.449   0.531  50.689  1.00  0.00     0.081 C 
HETATM   16  C11 UNL     1      22.305   0.619  51.948  1.00  0.00     0.227 C 
BRANCH  16  17
HETATM   17  O2  UNL     1      21.521   0.567  53.094  1.00  0.00    -0.371 OA
HETATM   18  C12 UNL     1      21.247  -0.721  53.533  1.00  0.00     0.204 C 
ENDBRANCH  16  17
ENDBRANCH   7  11
BRANCH  10  19
HETATM   19  O3  UNL     1      25.640  -0.893  55.173  1.00  0.00    -0.353 OA
HETATM   20  C16 UNL     1      24.355  -1.258  55.574  1.00  0.00     0.210 C 
ENDBRANCH  10  19
BRANCH   1  21
HETATM   21  O1  UNL     1      28.226  -0.486  54.489  1.00  0.00    -0.353 OA
HETATM   22  C1  UNL     1      29.442  -0.877  53.891  1.00  0.00     0.210 C 
ENDBRANCH   1  21
TORSDOF 4
ENDMDL
MODEL 7
REMARK VINA RESULT:      -6.7      2.144      3.630
REMARK  4 active torsions:
REMARK  status: ('A' for Active; 'I' for Inactive)
REMARK    1  A    between atoms: O1_2  and  C2_3 
REMARK    2  A    between atoms: C6_9  and  N3_10 
REMARK    3  A    between atoms: C11_15  and  O2_16 
REMARK    4  A    between atoms: C15_20  and  O3_21 
ROOT
HETATM    1  C2  UNL     1      20.732  -0.692  53.341  1.00  0.00     0.103 A 
HETATM    2  C3  UNL     1      20.402  -0.020  52.180  1.00  0.00     0.072 A 
HETATM    3  C4  UNL     1      21.338   0.762  51.577  1.00  0.00     0.075 A 
HETATM    4  N1  UNL     1      21.126   1.462  50.441  1.00  0.00    -0.241 NA
HETATM    5  C5  UNL     1      22.104   2.224  49.891  1.00  0.00     0.236 A 
HETATM    6  N2  UNL     1      23.356   2.351  50.414  1.00  0.00    -0.224 NA
HETATM    7  C6  UNL     1      23.582   1.651  51.556  1.00  0.00     0.142 A 
HETATM    8  C13 UNL     1      22.599   0.873  52.128  1.00  0.00     0.041 A 
HETATM    9  C14 UNL     1      22.913   0.197  53.285  1.00  0.00     0.057 A 
HETATM   10  C15 UNL     1      21.978  -0.611  53.926  1.00  0.00     0.102 A 
ENDROOT
BRANCH   7  11
HETATM   11  N3  UNL     1      24.903   1.812  52.070  1.00  0.00    -0.335 N 
HETATM   12  C7  UNL     1      25.294   2.398  53.363  1.00  0.00     0.154 C 
HETATM   13  C8  UNL     1      26.095   1.396  54.142  1.00  0.00    -0.011 C 
HETATM   14  C9  UNL     1      26.611   0.428  53.425  1.00  0.00    -0.025 C 
HETATM   15  C10 UNL     1      26.561   0.120  51.987  1.00  0.00     0.081 C 
HETATM   16  C11 UNL     1      26.039   1.367  51.279  1.00  0.00     0.227 C 
BRANCH  16  17
HETATM   17  O2  UNL     1      26.971   2.398  51.324  1.00  0.00    -0.371 OA
HETATM   18  C12 UNL     1      26.792   3.365  50.345  1.00  0.00     0.204 C 
ENDBRANCH  16  17
ENDBRANCH   7  11
BRANCH  10  19
HETATM   19  O3  UNL     1      22.217  -1.323  55.095  1.00  0.00    -0.353 OA
HETATM   20  C16 UNL     1      23.469  -1.444  55.698  1.00  0.00     0.210 C 
ENDBRANCH  10  19
BRANCH   1  21
HETATM   21  O1  UNL     1      19.765  -1.500  53.964  1.00  0.00    -0.353 OA
HETATM   22  C1  UNL     1      18.436  -1.550  53.495  1.00  0.00     0.210 C 
ENDBRANCH   1  21
TORSDOF 4
ENDMDL
MODEL 8
REMARK VINA RESULT:      -6.5      2.059      5.919
REMARK  4 active torsions:
REMARK  status: ('A' for Active; 'I' for Inactive)
REMARK    1  A    between atoms: O1_2  and  C2_3 
REMARK    2  A    between atoms: C6_9  and  N3_10 
REMARK    3  A    between atoms: C11_15  and  O2_16 
REMARK    4  A    between atoms: C15_20  and  O3_21 
ROOT
HETATM    1  C2  UNL     1      25.771   0.091  52.673  1.00  0.00     0.103 A 
HETATM    2  C3  UNL     1      26.628   0.874  51.925  1.00  0.00     0.072 A 
HETATM    3  C4  UNL     1      26.152   2.011  51.347  1.00  0.00     0.075 A 
HETATM    4  N1  UNL     1      26.899   2.850  50.596  1.00  0.00    -0.241 NA
HETATM    5  C5  UNL     1      26.363   3.969  50.048  1.00  0.00     0.236 A 
HETATM    6  N2  UNL     1      25.061   4.343  50.197  1.00  0.00    -0.224 NA
HETATM    7  C6  UNL     1      24.300   3.507  50.950  1.00  0.00     0.142 A 
HETATM    8  C13 UNL     1      24.829   2.366  51.515  1.00  0.00     0.041 A 
HETATM    9  C14 UNL     1      23.988   1.575  52.264  1.00  0.00     0.057 A 
HETATM   10  C15 UNL     1      24.443   0.406  52.868  1.00  0.00     0.102 A 
ENDROOT
BRANCH   7  11
HETATM   11  N3  UNL     1      22.945   3.933  51.082  1.00  0.00    -0.335 N 
HETATM   12  C7  UNL     1      22.408   4.926  52.027  1.00  0.00     0.154 C 
HETATM   13  C8  UNL     1      21.719   6.019  51.263  1.00  0.00    -0.011 C 
HETATM   14  C9  UNL     1      21.385   5.705  50.036  1.00  0.00    -0.025 C 
HETATM   15  C10 UNL     1      21.553   4.476  49.243  1.00  0.00     0.081 C 
HETATM   16  C11 UNL     1      21.926   3.362  50.216  1.00  0.00     0.227 C 
BRANCH  16  17
HETATM   17  O2  UNL     1      20.856   3.033  51.039  1.00  0.00    -0.371 OA
HETATM   18  C12 UNL     1      20.450   1.710  50.938  1.00  0.00     0.204 C 
ENDBRANCH  16  17
ENDBRANCH   7  11
BRANCH  10  19
HETATM   19  O3  UNL     1      23.657  -0.444  53.636  1.00  0.00    -0.353 OA
HETATM   20  C16 UNL     1      22.448  -0.993  53.212  1.00  0.00     0.210 C 
ENDBRANCH  10  19
BRANCH   1  21
HETATM   21  O1  UNL     1      26.261  -1.084  53.270  1.00  0.00    -0.353 OA
HETATM   22  C1  UNL     1      26.914  -2.077  52.511  1.00  0.00     0.210 C 
ENDBRANCH   1  21
TORSDOF 4
ENDMDL
MODEL 9
REMARK VINA RESULT:      -6.4      2.046      5.107
REMARK  4 active torsions:
REMARK  status: ('A' for Active; 'I' for Inactive)
REMARK    1  A    between atoms: O1_2  and  C2_3 
REMARK    2  A    between atoms: C6_9  and  N3_10 
REMARK    3  A    between atoms: C11_15  and  O2_16 
REMARK    4  A    between atoms: C15_20  and  O3_21 
ROOT
HETATM    1  C2  UNL     1      23.038  -0.474  53.063  1.00  0.00     0.103 A 
HETATM    2  C3  UNL     1      24.403  -0.476  53.272  1.00  0.00     0.072 A 
HETATM    3  C4  UNL     1      25.152   0.546  52.775  1.00  0.00     0.075 A 
HETATM    4  N1  UNL     1      26.492   0.645  52.920  1.00  0.00    -0.241 NA
HETATM    5  C5  UNL     1      27.180   1.692  52.399  1.00  0.00     0.236 A 
HETATM    6  N2  UNL     1      26.604   2.711  51.702  1.00  0.00    -0.224 NA
HETATM    7  C6  UNL     1      25.257   2.623  51.550  1.00  0.00     0.142 A 
HETATM    8  C13 UNL     1      24.543   1.566  52.073  1.00  0.00     0.041 A 
HETATM    9  C14 UNL     1      23.182   1.555  51.873  1.00  0.00     0.057 A 
HETATM   10  C15 UNL     1      22.387   0.524  52.368  1.00  0.00     0.102 A 
ENDROOT
BRANCH   7  11
HETATM   11  N3  UNL     1      24.694   3.708  50.815  1.00  0.00    -0.335 N 
HETATM   12  C7  UNL     1      23.957   4.865  51.352  1.00  0.00     0.154 C 
HETATM   13  C8  UNL     1      24.643   6.131  50.931  1.00  0.00    -0.011 C 
HETATM   14  C9  UNL     1      25.452   6.004  49.908  1.00  0.00    -0.025 C 
HETATM   15  C10 UNL     1      25.831   4.850  49.077  1.00  0.00     0.081 C 
HETATM   16  C11 UNL     1      24.826   3.739  49.368  1.00  0.00     0.227 C 
BRANCH  16  17
HETATM   17  O2  UNL     1      23.568   4.056  48.869  1.00  0.00    -0.371 OA
HETATM   18  C12 UNL     1      22.859   2.966  48.386  1.00  0.00     0.204 C 
ENDBRANCH  16  17
ENDBRANCH   7  11
BRANCH  10  19
HETATM   19  O3  UNL     1      21.010   0.441  52.208  1.00  0.00    -0.353 OA
HETATM   20  C16 UNL     1      20.117   1.453  52.556  1.00  0.00     0.210 C 
ENDBRANCH  10  19
BRANCH   1  21
HETATM   21  O1  UNL     1      22.263  -1.529  53.575  1.00  0.00    -0.353 OA
HETATM   22  C1  UNL     1      21.899  -1.579  54.937  1.00  0.00     0.210 C 
ENDBRANCH   1  21
TORSDOF 4
ENDMDL
