MODEL 1
REMARK VINA RESULT:      -7.5      0.000      0.000
REMARK  6 active torsions:
REMARK  status: ('A' for Active; 'I' for Inactive)
REMARK    1  A    between atoms: O1_2  and  C2_3 
REMARK    2  A    between atoms: C2_3  and  C3_4 
REMARK    3  A    between atoms: C3_4  and  C4_5 
REMARK    4  A    between atoms: C4_5  and  N1_6 
REMARK    5  A    between atoms: N1_6  and  C5_7 
REMARK    6  A    between atoms: N3_12  and  C9_13 
ROOT
HETATM    1  C5  UNL     1      25.442   3.610  51.128  1.00  0.00     0.703 A 
HETATM    2  N2  UNL     1      24.462   4.361  50.713  1.00  0.00    -0.077 NA
HETATM    3  C6  UNL     1      23.226   4.270  51.406  1.00  0.00     0.134 A 
HETATM    4  C7  UNL     1      23.150   3.438  52.429  1.00  0.00     0.014 A 
HETATM    5  C8  UNL     1      24.183   2.524  53.031  1.00  0.00     0.176 A 
HETATM    6  N3  UNL     1      25.377   2.661  52.200  1.00  0.00    -0.177 N 
ENDROOT
BRANCH   6   7
HETATM    7  C9  UNL     1      26.448   1.797  52.544  1.00  0.00     0.070 A 
HETATM    8  C10 UNL     1      27.659   2.183  53.077  1.00  0.00     0.147 A 
HETATM    9  N4  UNL     1      28.637   1.314  53.405  1.00  0.00    -0.258 NA
HETATM   10  C11 UNL     1      28.489  -0.008  53.229  1.00  0.00     0.066 A 
HETATM   11  C12 UNL     1      29.477  -0.904  53.559  1.00  0.00     0.032 A 
HETATM   12  C16 UNL     1      27.321  -0.522  52.701  1.00  0.00    -0.005 A 
HETATM   13  C13 UNL     1      29.326  -2.280  53.377  1.00  0.00     0.002 A 
HETATM   14  C14 UNL     1      28.131  -2.716  52.845  1.00  0.00     0.001 A 
HETATM   15  C15 UNL     1      27.081  -1.873  52.484  1.00  0.00     0.014 A 
HETATM   16  C17 UNL     1      26.355   0.421  52.385  1.00  0.00     0.045 A 
ENDBRANCH   6   7
BRANCH   1  17
HETATM   17  N1  UNL     1      26.686   3.741  50.399  1.00  0.00    -0.221 N 
HETATM   18  H8  UNL     1      27.525   3.376  50.955  1.00  0.00     0.178 HD
BRANCH  17  19
HETATM   19  C4  UNL     1      26.600   4.341  49.058  1.00  0.00     0.167 C 
BRANCH  19  20
HETATM   20  C3  UNL     1      27.775   5.132  48.703  1.00  0.00     0.017 C 
BRANCH  20  21
HETATM   21  C2  UNL     1      28.988   5.428  48.292  1.00  0.00     0.131 C 
BRANCH  21  22
HETATM   22  O1  UNL     1      30.326   5.295  48.642  1.00  0.00    -0.368 OA
HETATM   23  C1  UNL     1      31.357   5.183  47.692  1.00  0.00     0.208 C 
ENDBRANCH  21  22
ENDBRANCH  20  21
ENDBRANCH  19  20
ENDBRANCH  17  19
ENDBRANCH   1  17
TORSDOF 6
ENDMDL
MODEL 2
REMARK VINA RESULT:      -7.5      1.442      1.842
REMARK  6 active torsions:
REMARK  status: ('A' for Active; 'I' for Inactive)
REMARK    1  A    between atoms: O1_2  and  C2_3 
REMARK    2  A    between atoms: C2_3  and  C3_4 
REMARK    3  A    between atoms: C3_4  and  C4_5 
REMARK    4  A    between atoms: C4_5  and  N1_6 
REMARK    5  A    between atoms: N1_6  and  C5_7 
REMARK    6  A    between atoms: N3_12  and  C9_13 
ROOT
HETATM    1  C5  UNL     1      23.719   2.653  51.965  1.00  0.00     0.703 A 
HETATM    2  N2  UNL     1      22.516   2.927  51.551  1.00  0.00    -0.077 NA
HETATM    3  C6  UNL     1      21.457   2.104  52.016  1.00  0.00     0.134 A 
HETATM    4  C7  UNL     1      21.757   1.118  52.843  1.00  0.00     0.014 A 
HETATM    5  C8  UNL     1      23.080   0.686  53.417  1.00  0.00     0.176 A 
HETATM    6  N3  UNL     1      24.085   1.562  52.820  1.00  0.00    -0.177 N 
ENDROOT
BRANCH   6   7
HETATM    7  C9  UNL     1      25.427   1.251  53.158  1.00  0.00     0.070 A 
HETATM    8  C10 UNL     1      26.306   2.080  53.822  1.00  0.00     0.147 A 
HETATM    9  N4  UNL     1      27.568   1.725  54.138  1.00  0.00    -0.258 NA
HETATM   10  C11 UNL     1      28.057   0.517  53.817  1.00  0.00     0.066 A 
HETATM   11  C12 UNL     1      29.341   0.142  54.132  1.00  0.00     0.032 A 
HETATM   12  C16 UNL     1      27.276  -0.405  53.149  1.00  0.00    -0.005 A 
HETATM   13  C13 UNL     1      29.853  -1.114  53.801  1.00  0.00     0.002 A 
HETATM   14  C14 UNL     1      29.011  -1.980  53.134  1.00  0.00     0.001 A 
HETATM   15  C15 UNL     1      27.698  -1.675  52.778  1.00  0.00     0.014 A 
HETATM   16  C17 UNL     1      25.990   0.020  52.854  1.00  0.00     0.045 A 
ENDBRANCH   6   7
BRANCH   1  17
HETATM   17  N1  UNL     1      24.766   3.524  51.473  1.00  0.00    -0.221 N 
HETATM   18  H8  UNL     1      25.285   4.024  52.264  1.00  0.00     0.178 HD
BRANCH  17  19
HETATM   19  C4  UNL     1      24.938   3.583  50.012  1.00  0.00     0.167 C 
BRANCH  19  20
HETATM   20  C3  UNL     1      26.047   4.436  49.595  1.00  0.00     0.017 C 
BRANCH  20  21
HETATM   21  C2  UNL     1      27.027   4.921  48.867  1.00  0.00     0.131 C 
BRANCH  21  22
HETATM   22  O1  UNL     1      28.355   4.696  48.527  1.00  0.00    -0.368 OA
HETATM   23  C1  UNL     1      29.235   5.729  48.157  1.00  0.00     0.208 C 
ENDBRANCH  21  22
ENDBRANCH  20  21
ENDBRANCH  19  20
ENDBRANCH  17  19
ENDBRANCH   1  17
TORSDOF 6
ENDMDL
MODEL 3
REMARK VINA RESULT:      -7.5      2.068      2.854
REMARK  6 active torsions:
REMARK  status: ('A' for Active; 'I' for Inactive)
REMARK    1  A    between atoms: O1_2  and  C2_3 
REMARK    2  A    between atoms: C2_3  and  C3_4 
REMARK    3  A    between atoms: C3_4  and  C4_5 
REMARK    4  A    between atoms: C4_5  and  N1_6 
REMARK    5  A    between atoms: N1_6  and  C5_7 
REMARK    6  A    between atoms: N3_12  and  C9_13 
ROOT
HETATM    1  C5  UNL     1      23.038   1.652  52.401  1.00  0.00     0.703 A 
HETATM    2  N2  UNL     1      21.772   1.644  52.096  1.00  0.00    -0.077 NA
HETATM    3  C6  UNL     1      20.992   0.549  52.555  1.00  0.00     0.134 A 
HETATM    4  C7  UNL     1      21.597  -0.386  53.266  1.00  0.00     0.014 A 
HETATM    5  C8  UNL     1      23.031  -0.512  53.706  1.00  0.00     0.176 A 
HETATM    6  N3  UNL     1      23.734   0.630  53.125  1.00  0.00    -0.177 N 
ENDROOT
BRANCH   6   7
HETATM    7  C9  UNL     1      25.135   0.643  53.341  1.00  0.00     0.070 A 
HETATM    8  C10 UNL     1      25.868   1.703  53.832  1.00  0.00     0.147 A 
HETATM    9  N4  UNL     1      27.200   1.654  54.038  1.00  0.00    -0.258 NA
HETATM   10  C11 UNL     1      27.910   0.547  53.771  1.00  0.00     0.066 A 
HETATM   11  C12 UNL     1      29.267   0.483  53.976  1.00  0.00     0.032 A 
HETATM   12  C16 UNL     1      27.292  -0.584  53.273  1.00  0.00    -0.005 A 
HETATM   13  C13 UNL     1      30.010  -0.667  53.700  1.00  0.00     0.002 A 
HETATM   14  C14 UNL     1      29.321  -1.755  53.205  1.00  0.00     0.001 A 
HETATM   15  C15 UNL     1      27.947  -1.770  52.969  1.00  0.00     0.014 A 
HETATM   16  C17 UNL     1      25.924  -0.470  53.084  1.00  0.00     0.045 A 
ENDBRANCH   6   7
BRANCH   1  17
HETATM   17  N1  UNL     1      23.791   2.791  51.920  1.00  0.00    -0.221 N 
HETATM   18  H8  UNL     1      24.093   3.444  52.713  1.00  0.00     0.178 HD
BRANCH  17  19
HETATM   19  C4  UNL     1      24.009   2.868  50.467  1.00  0.00     0.167 C 
BRANCH  19  20
HETATM   20  C3  UNL     1      25.350   3.320  50.107  1.00  0.00     0.017 C 
BRANCH  20  21
HETATM   21  C2  UNL     1      26.548   3.329  49.566  1.00  0.00     0.131 C 
BRANCH  21  22
HETATM   22  O1  UNL     1      27.511   4.188  49.052  1.00  0.00    -0.368 OA
HETATM   23  C1  UNL     1      27.218   5.492  48.615  1.00  0.00     0.208 C 
ENDBRANCH  21  22
ENDBRANCH  20  21
ENDBRANCH  19  20
ENDBRANCH  17  19
ENDBRANCH   1  17
TORSDOF 6
ENDMDL
MODEL 4
REMARK VINA RESULT:      -7.3      2.622      4.965
REMARK  6 active torsions:
REMARK  status: ('A' for Active; 'I' for Inactive)
REMARK    1  A    between atoms: O1_2  and  C2_3 
REMARK    2  A    between atoms: C2_3  and  C3_4 
REMARK    3  A    between atoms: C3_4  and  C4_5 
REMARK    4  A    between atoms: C4_5  and  N1_6 
REMARK    5  A    between atoms: N1_6  and  C5_7 
REMARK    6  A    between atoms: N3_12  and  C9_13 
ROOT
HETATM    1  C5  UNL     1      26.970   2.041  52.671  1.00  0.00     0.703 A 
HETATM    2  N2  UNL     1      28.259   2.202  52.764  1.00  0.00    -0.077 NA
HETATM    3  C6  UNL     1      28.970   1.332  53.631  1.00  0.00     0.134 A 
HETATM    4  C7  UNL     1      28.284   0.411  54.283  1.00  0.00     0.014 A 
HETATM    5  C8  UNL     1      26.812   0.093  54.275  1.00  0.00     0.176 A 
HETATM    6  N3  UNL     1      26.189   1.087  53.403  1.00  0.00    -0.177 N 
ENDROOT
BRANCH   6   7
HETATM    7  C9  UNL     1      24.774   1.023  53.338  1.00  0.00     0.070 A 
HETATM    8  C10 UNL     1      23.942   2.007  52.848  1.00  0.00     0.147 A 
HETATM    9  N4  UNL     1      22.600   1.886  52.790  1.00  0.00    -0.258 NA
HETATM   10  C11 UNL     1      21.978   0.776  53.218  1.00  0.00     0.066 A 
HETATM   11  C12 UNL     1      20.612   0.638  53.165  1.00  0.00     0.032 A 
HETATM   12  C16 UNL     1      22.700  -0.283  53.732  1.00  0.00    -0.005 A 
HETATM   13  C13 UNL     1      19.961  -0.515  53.608  1.00  0.00     0.002 A 
HETATM   14  C14 UNL     1      20.751  -1.529  54.109  1.00  0.00     0.001 A 
HETATM   15  C15 UNL     1      22.141  -1.467  54.196  1.00  0.00     0.014 A 
HETATM   16  C17 UNL     1      24.074  -0.096  53.764  1.00  0.00     0.045 A 
ENDBRANCH   6   7
BRANCH   1  17
HETATM   17  N1  UNL     1      26.287   2.944  51.769  1.00  0.00    -0.221 N 
HETATM   18  H8  UNL     1      25.737   3.700  52.290  1.00  0.00     0.178 HD
BRANCH  17  19
HETATM   19  C4  UNL     1      26.448   2.681  50.331  1.00  0.00     0.167 C 
BRANCH  19  20
HETATM   20  C3  UNL     1      26.800   3.871  49.562  1.00  0.00     0.017 C 
BRANCH  20  21
HETATM   21  C2  UNL     1      27.466   4.674  48.763  1.00  0.00     0.131 C 
BRANCH  21  22
HETATM   22  O1  UNL     1      28.757   5.010  48.374  1.00  0.00    -0.368 OA
HETATM   23  C1  UNL     1      29.109   6.294  47.922  1.00  0.00     0.208 C 
ENDBRANCH  21  22
ENDBRANCH  20  21
ENDBRANCH  19  20
ENDBRANCH  17  19
ENDBRANCH   1  17
TORSDOF 6
ENDMDL
MODEL 5
REMARK VINA RESULT:      -6.9      3.712      4.410
REMARK  6 active torsions:
REMARK  status: ('A' for Active; 'I' for Inactive)
REMARK    1  A    between atoms: O1_2  and  C2_3 
REMARK    2  A    between atoms: C2_3  and  C3_4 
REMARK    3  A    between atoms: C3_4  and  C4_5 
REMARK    4  A    between atoms: C4_5  and  N1_6 
REMARK    5  A    between atoms: N1_6  and  C5_7 
REMARK    6  A    between atoms: N3_12  and  C9_13 
ROOT
HETATM    1  C5  UNL     1      22.960   0.944  51.970  1.00  0.00     0.703 A 
HETATM    2  N2  UNL     1      21.699   0.800  51.680  1.00  0.00    -0.077 NA
HETATM    3  C6  UNL     1      20.899   0.046  52.579  1.00  0.00     0.134 A 
HETATM    4  C7  UNL     1      21.482  -0.455  53.654  1.00  0.00     0.014 A 
HETATM    5  C8  UNL     1      22.907  -0.367  54.130  1.00  0.00     0.176 A 
HETATM    6  N3  UNL     1      23.633   0.372  53.099  1.00  0.00    -0.177 N 
ENDROOT
BRANCH   6   7
HETATM    7  C9  UNL     1      25.031   0.479  53.312  1.00  0.00     0.070 A 
HETATM    8  C10 UNL     1      25.695   1.596  53.774  1.00  0.00     0.147 A 
HETATM    9  N4  UNL     1      27.027   1.636  53.978  1.00  0.00    -0.258 NA
HETATM   10  C11 UNL     1      27.806   0.569  53.737  1.00  0.00     0.066 A 
HETATM   11  C12 UNL     1      29.164   0.597  53.941  1.00  0.00     0.032 A 
HETATM   12  C16 UNL     1      27.261  -0.610  53.270  1.00  0.00    -0.005 A 
HETATM   13  C13 UNL     1      29.978  -0.511  53.692  1.00  0.00     0.002 A 
HETATM   14  C14 UNL     1      29.359  -1.653  53.226  1.00  0.00     0.001 A 
HETATM   15  C15 UNL     1      27.989  -1.760  52.994  1.00  0.00     0.014 A 
HETATM   16  C17 UNL     1      25.887  -0.587  53.081  1.00  0.00     0.045 A 
ENDBRANCH   6   7
BRANCH   1  17
HETATM   17  N1  UNL     1      23.735   1.728  51.031  1.00  0.00    -0.221 N 
HETATM   18  H8  UNL     1      24.699   1.303  50.845  1.00  0.00     0.178 HD
BRANCH  17  19
HETATM   19  C4  UNL     1      23.094   2.944  50.506  1.00  0.00     0.167 C 
BRANCH  19  20
HETATM   20  C3  UNL     1      22.701   2.830  49.104  1.00  0.00     0.017 C 
BRANCH  20  21
HETATM   21  C2  UNL     1      22.015   2.488  48.037  1.00  0.00     0.131 C 
BRANCH  21  22
HETATM   22  O1  UNL     1      21.278   3.025  46.988  1.00  0.00    -0.368 OA
HETATM   23  C1  UNL     1      21.863   3.756  45.939  1.00  0.00     0.208 C 
ENDBRANCH  21  22
ENDBRANCH  20  21
ENDBRANCH  19  20
ENDBRANCH  17  19
ENDBRANCH   1  17
TORSDOF 6
ENDMDL
MODEL 6
REMARK VINA RESULT:      -6.9      3.747      5.899
REMARK  6 active torsions:
REMARK  status: ('A' for Active; 'I' for Inactive)
REMARK    1  A    between atoms: O1_2  and  C2_3 
REMARK    2  A    between atoms: C2_3  and  C3_4 
REMARK    3  A    between atoms: C3_4  and  C4_5 
REMARK    4  A    between atoms: C4_5  and  N1_6 
REMARK    5  A    between atoms: N1_6  and  C5_7 
REMARK    6  A    between atoms: N3_12  and  C9_13 
ROOT
HETATM    1  C5  UNL     1      25.076   4.995  50.679  1.00  0.00     0.703 A 
HETATM    2  N2  UNL     1      25.483   6.008  49.969  1.00  0.00    -0.077 NA
HETATM    3  C6  UNL     1      26.506   5.773  49.013  1.00  0.00     0.134 A 
HETATM    4  C7  UNL     1      26.974   4.543  48.898  1.00  0.00     0.014 A 
HETATM    5  C8  UNL     1      26.603   3.278  49.627  1.00  0.00     0.176 A 
HETATM    6  N3  UNL     1      25.597   3.662  50.615  1.00  0.00    -0.177 N 
ENDROOT
BRANCH   6   7
HETATM    7  C9  UNL     1      25.184   2.619  51.483  1.00  0.00     0.070 A 
HETATM    8  C10 UNL     1      25.903   2.123  52.550  1.00  0.00     0.147 A 
HETATM    9  N4  UNL     1      25.453   1.143  53.358  1.00  0.00    -0.258 NA
HETATM   10  C11 UNL     1      24.251   0.576  53.170  1.00  0.00     0.066 A 
HETATM   11  C12 UNL     1      23.779  -0.424  53.985  1.00  0.00     0.032 A 
HETATM   12  C16 UNL     1      23.434   0.984  52.134  1.00  0.00    -0.005 A 
HETATM   13  C13 UNL     1      22.530  -1.016  53.793  1.00  0.00     0.002 A 
HETATM   14  C14 UNL     1      21.772  -0.555  52.736  1.00  0.00     0.001 A 
HETATM   15  C15 UNL     1      22.178   0.454  51.865  1.00  0.00     0.014 A 
HETATM   16  C17 UNL     1      23.954   1.995  51.340  1.00  0.00     0.045 A 
ENDBRANCH   6   7
BRANCH   1  17
HETATM   17  N1  UNL     1      24.026   5.279  51.634  1.00  0.00    -0.221 N 
HETATM   18  H8  UNL     1      24.370   5.223  52.646  1.00  0.00     0.178 HD
BRANCH  17  19
HETATM   19  C4  UNL     1      22.698   5.584  51.079  1.00  0.00     0.167 C 
BRANCH  19  20
HETATM   20  C3  UNL     1      21.616   4.860  51.740  1.00  0.00     0.017 C 
BRANCH  20  21
HETATM   21  C2  UNL     1      20.919   3.864  52.239  1.00  0.00     0.131 C 
BRANCH  21  22
HETATM   22  O1  UNL     1      19.624   3.367  52.325  1.00  0.00    -0.368 OA
HETATM   23  C1  UNL     1      18.615   3.699  51.404  1.00  0.00     0.208 C 
ENDBRANCH  21  22
ENDBRANCH  20  21
ENDBRANCH  19  20
ENDBRANCH  17  19
ENDBRANCH   1  17
TORSDOF 6
ENDMDL
MODEL 7
REMARK VINA RESULT:      -6.9      2.908      5.609
REMARK  6 active torsions:
REMARK  status: ('A' for Active; 'I' for Inactive)
REMARK    1  A    between atoms: O1_2  and  C2_3 
REMARK    2  A    between atoms: C2_3  and  C3_4 
REMARK    3  A    between atoms: C3_4  and  C4_5 
REMARK    4  A    between atoms: C4_5  and  N1_6 
REMARK    5  A    between atoms: N1_6  and  C5_7 
REMARK    6  A    between atoms: N3_12  and  C9_13 
ROOT
HETATM    1  C5  UNL     1      26.058   2.901  50.881  1.00  0.00     0.703 A 
HETATM    2  N2  UNL     1      26.967   3.441  50.120  1.00  0.00    -0.077 NA
HETATM    3  C6  UNL     1      26.556   4.469  49.232  1.00  0.00     0.134 A 
HETATM    4  C7  UNL     1      25.282   4.819  49.238  1.00  0.00     0.014 A 
HETATM    5  C8  UNL     1      24.126   4.307  50.056  1.00  0.00     0.176 A 
HETATM    6  N3  UNL     1      24.661   3.221  50.875  1.00  0.00    -0.177 N 
ENDROOT
BRANCH   6   7
HETATM    7  C9  UNL     1      23.699   2.531  51.655  1.00  0.00     0.070 A 
HETATM    8  C10 UNL     1      22.365   2.860  51.770  1.00  0.00     0.147 A 
HETATM    9  N4  UNL     1      21.487   2.154  52.511  1.00  0.00    -0.258 NA
HETATM   10  C11 UNL     1      21.865   1.065  53.198  1.00  0.00     0.066 A 
HETATM   11  C12 UNL     1      20.981   0.336  53.956  1.00  0.00     0.032 A 
HETATM   12  C16 UNL     1      23.176   0.631  53.165  1.00  0.00    -0.005 A 
HETATM   13  C13 UNL     1      21.371  -0.798  54.672  1.00  0.00     0.002 A 
HETATM   14  C14 UNL     1      22.698  -1.167  54.590  1.00  0.00     0.001 A 
HETATM   15  C15 UNL     1      23.655  -0.482  53.843  1.00  0.00     0.014 A 
HETATM   16  C17 UNL     1      24.028   1.399  52.386  1.00  0.00     0.045 A 
ENDBRANCH   6   7
BRANCH   1  17
HETATM   17  N1  UNL     1      26.524   1.863  51.776  1.00  0.00    -0.221 N 
HETATM   18  H8  UNL     1      26.009   0.937  51.628  1.00  0.00     0.178 HD
BRANCH  17  19
HETATM   19  C4  UNL     1      27.589   2.239  52.719  1.00  0.00     0.167 C 
BRANCH  19  20
HETATM   20  C3  UNL     1      27.697   1.334  53.859  1.00  0.00     0.017 C 
BRANCH  20  21
HETATM   21  C2  UNL     1      28.009   0.274  54.571  1.00  0.00     0.131 C 
BRANCH  21  22
HETATM   22  O1  UNL     1      28.918  -0.775  54.635  1.00  0.00    -0.368 OA
HETATM   23  C1  UNL     1      29.832  -1.058  53.604  1.00  0.00     0.208 C 
ENDBRANCH  21  22
ENDBRANCH  20  21
ENDBRANCH  19  20
ENDBRANCH  17  19
ENDBRANCH   1  17
TORSDOF 6
ENDMDL
MODEL 8
REMARK VINA RESULT:      -6.9      3.306      7.061
REMARK  6 active torsions:
REMARK  status: ('A' for Active; 'I' for Inactive)
REMARK    1  A    between atoms: O1_2  and  C2_3 
REMARK    2  A    between atoms: C2_3  and  C3_4 
REMARK    3  A    between atoms: C3_4  and  C4_5 
REMARK    4  A    between atoms: C4_5  and  N1_6 
REMARK    5  A    between atoms: N1_6  and  C5_7 
REMARK    6  A    between atoms: N3_12  and  C9_13 
ROOT
HETATM    1  C5  UNL     1      26.904   0.146  53.417  1.00  0.00     0.703 A 
HETATM    2  N2  UNL     1      27.699  -0.604  54.124  1.00  0.00    -0.077 NA
HETATM    3  C6  UNL     1      28.906  -0.024  54.594  1.00  0.00     0.134 A 
HETATM    4  C7  UNL     1      29.144   1.239  54.291  1.00  0.00     0.014 A 
HETATM    5  C8  UNL     1      28.330   2.231  53.503  1.00  0.00     0.176 A 
HETATM    6  N3  UNL     1      27.156   1.503  53.027  1.00  0.00    -0.177 N 
ENDROOT
BRANCH   6   7
HETATM    7  C9  UNL     1      26.301   2.241  52.170  1.00  0.00     0.070 A 
HETATM    8  C10 UNL     1      26.500   2.461  50.824  1.00  0.00     0.147 A 
HETATM    9  N4  UNL     1      25.641   3.154  50.049  1.00  0.00    -0.258 NA
HETATM   10  C11 UNL     1      24.516   3.686  50.552  1.00  0.00     0.066 A 
HETATM   11  C12 UNL     1      23.632   4.394  49.775  1.00  0.00     0.032 A 
HETATM   12  C16 UNL     1      24.202   3.536  51.889  1.00  0.00    -0.005 A 
HETATM   13  C13 UNL     1      22.460   4.948  50.294  1.00  0.00     0.002 A 
HETATM   14  C14 UNL     1      22.217   4.756  51.638  1.00  0.00     0.001 A 
HETATM   15  C15 UNL     1      23.062   4.050  52.493  1.00  0.00     0.014 A 
HETATM   16  C17 UNL     1      25.124   2.813  52.630  1.00  0.00     0.045 A 
ENDBRANCH   6   7
BRANCH   1  17
HETATM   17  N1  UNL     1      25.681  -0.484  52.966  1.00  0.00    -0.221 N 
HETATM   18  H8  UNL     1      25.721  -0.760  51.933  1.00  0.00     0.178 HD
BRANCH  17  19
HETATM   19  C4  UNL     1      24.612  -0.632  53.967  1.00  0.00     0.167 C 
BRANCH  19  20
HETATM   20  C3  UNL     1      23.287  -0.303  53.449  1.00  0.00     0.017 C 
BRANCH  20  21
HETATM   21  C2  UNL     1      22.266   0.410  53.028  1.00  0.00     0.131 C 
BRANCH  21  22
HETATM   22  O1  UNL     1      21.414   0.568  51.942  1.00  0.00    -0.368 OA
HETATM   23  C1  UNL     1      21.861   0.968  50.671  1.00  0.00     0.208 C 
ENDBRANCH  21  22
ENDBRANCH  20  21
ENDBRANCH  19  20
ENDBRANCH  17  19
ENDBRANCH   1  17
TORSDOF 6
ENDMDL
MODEL 9
REMARK VINA RESULT:      -6.7      3.109      5.637
REMARK  6 active torsions:
REMARK  status: ('A' for Active; 'I' for Inactive)
REMARK    1  A    between atoms: O1_2  and  C2_3 
REMARK    2  A    between atoms: C2_3  and  C3_4 
REMARK    3  A    between atoms: C3_4  and  C4_5 
REMARK    4  A    between atoms: C4_5  and  N1_6 
REMARK    5  A    between atoms: N1_6  and  C5_7 
REMARK    6  A    between atoms: N3_12  and  C9_13 
ROOT
HETATM    1  C5  UNL     1      27.135   1.889  52.808  1.00  0.00     0.703 A 
HETATM    2  N2  UNL     1      28.430   1.985  52.897  1.00  0.00    -0.077 NA
HETATM    3  C6  UNL     1      29.111   1.006  53.667  1.00  0.00     0.134 A 
HETATM    4  C7  UNL     1      28.390   0.057  54.237  1.00  0.00     0.014 A 
HETATM    5  C8  UNL     1      26.906  -0.195  54.219  1.00  0.00     0.176 A 
HETATM    6  N3  UNL     1      26.319   0.904  53.455  1.00  0.00    -0.177 N 
ENDROOT
BRANCH   6   7
HETATM    7  C9  UNL     1      24.902   0.907  53.404  1.00  0.00     0.070 A 
HETATM    8  C10 UNL     1      24.111   1.951  52.971  1.00  0.00     0.147 A 
HETATM    9  N4  UNL     1      22.765   1.893  52.924  1.00  0.00    -0.258 NA
HETATM   10  C11 UNL     1      22.097   0.793  53.304  1.00  0.00     0.066 A 
HETATM   11  C12 UNL     1      20.726   0.720  53.261  1.00  0.00     0.032 A 
HETATM   12  C16 UNL     1      22.775  -0.321  53.759  1.00  0.00    -0.005 A 
HETATM   13  C13 UNL     1      20.027  -0.423  53.656  1.00  0.00     0.002 A 
HETATM   14  C14 UNL     1      20.774  -1.495  54.099  1.00  0.00     0.001 A 
HETATM   15  C15 UNL     1      22.166  -1.500  54.173  1.00  0.00     0.014 A 
HETATM   16  C17 UNL     1      24.155  -0.199  53.784  1.00  0.00     0.045 A 
ENDBRANCH   6   7
BRANCH   1  17
HETATM   17  N1  UNL     1      26.483   2.904  52.006  1.00  0.00    -0.221 N 
HETATM   18  H8  UNL     1      26.072   3.692  52.602  1.00  0.00     0.178 HD
BRANCH  17  19
HETATM   19  C4  UNL     1      26.485   2.691  50.550  1.00  0.00     0.167 C 
BRANCH  19  20
HETATM   20  C3  UNL     1      25.377   3.354  49.868  1.00  0.00     0.017 C 
BRANCH  20  21
HETATM   21  C2  UNL     1      24.223   3.526  49.264  1.00  0.00     0.131 C 
BRANCH  21  22
HETATM   22  O1  UNL     1      23.383   4.514  48.767  1.00  0.00    -0.368 OA
HETATM   23  C1  UNL     1      22.491   4.296  47.702  1.00  0.00     0.208 C 
ENDBRANCH  21  22
ENDBRANCH  20  21
ENDBRANCH  19  20
ENDBRANCH  17  19
ENDBRANCH   1  17
TORSDOF 6
ENDMDL
