MODEL 1
REMARK VINA RESULT:      -8.6      0.000      0.000
REMARK  0 active torsions:
REMARK  status: ('A' for Active; 'I' for Inactive)
ROOT
HETATM    1 CL1  UNL     1      19.091   0.855  52.420  1.00  0.00    -0.082 Cl
HETATM    2  C1  UNL     1      20.585   0.071  52.926  1.00  0.00     0.063 A 
HETATM    3  C2  UNL     1      20.423  -0.965  53.823  1.00  0.00     0.026 A 
HETATM    4  C3  UNL     1      21.526  -1.656  54.278  1.00  0.00     0.004 A 
HETATM    5  C4  UNL     1      22.752  -1.207  53.756  1.00  0.00     0.032 A 
HETATM    6  C5  UNL     1      22.907  -0.151  52.843  1.00  0.00     0.062 A 
HETATM    7  C6  UNL     1      21.788   0.507  52.418  1.00  0.00     0.080 A 
HETATM    8  N1  UNL     1      21.643   1.562  51.529  1.00  0.00    -0.364 N 
HETATM    9  C7  UNL     1      22.145   2.881  51.632  1.00  0.00     0.088 C 
HETATM   10  C8  UNL     1      22.297   4.178  51.818  1.00  0.00     0.143 A 
HETATM   11  C9  UNL     1      23.251   5.277  51.771  1.00  0.00     0.132 A 
HETATM   12  N2  UNL     1      23.843   4.220  51.442  1.00  0.00    -0.390 N 
HETATM   13  C10 UNL     1      25.248   4.236  51.098  1.00  0.00     0.145 C 
HETATM   14  C11 UNL     1      25.400   3.338  49.931  1.00  0.00    -0.005 C 
HETATM   15  C12 UNL     1      26.167   2.271  50.067  1.00  0.00     0.030 C 
HETATM   16  C13 UNL     1      26.766   2.130  51.381  1.00  0.00     0.077 A 
HETATM   17  C14 UNL     1      26.358   1.429  52.385  1.00  0.00     0.086 A 
HETATM   18  C15 UNL     1      25.492   0.574  53.005  1.00  0.00     0.146 A 
HETATM   19  N3  UNL     1      25.728   0.203  54.271  1.00  0.00    -0.223 NA
HETATM   20  C16 UNL     1      26.750   0.583  55.034  1.00  0.00     0.237 A 
HETATM   21  N4  UNL     1      27.630   1.428  54.456  1.00  0.00    -0.221 NA
HETATM   22  C17 UNL     1      27.431   1.826  53.186  1.00  0.00     0.167 A 
HETATM   23  N5  UNL     1      27.848   2.523  52.208  1.00  0.00    -0.227 NA
HETATM   24  N6  UNL     1      24.305  -0.104  52.645  1.00  0.00    -0.338 N 
HETATM   25  H4  UNL     1      21.072   1.308  50.691  1.00  0.00     0.165 HD
HETATM   26  H13 UNL     1      24.631  -0.857  52.007  1.00  0.00     0.167 HD
ENDROOT
TORSDOF 0
ENDMDL
MODEL 2
REMARK VINA RESULT:      -8.1      2.379      5.296
REMARK  0 active torsions:
REMARK  status: ('A' for Active; 'I' for Inactive)
ROOT
HETATM    1 CL1  UNL     1      25.338  -0.617  55.049  1.00  0.00    -0.082 Cl
HETATM    2  C1  UNL     1      26.017   0.502  53.871  1.00  0.00     0.063 A 
HETATM    3  C2  UNL     1      27.286   0.957  54.165  1.00  0.00     0.026 A 
HETATM    4  C3  UNL     1      27.918   1.830  53.304  1.00  0.00     0.004 A 
HETATM    5  C4  UNL     1      27.164   2.179  52.170  1.00  0.00     0.032 A 
HETATM    6  C5  UNL     1      25.872   1.712  51.879  1.00  0.00     0.062 A 
HETATM    7  C6  UNL     1      25.283   0.848  52.758  1.00  0.00     0.080 A 
HETATM    8  N1  UNL     1      24.042   0.229  52.723  1.00  0.00    -0.364 N 
HETATM    9  C7  UNL     1      22.757   0.823  52.742  1.00  0.00     0.088 C 
HETATM   10  C8  UNL     1      21.567   1.281  53.082  1.00  0.00     0.143 A 
HETATM   11  C9  UNL     1      20.381   1.971  52.596  1.00  0.00     0.132 A 
HETATM   12  N2  UNL     1      21.196   1.860  51.647  1.00  0.00    -0.390 N 
HETATM   13  C10 UNL     1      20.878   2.380  50.335  1.00  0.00     0.145 C 
HETATM   14  C11 UNL     1      21.354   1.371  49.362  1.00  0.00    -0.005 C 
HETATM   15  C12 UNL     1      22.293   1.733  48.505  1.00  0.00     0.030 C 
HETATM   16  C13 UNL     1      22.734   3.106  48.648  1.00  0.00     0.077 A 
HETATM   17  C14 UNL     1      23.755   3.566  49.292  1.00  0.00     0.086 A 
HETATM   18  C15 UNL     1      24.870   3.430  50.068  1.00  0.00     0.146 A 
HETATM   19  N3  UNL     1      25.566   4.520  50.416  1.00  0.00    -0.223 NA
HETATM   20  C16 UNL     1      25.291   5.779  50.083  1.00  0.00     0.237 A 
HETATM   21  N4  UNL     1      24.196   5.955  49.313  1.00  0.00    -0.221 NA
HETATM   22  C17 UNL     1      23.468   4.886  48.941  1.00  0.00     0.167 A 
HETATM   23  N5  UNL     1      22.458   4.453  48.302  1.00  0.00    -0.227 NA
HETATM   24  N6  UNL     1      25.570   2.351  50.657  1.00  0.00    -0.338 N 
HETATM   25  H4  UNL     1      24.111  -0.812  52.688  1.00  0.00     0.165 HD
HETATM   26  H13 UNL     1      26.043   1.892  49.852  1.00  0.00     0.167 HD
ENDROOT
TORSDOF 0
ENDMDL
MODEL 3
REMARK VINA RESULT:      -7.8      2.762      5.694
REMARK  0 active torsions:
REMARK  status: ('A' for Active; 'I' for Inactive)
ROOT
HETATM    1 CL1  UNL     1      26.858   3.747  49.508  1.00  0.00    -0.082 Cl
HETATM    2  C1  UNL     1      26.300   2.964  50.983  1.00  0.00     0.063 A 
HETATM    3  C2  UNL     1      27.301   2.479  51.800  1.00  0.00     0.026 A 
HETATM    4  C3  UNL     1      26.977   1.856  52.987  1.00  0.00     0.004 A 
HETATM    5  C4  UNL     1      25.597   1.778  53.246  1.00  0.00     0.032 A 
HETATM    6  C5  UNL     1      24.585   2.274  52.409  1.00  0.00     0.062 A 
HETATM    7  C6  UNL     1      24.949   2.884  51.243  1.00  0.00     0.080 A 
HETATM    8  N1  UNL     1      24.179   3.465  50.246  1.00  0.00    -0.364 N 
HETATM    9  C7  UNL     1      23.218   2.857  49.403  1.00  0.00     0.088 C 
HETATM   10  C8  UNL     1      22.574   2.304  48.393  1.00  0.00     0.143 A 
HETATM   11  C9  UNL     1      21.305   1.727  47.973  1.00  0.00     0.132 A 
HETATM   12  N2  UNL     1      21.203   2.085  49.172  1.00  0.00    -0.390 N 
HETATM   13  C10 UNL     1      19.966   1.893  49.898  1.00  0.00     0.145 C 
HETATM   14  C11 UNL     1      19.764   3.119  50.703  1.00  0.00    -0.005 C 
HETATM   15  C12 UNL     1      19.734   2.998  52.019  1.00  0.00     0.030 C 
HETATM   16  C13 UNL     1      19.913   1.641  52.497  1.00  0.00     0.077 A 
HETATM   17  C14 UNL     1      20.993   1.061  52.902  1.00  0.00     0.086 A 
HETATM   18  C15 UNL     1      22.329   1.028  53.181  1.00  0.00     0.146 A 
HETATM   19  N3  UNL     1      22.874  -0.099  53.659  1.00  0.00    -0.223 NA
HETATM   20  C16 UNL     1      22.242  -1.244  53.907  1.00  0.00     0.237 A 
HETATM   21  N4  UNL     1      20.918  -1.252  53.645  1.00  0.00    -0.221 NA
HETATM   22  C17 UNL     1      20.331  -0.140  53.163  1.00  0.00     0.167 A 
HETATM   23  N5  UNL     1      19.258   0.413  52.768  1.00  0.00    -0.227 NA
HETATM   24  N6  UNL     1      23.403   1.946  53.109  1.00  0.00    -0.338 N 
HETATM   25  H4  UNL     1      24.371   4.485  50.131  1.00  0.00     0.165 HD
HETATM   26  H13 UNL     1      23.228   2.597  53.900  1.00  0.00     0.167 HD
ENDROOT
TORSDOF 0
ENDMDL
MODEL 4
REMARK VINA RESULT:      -7.7      2.572      5.379
REMARK  0 active torsions:
REMARK  status: ('A' for Active; 'I' for Inactive)
ROOT
HETATM    1 CL1  UNL     1      26.754   0.096  53.327  1.00  0.00    -0.082 Cl
HETATM    2  C1  UNL     1      25.050   0.497  53.141  1.00  0.00     0.063 A 
HETATM    3  C2  UNL     1      24.174  -0.515  53.477  1.00  0.00     0.026 A 
HETATM    4  C3  UNL     1      22.814  -0.306  53.378  1.00  0.00     0.004 A 
HETATM    5  C4  UNL     1      22.453   0.975  52.924  1.00  0.00     0.032 A 
HETATM    6  C5  UNL     1      23.351   1.999  52.585  1.00  0.00     0.062 A 
HETATM    7  C6  UNL     1      24.690   1.750  52.697  1.00  0.00     0.080 A 
HETATM    8  N1  UNL     1      25.785   2.563  52.444  1.00  0.00    -0.364 N 
HETATM    9  C7  UNL     1      26.191   3.145  51.220  1.00  0.00     0.088 C 
HETATM   10  C8  UNL     1      26.792   3.434  50.081  1.00  0.00     0.143 A 
HETATM   11  C9  UNL     1      26.816   4.360  48.957  1.00  0.00     0.132 A 
HETATM   12  N2  UNL     1      25.906   4.714  49.747  1.00  0.00    -0.390 N 
HETATM   13  C10 UNL     1      25.088   5.873  49.462  1.00  0.00     0.145 C 
HETATM   14  C11 UNL     1      24.916   6.586  50.747  1.00  0.00    -0.005 C 
HETATM   15  C12 UNL     1      23.691   6.715  51.224  1.00  0.00     0.030 C 
HETATM   16  C13 UNL     1      22.662   6.118  50.395  1.00  0.00     0.077 A 
HETATM   17  C14 UNL     1      22.114   4.953  50.498  1.00  0.00     0.086 A 
HETATM   18  C15 UNL     1      21.943   3.732  51.085  1.00  0.00     0.146 A 
HETATM   19  N3  UNL     1      21.045   2.878  50.578  1.00  0.00    -0.223 NA
HETATM   20  C16 UNL     1      20.261   3.083  49.522  1.00  0.00     0.237 A 
HETATM   21  N4  UNL     1      20.398   4.280  48.914  1.00  0.00    -0.221 NA
HETATM   22  C17 UNL     1      21.290   5.168  49.391  1.00  0.00     0.167 A 
HETATM   23  N5  UNL     1      21.818   6.318  49.273  1.00  0.00    -0.227 NA
HETATM   24  N6  UNL     1      22.498   3.055  52.196  1.00  0.00    -0.338 N 
HETATM   25  H4  UNL     1      26.365   2.735  53.296  1.00  0.00     0.165 HD
HETATM   26  H13 UNL     1      22.079   3.537  53.017  1.00  0.00     0.167 HD
ENDROOT
TORSDOF 0
ENDMDL
MODEL 5
REMARK VINA RESULT:      -7.6      2.387      5.955
REMARK  0 active torsions:
REMARK  status: ('A' for Active; 'I' for Inactive)
ROOT
HETATM    1 CL1  UNL     1      26.405  -1.042  54.006  1.00  0.00    -0.082 Cl
HETATM    2  C1  UNL     1      26.259   0.402  53.008  1.00  0.00     0.063 A 
HETATM    3  C2  UNL     1      27.411   1.154  52.902  1.00  0.00     0.026 A 
HETATM    4  C3  UNL     1      27.413   2.301  52.136  1.00  0.00     0.004 A 
HETATM    5  C4  UNL     1      26.183   2.592  51.519  1.00  0.00     0.032 A 
HETATM    6  C5  UNL     1      25.016   1.820  51.633  1.00  0.00     0.062 A 
HETATM    7  C6  UNL     1      25.058   0.692  52.401  1.00  0.00     0.080 A 
HETATM    8  N1  UNL     1      24.077  -0.249  52.680  1.00  0.00    -0.364 N 
HETATM    9  C7  UNL     1      22.845  -0.069  53.352  1.00  0.00     0.088 C 
HETATM   10  C8  UNL     1      21.863  -0.040  54.234  1.00  0.00     0.143 A 
HETATM   11  C9  UNL     1      20.475   0.341  54.448  1.00  0.00     0.132 A 
HETATM   12  N2  UNL     1      20.790   0.628  53.267  1.00  0.00    -0.390 N 
HETATM   13  C10 UNL     1      19.830   1.236  52.372  1.00  0.00     0.145 C 
HETATM   14  C11 UNL     1      20.016   0.582  51.057  1.00  0.00    -0.005 C 
HETATM   15  C12 UNL     1      20.388   1.336  50.037  1.00  0.00     0.030 C 
HETATM   16  C13 UNL     1      20.567   2.737  50.366  1.00  0.00     0.077 A 
HETATM   17  C14 UNL     1      21.655   3.365  50.666  1.00  0.00     0.086 A 
HETATM   18  C15 UNL     1      23.001   3.438  50.885  1.00  0.00     0.146 A 
HETATM   19  N3  UNL     1      23.550   4.613  51.220  1.00  0.00    -0.223 NA
HETATM   20  C16 UNL     1      22.915   5.773  51.371  1.00  0.00     0.237 A 
HETATM   21  N4  UNL     1      21.581   5.743  51.162  1.00  0.00    -0.221 NA
HETATM   22  C17 UNL     1      20.990   4.582  50.824  1.00  0.00     0.167 A 
HETATM   23  N5  UNL     1      19.909   3.981  50.531  1.00  0.00    -0.227 NA
HETATM   24  N6  UNL     1      24.086   2.531  50.843  1.00  0.00    -0.338 N 
HETATM   25  H4  UNL     1      24.327  -1.205  52.341  1.00  0.00     0.165 HD
HETATM   26  H13 UNL     1      24.234   2.367  49.827  1.00  0.00     0.167 HD
ENDROOT
TORSDOF 0
ENDMDL
MODEL 6
REMARK VINA RESULT:      -7.6      2.349      5.506
REMARK  0 active torsions:
REMARK  status: ('A' for Active; 'I' for Inactive)
ROOT
HETATM    1 CL1  UNL     1      20.306   7.195  49.779  1.00  0.00    -0.082 Cl
HETATM    2  C1  UNL     1      21.763   6.637  50.596  1.00  0.00     0.063 A 
HETATM    3  C2  UNL     1      22.840   7.496  50.515  1.00  0.00     0.026 A 
HETATM    4  C3  UNL     1      24.030   7.163  51.128  1.00  0.00     0.004 A 
HETATM    5  C4  UNL     1      24.014   5.927  51.800  1.00  0.00     0.032 A 
HETATM    6  C5  UNL     1      22.913   5.060  51.876  1.00  0.00     0.062 A 
HETATM    7  C6  UNL     1      21.754   5.428  51.255  1.00  0.00     0.080 A 
HETATM    8  N1  UNL     1      20.527   4.785  51.175  1.00  0.00    -0.364 N 
HETATM    9  C7  UNL     1      20.220   3.536  50.586  1.00  0.00     0.088 C 
HETATM   10  C8  UNL     1      19.818   2.564  49.788  1.00  0.00     0.143 A 
HETATM   11  C9  UNL     1      19.719   1.119  49.638  1.00  0.00     0.132 A 
HETATM   12  N2  UNL     1      20.256   1.371  50.745  1.00  0.00    -0.390 N 
HETATM   13  C10 UNL     1      20.662   0.301  51.630  1.00  0.00     0.145 C 
HETATM   14  C11 UNL     1      20.293   0.730  52.997  1.00  0.00    -0.005 C 
HETATM   15  C12 UNL     1      21.264   0.882  53.882  1.00  0.00     0.030 C 
HETATM   16  C13 UNL     1      22.589   0.598  53.367  1.00  0.00     0.077 A 
HETATM   17  C14 UNL     1      23.471   1.421  52.905  1.00  0.00     0.086 A 
HETATM   18  C15 UNL     1      23.922   2.665  52.572  1.00  0.00     0.146 A 
HETATM   19  N3  UNL     1      25.149   2.803  52.050  1.00  0.00    -0.223 NA
HETATM   20  C16 UNL     1      26.022   1.829  51.805  1.00  0.00     0.237 A 
HETATM   21  N4  UNL     1      25.613   0.582  52.122  1.00  0.00    -0.221 NA
HETATM   22  C17 UNL     1      24.388   0.400  52.649  1.00  0.00     0.167 A 
HETATM   23  N5  UNL     1      23.533  -0.425  53.099  1.00  0.00    -0.227 NA
HETATM   24  N6  UNL     1      23.409   3.982  52.642  1.00  0.00    -0.338 N 
HETATM   25  H4  UNL     1      19.754   5.336  51.611  1.00  0.00     0.165 HD
HETATM   26  H13 UNL     1      23.447   4.211  53.656  1.00  0.00     0.167 HD
ENDROOT
TORSDOF 0
ENDMDL
MODEL 7
REMARK VINA RESULT:      -7.4      8.774     11.109
REMARK  0 active torsions:
REMARK  status: ('A' for Active; 'I' for Inactive)
ROOT
HETATM    1 CL1  UNL     1      26.193   8.394  48.478  1.00  0.00    -0.082 Cl
HETATM    2  C1  UNL     1      27.585   7.343  48.232  1.00  0.00     0.063 A 
HETATM    3  C2  UNL     1      27.386   6.023  48.583  1.00  0.00     0.026 A 
HETATM    4  C3  UNL     1      28.406   5.110  48.421  1.00  0.00     0.004 A 
HETATM    5  C4  UNL     1      29.594   5.648  47.894  1.00  0.00     0.032 A 
HETATM    6  C5  UNL     1      29.787   6.993  47.540  1.00  0.00     0.062 A 
HETATM    7  C6  UNL     1      28.750   7.865  47.715  1.00  0.00     0.080 A 
HETATM    8  N1  UNL     1      28.655   9.223  47.449  1.00  0.00    -0.364 N 
HETATM    9  C7  UNL     1      29.394  10.289  48.014  1.00  0.00     0.088 C 
HETATM   10  C8  UNL     1      29.803  11.326  48.721  1.00  0.00     0.143 A 
HETATM   11  C9  UNL     1      30.918  12.233  48.957  1.00  0.00     0.132 A 
HETATM   12  N2  UNL     1      31.252  11.412  48.067  1.00  0.00    -0.390 N 
HETATM   13  C10 UNL     1      32.564  11.472  47.460  1.00  0.00     0.145 C 
HETATM   14  C11 UNL     1      32.365  11.224  46.015  1.00  0.00    -0.005 C 
HETATM   15  C12 UNL     1      32.942  10.159  45.485  1.00  0.00     0.030 C 
HETATM   16  C13 UNL     1      33.707   9.365  46.426  1.00  0.00     0.077 A 
HETATM   17  C14 UNL     1      33.346   8.308  47.075  1.00  0.00     0.086 A 
HETATM   18  C15 UNL     1      32.452   7.338  47.425  1.00  0.00     0.146 A 
HETATM   19  N3  UNL     1      32.817   6.393  48.303  1.00  0.00    -0.223 NA
HETATM   20  C16 UNL     1      33.998   6.281  48.903  1.00  0.00     0.237 A 
HETATM   21  N4  UNL     1      34.911   7.222  48.582  1.00  0.00    -0.221 NA
HETATM   22  C17 UNL     1      34.586   8.189  47.705  1.00  0.00     0.167 A 
HETATM   23  N5  UNL     1      34.960   9.228  47.075  1.00  0.00    -0.227 NA
HETATM   24  N6  UNL     1      31.120   7.012  47.076  1.00  0.00    -0.338 N 
HETATM   25  H4  UNL     1      27.922   9.444  46.738  1.00  0.00     0.165 HD
HETATM   26  H13 UNL     1      31.202   6.627  46.113  1.00  0.00     0.167 HD
ENDROOT
TORSDOF 0
ENDMDL
MODEL 8
REMARK VINA RESULT:      -7.3      6.790      8.982
REMARK  0 active torsions:
REMARK  status: ('A' for Active; 'I' for Inactive)
ROOT
HETATM    1 CL1  UNL     1      24.010   7.273  49.152  1.00  0.00    -0.082 Cl
HETATM    2  C1  UNL     1      25.467   6.299  48.981  1.00  0.00     0.063 A 
HETATM    3  C2  UNL     1      25.379   5.024  49.501  1.00  0.00     0.026 A 
HETATM    4  C3  UNL     1      26.459   4.171  49.413  1.00  0.00     0.004 A 
HETATM    5  C4  UNL     1      27.585   4.720  48.774  1.00  0.00     0.032 A 
HETATM    6  C5  UNL     1      27.666   6.019  48.247  1.00  0.00     0.062 A 
HETATM    7  C6  UNL     1      26.573   6.831  48.356  1.00  0.00     0.080 A 
HETATM    8  N1  UNL     1      26.369   8.134  47.926  1.00  0.00    -0.364 N 
HETATM    9  C7  UNL     1      27.045   9.313  48.323  1.00  0.00     0.088 C 
HETATM   10  C8  UNL     1      27.397  10.457  48.878  1.00  0.00     0.143 A 
HETATM   11  C9  UNL     1      28.448  11.462  48.953  1.00  0.00     0.132 A 
HETATM   12  N2  UNL     1      28.814  10.560  48.159  1.00  0.00    -0.390 N 
HETATM   13  C10 UNL     1      30.097  10.634  47.496  1.00  0.00     0.145 C 
HETATM   14  C11 UNL     1      29.871  10.191  46.102  1.00  0.00    -0.005 C 
HETATM   15  C12 UNL     1      30.508   9.111  45.685  1.00  0.00     0.030 C 
HETATM   16  C13 UNL     1      31.360   8.498  46.685  1.00  0.00     0.077 A 
HETATM   17  C14 UNL     1      31.100   7.509  47.475  1.00  0.00     0.086 A 
HETATM   18  C15 UNL     1      30.293   6.531  47.979  1.00  0.00     0.146 A 
HETATM   19  N3  UNL     1      30.755   5.734  48.952  1.00  0.00    -0.223 NA
HETATM   20  C16 UNL     1      31.961   5.781  49.513  1.00  0.00     0.237 A 
HETATM   21  N4  UNL     1      32.790   6.735  49.040  1.00  0.00    -0.221 NA
HETATM   22  C17 UNL     1      32.366   7.558  48.063  1.00  0.00     0.167 A 
HETATM   23  N5  UNL     1      32.640   8.532  47.294  1.00  0.00    -0.227 NA
HETATM   24  N6  UNL     1      28.979   6.072  47.730  1.00  0.00    -0.338 N 
HETATM   25  H4  UNL     1      25.599   8.212  47.225  1.00  0.00     0.165 HD
HETATM   26  H13 UNL     1      29.057   5.574  46.820  1.00  0.00     0.167 HD
ENDROOT
TORSDOF 0
ENDMDL
MODEL 9
REMARK VINA RESULT:      -7.0      8.227     11.269
REMARK  0 active torsions:
REMARK  status: ('A' for Active; 'I' for Inactive)
ROOT
HETATM    1 CL1  UNL     1      34.056   5.884  43.717  1.00  0.00    -0.082 Cl
HETATM    2  C1  UNL     1      33.160   5.279  45.108  1.00  0.00     0.063 A 
HETATM    3  C2  UNL     1      33.277   3.922  45.329  1.00  0.00     0.026 A 
HETATM    4  C3  UNL     1      32.625   3.342  46.398  1.00  0.00     0.004 A 
HETATM    5  C4  UNL     1      31.877   4.240  47.181  1.00  0.00     0.032 A 
HETATM    6  C5  UNL     1      31.764   5.620  46.948  1.00  0.00     0.062 A 
HETATM    7  C6  UNL     1      32.426   6.153  45.878  1.00  0.00     0.080 A 
HETATM    8  N1  UNL     1      32.501   7.460  45.421  1.00  0.00    -0.364 N 
HETATM    9  C7  UNL     1      31.459   8.293  44.946  1.00  0.00     0.088 C 
HETATM   10  C8  UNL     1      30.616   8.985  44.204  1.00  0.00     0.143 A 
HETATM   11  C9  UNL     1      29.464   9.875  44.238  1.00  0.00     0.132 A 
HETATM   12  N2  UNL     1      29.772   9.575  45.418  1.00  0.00    -0.390 N 
HETATM   13  C10 UNL     1      29.018  10.100  46.536  1.00  0.00     0.145 C 
HETATM   14  C11 UNL     1      30.010  10.457  47.574  1.00  0.00    -0.005 C 
HETATM   15  C12 UNL     1      29.946   9.828  48.734  1.00  0.00     0.030 C 
HETATM   16  C13 UNL     1      28.882   8.847  48.822  1.00  0.00     0.077 A 
HETATM   17  C14 UNL     1      28.938   7.571  48.626  1.00  0.00     0.086 A 
HETATM   18  C15 UNL     1      29.590   6.412  48.319  1.00  0.00     0.146 A 
HETATM   19  N3  UNL     1      28.908   5.259  48.302  1.00  0.00    -0.223 NA
HETATM   20  C16 UNL     1      27.613   5.097  48.559  1.00  0.00     0.237 A 
HETATM   21  N4  UNL     1      26.932   6.221  48.868  1.00  0.00    -0.221 NA
HETATM   22  C17 UNL     1      27.579   7.401  48.897  1.00  0.00     0.167 A 
HETATM   23  N5  UNL     1      27.504   8.655  49.094  1.00  0.00    -0.227 NA
HETATM   24  N6  UNL     1      30.918   6.051  47.993  1.00  0.00    -0.338 N 
HETATM   25  H4  UNL     1      33.475   7.839  45.438  1.00  0.00     0.165 HD
HETATM   26  H13 UNL     1      31.427   6.128  48.897  1.00  0.00     0.167 HD
ENDROOT
TORSDOF 0
ENDMDL
