MODEL 1
REMARK VINA RESULT:      -7.8      0.000      0.000
REMARK  4 active torsions:
REMARK  status: ('A' for Active; 'I' for Inactive)
REMARK    1  A    between atoms: C3_3  and  C4_4 
REMARK       I    between atoms: C4_4  and  N1_6 
REMARK    2  A    between atoms: N1_6  and  C5_7 
REMARK    3  A    between atoms: C10_14  and  N4_15 
REMARK    4  A    between atoms: N4_15  and  C11_16 
ROOT
HETATM    1  C1  UNL     1      28.423   6.590  47.702  1.00  0.00     0.112 C 
HETATM    2  C2  UNL     1      27.764   5.534  48.482  1.00  0.00    -0.101 C 
HETATM    3  C3  UNL     1      27.224   4.650  49.116  1.00  0.00    -0.006 C 
ENDROOT
BRANCH   3   4
HETATM    4  C4  UNL     1      26.565   3.591  49.854  1.00  0.00     0.302 C 
HETATM    5  O1  UNL     1      25.617   2.974  49.261  1.00  0.00    -0.258 OA
HETATM    6  N1  UNL     1      26.964   3.255  51.190  1.00  0.00    -0.302 N 
HETATM    7  H4  UNL     1      27.742   3.827  51.558  1.00  0.00     0.171 HD
BRANCH   6   8
HETATM    8  C5  UNL     1      26.259   2.187  51.860  1.00  0.00     0.105 C 
HETATM    9  C6  UNL     1      26.727   1.054  52.351  1.00  0.00     0.050 C 
HETATM   10  C7  UNL     1      25.890   0.081  53.012  1.00  0.00     0.033 C 
HETATM   11  C8  UNL     1      24.592   0.271  53.185  1.00  0.00     0.066 C 
HETATM   12  N2  UNL     1      23.812  -0.733  53.820  1.00  0.00    -0.244 NA
HETATM   13  C17 UNL     1      24.063   1.584  52.788  1.00  0.00     0.205 C 
HETATM   14  C9  UNL     1      22.504  -0.598  53.747  1.00  0.00     0.235 C 
HETATM   15  N3  UNL     1      21.937   0.516  53.080  1.00  0.00    -0.226 NA
HETATM   16  C10 UNL     1      22.608   1.468  52.536  1.00  0.00     0.134 C 
HETATM   17  N5  UNL     1      24.828   2.345  51.886  1.00  0.00    -0.359 N 
HETATM   18  H14 UNL     1      24.367   3.022  51.236  1.00  0.00     0.162 HD
BRANCH  16  19
HETATM   19  N4  UNL     1      22.067   2.570  51.854  1.00  0.00    -0.342 N 
HETATM   20  H8  UNL     1      21.681   3.458  52.235  1.00  0.00     0.167 HD
BRANCH  19  21
HETATM   21  C11 UNL     1      22.033   2.473  50.411  1.00  0.00     0.034 A 
HETATM   22  C12 UNL     1      21.806   1.333  49.695  1.00  0.00     0.029 A 
HETATM   23  C13 UNL     1      21.807   1.419  48.311  1.00  0.00     0.004 A 
HETATM   24  C14 UNL     1      22.034   2.640  47.670  1.00  0.00     0.019 A 
HETATM   25  C15 UNL     1      22.265   3.799  48.418  1.00  0.00     0.013 A 
HETATM   26 BR1  UNL     1      22.576   5.472  47.528  1.00  0.00    -0.051 Br
HETATM   27  C16 UNL     1      22.261   3.699  49.777  1.00  0.00     0.048 A 
ENDBRANCH  19  21
ENDBRANCH  16  19
ENDBRANCH   6   8
ENDBRANCH   3   4
TORSDOF 4
ENDMDL
MODEL 2
REMARK VINA RESULT:      -7.6      2.488      4.881
REMARK  4 active torsions:
REMARK  status: ('A' for Active; 'I' for Inactive)
REMARK    1  A    between atoms: C3_3  and  C4_4 
REMARK       I    between atoms: C4_4  and  N1_6 
REMARK    2  A    between atoms: N1_6  and  C5_7 
REMARK    3  A    between atoms: C10_14  and  N4_15 
REMARK    4  A    between atoms: N4_15  and  C11_16 
ROOT
HETATM    1  C1  UNL     1      29.986  -0.895  53.638  1.00  0.00     0.112 C 
HETATM    2  C2  UNL     1      28.635  -0.326  53.564  1.00  0.00    -0.101 C 
HETATM    3  C3  UNL     1      27.510   0.130  53.510  1.00  0.00    -0.006 C 
ENDROOT
BRANCH   3   4
HETATM    4  C4  UNL     1      26.162   0.656  53.432  1.00  0.00     0.302 C 
HETATM    5  O1  UNL     1      26.009   1.899  53.683  1.00  0.00    -0.258 OA
HETATM    6  N1  UNL     1      25.053  -0.185  53.086  1.00  0.00    -0.302 N 
HETATM    7  H4  UNL     1      25.307  -1.171  52.906  1.00  0.00     0.171 HD
BRANCH   6   8
HETATM    8  C5  UNL     1      23.739   0.414  53.028  1.00  0.00     0.105 C 
HETATM    9  C6  UNL     1      22.639   0.081  53.677  1.00  0.00     0.050 C 
HETATM   10  C7  UNL     1      21.391   0.792  53.521  1.00  0.00     0.033 C 
HETATM   11  C8  UNL     1      21.276   1.843  52.724  1.00  0.00     0.066 C 
HETATM   12  N2  UNL     1      20.017   2.488  52.590  1.00  0.00    -0.244 NA
HETATM   13  C17 UNL     1      22.513   2.334  52.103  1.00  0.00     0.205 C 
HETATM   14  C9  UNL     1      19.904   3.363  51.612  1.00  0.00     0.235 C 
HETATM   15  N3  UNL     1      21.008   3.639  50.769  1.00  0.00    -0.226 NA
HETATM   16  C10 UNL     1      22.175   3.112  50.888  1.00  0.00     0.134 C 
HETATM   17  N5  UNL     1      23.601   1.445  52.033  1.00  0.00    -0.359 N 
HETATM   18  H14 UNL     1      24.307   1.527  51.266  1.00  0.00     0.162 HD
BRANCH  16  19
HETATM   19  N4  UNL     1      23.278   3.356  50.053  1.00  0.00    -0.342 N 
HETATM   20  H8  UNL     1      23.693   2.753  49.314  1.00  0.00     0.167 HD
BRANCH  19  21
HETATM   21  C11 UNL     1      23.947   4.625  50.236  1.00  0.00     0.034 A 
HETATM   22  C12 UNL     1      23.526   5.637  51.050  1.00  0.00     0.029 A 
HETATM   23  C13 UNL     1      24.292   6.792  51.107  1.00  0.00     0.004 A 
HETATM   24  C14 UNL     1      25.462   6.913  50.352  1.00  0.00     0.019 A 
HETATM   25  C15 UNL     1      25.879   5.867  49.523  1.00  0.00     0.013 A 
HETATM   26 BR1  UNL     1      27.488   6.043  48.490  1.00  0.00    -0.051 Br
HETATM   27  C16 UNL     1      25.117   4.738  49.478  1.00  0.00     0.048 A 
ENDBRANCH  19  21
ENDBRANCH  16  19
ENDBRANCH   6   8
ENDBRANCH   3   4
TORSDOF 4
ENDMDL
MODEL 3
REMARK VINA RESULT:      -7.6      2.831      5.565
REMARK  4 active torsions:
REMARK  status: ('A' for Active; 'I' for Inactive)
REMARK    1  A    between atoms: C3_3  and  C4_4 
REMARK       I    between atoms: C4_4  and  N1_6 
REMARK    2  A    between atoms: N1_6  and  C5_7 
REMARK    3  A    between atoms: C10_14  and  N4_15 
REMARK    4  A    between atoms: N4_15  and  C11_16 
ROOT
HETATM    1  C1  UNL     1      29.921  -0.151  53.797  1.00  0.00     0.112 C 
HETATM    2  C2  UNL     1      28.714   0.526  53.305  1.00  0.00    -0.101 C 
HETATM    3  C3  UNL     1      27.707   1.079  52.911  1.00  0.00    -0.006 C 
ENDROOT
BRANCH   3   4
HETATM    4  C4  UNL     1      26.496   1.718  52.439  1.00  0.00     0.302 C 
HETATM    5  O1  UNL     1      26.431   1.991  51.193  1.00  0.00    -0.258 OA
HETATM    6  N1  UNL     1      25.419   2.029  53.336  1.00  0.00    -0.302 N 
HETATM    7  H4  UNL     1      25.593   1.758  54.318  1.00  0.00     0.171 HD
BRANCH   6   8
HETATM    8  C5  UNL     1      24.244   2.666  52.790  1.00  0.00     0.105 C 
HETATM    9  C6  UNL     1      23.062   2.146  52.513  1.00  0.00     0.050 C 
HETATM   10  C7  UNL     1      21.970   2.923  51.976  1.00  0.00     0.033 C 
HETATM   11  C8  UNL     1      22.078   4.221  51.743  1.00  0.00     0.066 C 
HETATM   12  N2  UNL     1      20.978   4.931  51.191  1.00  0.00    -0.244 NA
HETATM   13  C17 UNL     1      23.325   4.864  52.180  1.00  0.00     0.205 C 
HETATM   14  C9  UNL     1      21.220   6.151  50.758  1.00  0.00     0.235 C 
HETATM   15  N3  UNL     1      22.518   6.705  50.874  1.00  0.00    -0.226 NA
HETATM   16  C10 UNL     1      23.526   6.114  51.410  1.00  0.00     0.134 C 
HETATM   17  N5  UNL     1      24.442   4.036  52.392  1.00  0.00    -0.359 N 
HETATM   18  H14 UNL     1      25.411   4.406  52.263  1.00  0.00     0.162 HD
BRANCH  16  19
HETATM   19  N4  UNL     1      24.825   6.636  51.518  1.00  0.00    -0.342 N 
HETATM   20  H8  UNL     1      25.367   6.889  52.370  1.00  0.00     0.167 HD
BRANCH  19  21
HETATM   21  C11 UNL     1      25.527   6.864  50.274  1.00  0.00     0.034 A 
HETATM   22  C12 UNL     1      25.980   5.893  49.427  1.00  0.00     0.029 A 
HETATM   23  C13 UNL     1      26.635   6.289  48.270  1.00  0.00     0.004 A 
HETATM   24  C14 UNL     1      26.825   7.643  47.982  1.00  0.00     0.019 A 
HETATM   25  C15 UNL     1      26.354   8.625  48.861  1.00  0.00     0.013 A 
HETATM   26 BR1  UNL     1      26.620  10.483  48.457  1.00  0.00    -0.051 Br
HETATM   27  C16 UNL     1      25.712   8.221  49.993  1.00  0.00     0.048 A 
ENDBRANCH  19  21
ENDBRANCH  16  19
ENDBRANCH   6   8
ENDBRANCH   3   4
TORSDOF 4
ENDMDL
MODEL 4
REMARK VINA RESULT:      -7.5      2.988      4.608
REMARK  4 active torsions:
REMARK  status: ('A' for Active; 'I' for Inactive)
REMARK    1  A    between atoms: C3_3  and  C4_4 
REMARK       I    between atoms: C4_4  and  N1_6 
REMARK    2  A    between atoms: N1_6  and  C5_7 
REMARK    3  A    between atoms: C10_14  and  N4_15 
REMARK    4  A    between atoms: N4_15  and  C11_16 
ROOT
HETATM    1  C1  UNL     1      30.240  -0.519  53.630  1.00  0.00     0.112 C 
HETATM    2  C2  UNL     1      28.778  -0.601  53.529  1.00  0.00    -0.101 C 
HETATM    3  C3  UNL     1      27.568  -0.683  53.457  1.00  0.00    -0.006 C 
ENDROOT
BRANCH   3   4
HETATM    4  C4  UNL     1      26.127  -0.802  53.364  1.00  0.00     0.302 C 
HETATM    5  O1  UNL     1      25.654  -1.293  52.283  1.00  0.00    -0.258 OA
HETATM    6  N1  UNL     1      25.273  -0.385  54.439  1.00  0.00    -0.302 N 
HETATM    7  H4  UNL     1      25.776  -0.004  55.258  1.00  0.00     0.171 HD
BRANCH   6   8
HETATM    8  C5  UNL     1      23.847  -0.536  54.270  1.00  0.00     0.105 C 
HETATM    9  C6  UNL     1      22.995  -1.267  54.964  1.00  0.00     0.050 C 
HETATM   10  C7  UNL     1      21.580  -1.305  54.680  1.00  0.00     0.033 C 
HETATM   11  C8  UNL     1      21.039  -0.587  53.708  1.00  0.00     0.066 C 
HETATM   12  N2  UNL     1      19.643  -0.682  53.456  1.00  0.00    -0.244 NA
HETATM   13  C17 UNL     1      21.929   0.353  53.013  1.00  0.00     0.205 C 
HETATM   14  C9  UNL     1      19.207  -0.142  52.338  1.00  0.00     0.235 C 
HETATM   15  N3  UNL     1      20.108   0.514  51.463  1.00  0.00    -0.226 NA
HETATM   16  C10 UNL     1      21.367   0.662  51.678  1.00  0.00     0.134 C 
HETATM   17  N5  UNL     1      23.314   0.124  53.107  1.00  0.00    -0.359 N 
HETATM   18  H14 UNL     1      23.956   0.427  52.340  1.00  0.00     0.162 HD
BRANCH  16  19
HETATM   19  N4  UNL     1      22.281   1.291  50.817  1.00  0.00    -0.342 N 
HETATM   20  H8  UNL     1      22.796   0.901  50.002  1.00  0.00     0.167 HD
BRANCH  19  21
HETATM   21  C11 UNL     1      22.559   2.685  51.090  1.00  0.00     0.034 A 
HETATM   22  C12 UNL     1      21.824   3.498  51.902  1.00  0.00     0.029 A 
HETATM   23  C13 UNL     1      22.234   4.815  52.053  1.00  0.00     0.004 A 
HETATM   24  C14 UNL     1      23.368   5.291  51.391  1.00  0.00     0.019 A 
HETATM   25  C15 UNL     1      24.111   4.444  50.563  1.00  0.00     0.013 A 
HETATM   26 BR1  UNL     1      25.669   5.108  49.657  1.00  0.00    -0.051 Br
HETATM   27  C16 UNL     1      23.696   3.153  50.424  1.00  0.00     0.048 A 
ENDBRANCH  19  21
ENDBRANCH  16  19
ENDBRANCH   6   8
ENDBRANCH   3   4
TORSDOF 4
ENDMDL
MODEL 5
REMARK VINA RESULT:      -7.2      3.633      5.696
REMARK  4 active torsions:
REMARK  status: ('A' for Active; 'I' for Inactive)
REMARK    1  A    between atoms: C3_3  and  C4_4 
REMARK       I    between atoms: C4_4  and  N1_6 
REMARK    2  A    between atoms: N1_6  and  C5_7 
REMARK    3  A    between atoms: C10_14  and  N4_15 
REMARK    4  A    between atoms: N4_15  and  C11_16 
ROOT
HETATM    1  C1  UNL     1      22.308   5.335  46.503  1.00  0.00     0.112 C 
HETATM    2  C2  UNL     1      22.281   4.586  47.767  1.00  0.00    -0.101 C 
HETATM    3  C3  UNL     1      22.242   3.966  48.810  1.00  0.00    -0.006 C 
ENDROOT
BRANCH   3   4
HETATM    4  C4  UNL     1      22.181   3.242  50.064  1.00  0.00     0.302 C 
HETATM    5  O1  UNL     1      22.899   3.682  51.024  1.00  0.00    -0.258 OA
HETATM    6  N1  UNL     1      21.349   2.083  50.215  1.00  0.00    -0.302 N 
HETATM    7  H4  UNL     1      20.817   1.827  49.366  1.00  0.00     0.171 HD
BRANCH   6   8
HETATM    8  C5  UNL     1      21.342   1.415  51.496  1.00  0.00     0.105 C 
HETATM    9  C6  UNL     1      20.418   1.424  52.439  1.00  0.00     0.050 C 
HETATM   10  C7  UNL     1      20.551   0.688  53.674  1.00  0.00     0.033 C 
HETATM   11  C8  UNL     1      21.609  -0.064  53.934  1.00  0.00     0.066 C 
HETATM   12  N2  UNL     1      21.698  -0.747  55.177  1.00  0.00    -0.244 NA
HETATM   13  C17 UNL     1      22.586  -0.220  52.848  1.00  0.00     0.205 C 
HETATM   14  C9  UNL     1      22.866  -1.275  55.478  1.00  0.00     0.235 C 
HETATM   15  N3  UNL     1      23.952  -1.169  54.574  1.00  0.00    -0.226 NA
HETATM   16  C10 UNL     1      23.897  -0.602  53.421  1.00  0.00     0.134 C 
HETATM   17  N5  UNL     1      22.572   0.742  51.821  1.00  0.00    -0.359 N 
HETATM   18  H14 UNL     1      23.446   0.970  51.295  1.00  0.00     0.162 HD
BRANCH  16  19
HETATM   19  N4  UNL     1      24.965  -0.469  52.518  1.00  0.00    -0.342 N 
HETATM   20  H8  UNL     1      25.079  -0.874  51.567  1.00  0.00     0.167 HD
BRANCH  19  21
HETATM   21  C11 UNL     1      26.076   0.345  52.960  1.00  0.00     0.034 A 
HETATM   22  C12 UNL     1      26.023   1.681  53.237  1.00  0.00     0.029 A 
HETATM   23  C13 UNL     1      27.188   2.309  53.651  1.00  0.00     0.004 A 
HETATM   24  C14 UNL     1      28.380   1.592  53.782  1.00  0.00     0.019 A 
HETATM   25  C15 UNL     1      28.417   0.224  53.494  1.00  0.00     0.013 A 
HETATM   26 BR1  UNL     1      30.061  -0.752  53.676  1.00  0.00    -0.051 Br
HETATM   27  C16 UNL     1      27.265  -0.380  53.088  1.00  0.00     0.048 A 
ENDBRANCH  19  21
ENDBRANCH  16  19
ENDBRANCH   6   8
ENDBRANCH   3   4
TORSDOF 4
ENDMDL
MODEL 6
REMARK VINA RESULT:      -7.1      3.208      6.267
REMARK  4 active torsions:
REMARK  status: ('A' for Active; 'I' for Inactive)
REMARK    1  A    between atoms: C3_3  and  C4_4 
REMARK       I    between atoms: C4_4  and  N1_6 
REMARK    2  A    between atoms: N1_6  and  C5_7 
REMARK    3  A    between atoms: C10_14  and  N4_15 
REMARK    4  A    between atoms: N4_15  and  C11_16 
ROOT
HETATM    1  C1  UNL     1      15.083  -0.212  51.786  1.00  0.00     0.112 C 
HETATM    2  C2  UNL     1      16.535  -0.213  52.006  1.00  0.00    -0.101 C 
HETATM    3  C3  UNL     1      17.734  -0.229  52.197  1.00  0.00    -0.006 C 
ENDROOT
BRANCH   3   4
HETATM    4  C4  UNL     1      19.161  -0.246  52.448  1.00  0.00     0.302 C 
HETATM    5  O1  UNL     1      19.930  -0.069  51.443  1.00  0.00    -0.258 OA
HETATM    6  N1  UNL     1      19.683  -0.453  53.768  1.00  0.00    -0.302 N 
HETATM    7  H4  UNL     1      18.961  -0.584  54.495  1.00  0.00     0.171 HD
BRANCH   6   8
HETATM    8  C5  UNL     1      21.118  -0.456  53.938  1.00  0.00     0.105 C 
HETATM    9  C6  UNL     1      21.882  -1.313  54.590  1.00  0.00     0.050 C 
HETATM   10  C7  UNL     1      23.319  -1.188  54.659  1.00  0.00     0.033 C 
HETATM   11  C8  UNL     1      23.969  -0.207  54.053  1.00  0.00     0.066 C 
HETATM   12  N2  UNL     1      25.382  -0.119  54.177  1.00  0.00    -0.244 NA
HETATM   13  C17 UNL     1      23.170   0.678  53.194  1.00  0.00     0.205 C 
HETATM   14  C9  UNL     1      25.942   0.999  53.763  1.00  0.00     0.235 C 
HETATM   15  N3  UNL     1      25.148   2.032  53.207  1.00  0.00    -0.226 NA
HETATM   16  C10 UNL     1      23.875   1.971  53.034  1.00  0.00     0.134 C 
HETATM   17  N5  UNL     1      21.780   0.709  53.410  1.00  0.00    -0.359 N 
HETATM   18  H14 UNL     1      21.228   1.569  53.193  1.00  0.00     0.162 HD
BRANCH  16  19
HETATM   19  N4  UNL     1      23.066   2.988  52.503  1.00  0.00    -0.342 N 
HETATM   20  H8  UNL     1      22.141   3.334  52.828  1.00  0.00     0.167 HD
BRANCH  19  21
HETATM   21  C11 UNL     1      23.579   3.664  51.331  1.00  0.00     0.034 A 
HETATM   22  C12 UNL     1      24.021   3.056  50.192  1.00  0.00     0.029 A 
HETATM   23  C13 UNL     1      24.481   3.858  49.158  1.00  0.00     0.004 A 
HETATM   24  C14 UNL     1      24.491   5.250  49.283  1.00  0.00     0.019 A 
HETATM   25  C15 UNL     1      24.035   5.857  50.458  1.00  0.00     0.013 A 
HETATM   26 BR1  UNL     1      24.053   7.771  50.620  1.00  0.00    -0.051 Br
HETATM   27  C16 UNL     1      23.585   5.056  51.464  1.00  0.00     0.048 A 
ENDBRANCH  19  21
ENDBRANCH  16  19
ENDBRANCH   6   8
ENDBRANCH   3   4
TORSDOF 4
ENDMDL
MODEL 7
REMARK VINA RESULT:      -7.0      2.731      4.855
REMARK  4 active torsions:
REMARK  status: ('A' for Active; 'I' for Inactive)
REMARK    1  A    between atoms: C3_3  and  C4_4 
REMARK       I    between atoms: C4_4  and  N1_6 
REMARK    2  A    between atoms: N1_6  and  C5_7 
REMARK    3  A    between atoms: C10_14  and  N4_15 
REMARK    4  A    between atoms: N4_15  and  C11_16 
ROOT
HETATM    1  C1  UNL     1      28.868   0.124  54.548  1.00  0.00     0.112 C 
HETATM    2  C2  UNL     1      27.442   0.267  54.229  1.00  0.00    -0.101 C 
HETATM    3  C3  UNL     1      26.260   0.368  53.969  1.00  0.00    -0.006 C 
ENDROOT
BRANCH   3   4
HETATM    4  C4  UNL     1      24.852   0.473  53.641  1.00  0.00     0.302 C 
HETATM    5  O1  UNL     1      24.431   1.614  53.248  1.00  0.00    -0.258 OA
HETATM    6  N1  UNL     1      23.974  -0.656  53.754  1.00  0.00    -0.302 N 
HETATM    7  H4  UNL     1      24.435  -1.521  54.082  1.00  0.00     0.171 HD
BRANCH   6   8
HETATM    8  C5  UNL     1      22.584  -0.472  53.409  1.00  0.00     0.105 C 
HETATM    9  C6  UNL     1      21.503  -0.892  54.038  1.00  0.00     0.050 C 
HETATM   10  C7  UNL     1      20.165  -0.615  53.570  1.00  0.00     0.033 C 
HETATM   11  C8  UNL     1      19.935   0.102  52.481  1.00  0.00     0.066 C 
HETATM   12  N2  UNL     1      18.598   0.322  52.053  1.00  0.00    -0.244 NA
HETATM   13  C17 UNL     1      21.107   0.714  51.839  1.00  0.00     0.205 C 
HETATM   14  C9  UNL     1      18.440   0.826  50.847  1.00  0.00     0.235 C 
HETATM   15  N3  UNL     1      19.569   1.142  50.052  1.00  0.00    -0.226 NA
HETATM   16  C10 UNL     1      20.793   1.002  50.421  1.00  0.00     0.134 C 
HETATM   17  N5  UNL     1      22.368   0.166  52.135  1.00  0.00    -0.359 N 
HETATM   18  H14 UNL     1      23.147   0.217  51.440  1.00  0.00     0.162 HD
BRANCH  16  19
HETATM   19  N4  UNL     1      21.926   1.290  49.643  1.00  0.00    -0.342 N 
HETATM   20  H8  UNL     1      22.402   0.703  48.927  1.00  0.00     0.167 HD
BRANCH  19  21
HETATM   21  C11 UNL     1      22.533   2.586  49.855  1.00  0.00     0.034 A 
HETATM   22  C12 UNL     1      21.866   3.734  50.173  1.00  0.00     0.029 A 
HETATM   23  C13 UNL     1      22.607   4.894  50.343  1.00  0.00     0.004 A 
HETATM   24  C14 UNL     1      23.996   4.885  50.192  1.00  0.00     0.019 A 
HETATM   25  C15 UNL     1      24.663   3.699  49.866  1.00  0.00     0.013 A 
HETATM   26 BR1  UNL     1      26.573   3.697  49.661  1.00  0.00    -0.051 Br
HETATM   27  C16 UNL     1      23.923   2.567  49.703  1.00  0.00     0.048 A 
ENDBRANCH  19  21
ENDBRANCH  16  19
ENDBRANCH   6   8
ENDBRANCH   3   4
TORSDOF 4
ENDMDL
MODEL 8
REMARK VINA RESULT:      -7.0      5.187     10.071
REMARK  4 active torsions:
REMARK  status: ('A' for Active; 'I' for Inactive)
REMARK    1  A    between atoms: C3_3  and  C4_4 
REMARK       I    between atoms: C4_4  and  N1_6 
REMARK    2  A    between atoms: N1_6  and  C5_7 
REMARK    3  A    between atoms: C10_14  and  N4_15 
REMARK    4  A    between atoms: N4_15  and  C11_16 
ROOT
HETATM    1  C1  UNL     1      24.400   2.417  50.412  1.00  0.00     0.112 C 
HETATM    2  C2  UNL     1      25.037   3.689  50.049  1.00  0.00    -0.101 C 
HETATM    3  C3  UNL     1      25.563   4.737  49.732  1.00  0.00    -0.006 C 
ENDROOT
BRANCH   3   4
HETATM    4  C4  UNL     1      26.209   5.975  49.344  1.00  0.00     0.302 C 
HETATM    5  O1  UNL     1      26.985   5.932  48.331  1.00  0.00    -0.258 OA
HETATM    6  N1  UNL     1      25.983   7.191  50.070  1.00  0.00    -0.302 N 
HETATM    7  H4  UNL     1      25.335   7.096  50.869  1.00  0.00     0.171 HD
BRANCH   6   8
HETATM    8  C5  UNL     1      26.663   8.385  49.622  1.00  0.00     0.105 C 
HETATM    9  C6  UNL     1      26.163   9.477  49.074  1.00  0.00     0.050 C 
HETATM   10  C7  UNL     1      26.979  10.604  48.687  1.00  0.00     0.033 C 
HETATM   11  C8  UNL     1      28.289  10.622  48.875  1.00  0.00     0.066 C 
HETATM   12  N2  UNL     1      29.045  11.748  48.451  1.00  0.00    -0.244 NA
HETATM   13  C17 UNL     1      28.860   9.490  49.618  1.00  0.00     0.205 C 
HETATM   14  C9  UNL     1      30.354  11.608  48.440  1.00  0.00     0.235 C 
HETATM   15  N3  UNL     1      30.947  10.391  48.858  1.00  0.00    -0.226 NA
HETATM   16  C10 UNL     1      30.300   9.369  49.293  1.00  0.00     0.134 C 
HETATM   17  N5  UNL     1      28.099   8.308  49.685  1.00  0.00    -0.359 N 
HETATM   18  H14 UNL     1      28.568   7.379  49.780  1.00  0.00     0.162 HD
BRANCH  16  19
HETATM   19  N4  UNL     1      30.865   8.147  49.694  1.00  0.00    -0.342 N 
HETATM   20  H8  UNL     1      30.902   7.715  50.640  1.00  0.00     0.167 HD
BRANCH  19  21
HETATM   21  C11 UNL     1      31.493   7.363  48.653  1.00  0.00     0.034 A 
HETATM   22  C12 UNL     1      30.964   7.106  47.421  1.00  0.00     0.029 A 
HETATM   23  C13 UNL     1      31.704   6.332  46.540  1.00  0.00     0.004 A 
HETATM   24  C14 UNL     1      32.956   5.831  46.905  1.00  0.00     0.019 A 
HETATM   25  C15 UNL     1      33.484   6.104  48.171  1.00  0.00     0.013 A 
HETATM   26 BR1  UNL     1      35.206   5.411  48.664  1.00  0.00    -0.051 Br
HETATM   27  C16 UNL     1      32.746   6.866  49.027  1.00  0.00     0.048 A 
ENDBRANCH  19  21
ENDBRANCH  16  19
ENDBRANCH   6   8
ENDBRANCH   3   4
TORSDOF 4
ENDMDL
MODEL 9
REMARK VINA RESULT:      -6.9      3.050      7.113
REMARK  4 active torsions:
REMARK  status: ('A' for Active; 'I' for Inactive)
REMARK    1  A    between atoms: C3_3  and  C4_4 
REMARK       I    between atoms: C4_4  and  N1_6 
REMARK    2  A    between atoms: N1_6  and  C5_7 
REMARK    3  A    between atoms: C10_14  and  N4_15 
REMARK    4  A    between atoms: N4_15  and  C11_16 
ROOT
HETATM    1  C1  UNL     1      17.640  -1.334  53.107  1.00  0.00     0.112 C 
HETATM    2  C2  UNL     1      18.614  -0.490  52.404  1.00  0.00    -0.101 C 
HETATM    3  C3  UNL     1      19.407   0.218  51.817  1.00  0.00    -0.006 C 
ENDROOT
BRANCH   3   4
HETATM    4  C4  UNL     1      20.344   1.057  51.096  1.00  0.00     0.302 C 
HETATM    5  O1  UNL     1      21.474   0.542  50.798  1.00  0.00    -0.258 OA
HETATM    6  N1  UNL     1      20.011   2.405  50.735  1.00  0.00    -0.302 N 
HETATM    7  H4  UNL     1      19.068   2.705  51.032  1.00  0.00     0.171 HD
BRANCH   6   8
HETATM    8  C5  UNL     1      20.998   3.178  50.016  1.00  0.00     0.105 C 
HETATM    9  C6  UNL     1      21.009   3.550  48.750  1.00  0.00     0.050 C 
HETATM   10  C7  UNL     1      22.071   4.341  48.174  1.00  0.00     0.033 C 
HETATM   11  C8  UNL     1      23.101   4.763  48.890  1.00  0.00     0.066 C 
HETATM   12  N2  UNL     1      24.131   5.517  48.265  1.00  0.00    -0.244 NA
HETATM   13  C17 UNL     1      23.048   4.498  50.335  1.00  0.00     0.205 C 
HETATM   14  C9  UNL     1      25.234   5.698  48.961  1.00  0.00     0.235 C 
HETATM   15  N3  UNL     1      25.347   5.173  50.272  1.00  0.00    -0.226 NA
HETATM   16  C10 UNL     1      24.422   4.528  50.888  1.00  0.00     0.134 C 
HETATM   17  N5  UNL     1      22.183   3.481  50.776  1.00  0.00    -0.359 N 
HETATM   18  H14 UNL     1      22.394   2.944  51.648  1.00  0.00     0.162 HD
BRANCH  16  19
HETATM   19  N4  UNL     1      24.518   3.982  52.179  1.00  0.00    -0.342 N 
HETATM   20  H8  UNL     1      24.294   4.416  53.098  1.00  0.00     0.167 HD
BRANCH  19  21
HETATM   21  C11 UNL     1      25.000   2.621  52.261  1.00  0.00     0.034 A 
HETATM   22  C12 UNL     1      26.203   2.173  51.795  1.00  0.00     0.029 A 
HETATM   23  C13 UNL     1      26.507   0.830  51.958  1.00  0.00     0.004 A 
HETATM   24  C14 UNL     1      25.607  -0.038  52.582  1.00  0.00     0.019 A 
HETATM   25  C15 UNL     1      24.380   0.437  53.054  1.00  0.00     0.013 A 
HETATM   26 BR1  UNL     1      23.149  -0.763  53.910  1.00  0.00    -0.051 Br
HETATM   27  C16 UNL     1      24.094   1.759  52.887  1.00  0.00     0.048 A 
ENDBRANCH  19  21
ENDBRANCH  16  19
ENDBRANCH   6   8
ENDBRANCH   3   4
TORSDOF 4
ENDMDL
