MODEL 1
REMARK VINA RESULT:      -7.6      0.000      0.000
REMARK  2 active torsions:
REMARK  status: ('A' for Active; 'I' for Inactive)
REMARK    1  A    between atoms: O1_2  and  C2_3 
REMARK    2  A    between atoms: C7_8  and  O2_9 
ROOT
HETATM    1  C2  UNL     1      21.575   3.410  52.047  1.00  0.00     0.103 A 
HETATM    2  C3  UNL     1      21.861   2.088  52.296  1.00  0.00     0.071 A 
HETATM    3  C4  UNL     1      23.064   1.558  52.703  1.00  0.00     0.069 A 
HETATM    4  C5  UNL     1      24.076   2.516  52.865  1.00  0.00     0.022 A 
HETATM    5  C6  UNL     1      23.825   3.853  52.625  1.00  0.00     0.055 A 
HETATM    6  C7  UNL     1      22.591   4.307  52.220  1.00  0.00     0.102 A 
HETATM    7  C9  UNL     1      25.214   1.904  53.241  1.00  0.00     0.069 C 
HETATM    8  N1  UNL     1      26.511   2.465  53.504  1.00  0.00    -0.353 N 
HETATM    9  C10 UNL     1      27.478   1.379  53.511  1.00  0.00     0.079 C 
HETATM   10  C11 UNL     1      28.759   1.653  53.682  1.00  0.00     0.149 C 
HETATM   11  N2  UNL     1      29.716   0.575  53.689  1.00  0.00    -0.256 NA
HETATM   12  C12 UNL     1      29.407  -0.636  53.600  1.00  0.00     0.087 C 
HETATM   13  C13 UNL     1      28.202  -1.026  53.291  1.00  0.00     0.067 C 
HETATM   14  C14 UNL     1      27.130  -0.054  53.339  1.00  0.00     0.084 C 
HETATM   15  N3  UNL     1      25.875  -0.478  53.226  1.00  0.00    -0.254 NA
HETATM   16  C15 UNL     1      24.853   0.496  53.329  1.00  0.00     0.281 C 
HETATM   17  N4  UNL     1      23.546   0.348  52.871  1.00  0.00    -0.255 NA
HETATM   18  H9  UNL     1      26.735   3.442  53.658  1.00  0.00     0.166 HD
ENDROOT
BRANCH   1  19
HETATM   19  O1  UNL     1      20.333   3.827  51.643  1.00  0.00    -0.353 OA
HETATM   20  C1  UNL     1      19.170   3.055  51.757  1.00  0.00     0.210 C 
ENDBRANCH   1  19
BRANCH   6  21
HETATM   21  O2  UNL     1      22.315   5.641  51.972  1.00  0.00    -0.353 OA
HETATM   22  C8  UNL     1      23.051   6.291  50.947  1.00  0.00     0.210 C 
ENDBRANCH   6  21
TORSDOF 2
ENDMDL
MODEL 2
REMARK VINA RESULT:      -7.6      3.595      6.929
REMARK  2 active torsions:
REMARK  status: ('A' for Active; 'I' for Inactive)
REMARK    1  A    between atoms: O1_2  and  C2_3 
REMARK    2  A    between atoms: C7_8  and  O2_9 
ROOT
HETATM    1  C2  UNL     1      26.425   0.526  54.380  1.00  0.00     0.103 A 
HETATM    2  C3  UNL     1      25.504  -0.343  54.918  1.00  0.00     0.071 A 
HETATM    3  C4  UNL     1      24.233  -0.600  54.455  1.00  0.00     0.069 A 
HETATM    4  C5  UNL     1      23.891   0.131  53.309  1.00  0.00     0.022 A 
HETATM    5  C6  UNL     1      24.791   1.012  52.741  1.00  0.00     0.055 A 
HETATM    6  C7  UNL     1      26.048   1.216  53.263  1.00  0.00     0.102 A 
HETATM    7  C9  UNL     1      22.630  -0.169  52.947  1.00  0.00     0.069 C 
HETATM    8  N1  UNL     1      21.844   0.342  51.858  1.00  0.00    -0.353 N 
HETATM    9  C10 UNL     1      20.453  -0.004  52.106  1.00  0.00     0.079 C 
HETATM   10  C11 UNL     1      19.523   0.407  51.261  1.00  0.00     0.149 C 
HETATM   11  N2  UNL     1      18.146   0.062  51.509  1.00  0.00    -0.256 NA
HETATM   12  C12 UNL     1      17.764  -0.663  52.456  1.00  0.00     0.087 C 
HETATM   13  C13 UNL     1      18.559  -1.012  53.429  1.00  0.00     0.067 C 
HETATM   14  C14 UNL     1      19.982  -0.805  53.263  1.00  0.00     0.084 C 
HETATM   15  N3  UNL     1      20.815  -1.338  54.151  1.00  0.00    -0.254 NA
HETATM   16  C15 UNL     1      22.201  -1.157  53.927  1.00  0.00     0.281 C 
HETATM   17  N4  UNL     1      23.200  -1.284  54.890  1.00  0.00    -0.255 NA
HETATM   18  H9  UNL     1      22.179   0.856  51.051  1.00  0.00     0.166 HD
ENDROOT
BRANCH   1  19
HETATM   19  O1  UNL     1      27.669   0.704  54.927  1.00  0.00    -0.353 OA
HETATM   20  C1  UNL     1      28.788  -0.074  54.605  1.00  0.00     0.210 C 
ENDBRANCH   1  19
BRANCH   6  21
HETATM   21  O2  UNL     1      26.967   2.093  52.712  1.00  0.00    -0.353 OA
HETATM   22  C8  UNL     1      26.751   2.529  51.379  1.00  0.00     0.210 C 
ENDBRANCH   6  21
TORSDOF 2
ENDMDL
MODEL 3
REMARK VINA RESULT:      -7.5      3.173      6.821
REMARK  2 active torsions:
REMARK  status: ('A' for Active; 'I' for Inactive)
REMARK    1  A    between atoms: O1_2  and  C2_3 
REMARK    2  A    between atoms: C7_8  and  O2_9 
ROOT
HETATM    1  C2  UNL     1      26.677   0.135  54.159  1.00  0.00     0.103 A 
HETATM    2  C3  UNL     1      25.590  -0.628  53.800  1.00  0.00     0.071 A 
HETATM    3  C4  UNL     1      24.402  -0.184  53.264  1.00  0.00     0.069 A 
HETATM    4  C5  UNL     1      24.346   1.206  53.088  1.00  0.00     0.022 A 
HETATM    5  C6  UNL     1      25.419   2.003  53.437  1.00  0.00     0.055 A 
HETATM    6  C7  UNL     1      26.578   1.484  53.968  1.00  0.00     0.102 A 
HETATM    7  C9  UNL     1      23.146   1.545  52.584  1.00  0.00     0.069 C 
HETATM    8  N1  UNL     1      22.624   2.844  52.259  1.00  0.00    -0.353 N 
HETATM    9  C10 UNL     1      21.183   2.723  52.102  1.00  0.00     0.079 C 
HETATM   10  C11 UNL     1      20.466   3.805  51.850  1.00  0.00     0.149 C 
HETATM   11  N2  UNL     1      19.038   3.682  51.695  1.00  0.00    -0.256 NA
HETATM   12  C12 UNL     1      18.420   2.592  51.725  1.00  0.00     0.087 C 
HETATM   13  C13 UNL     1      18.990   1.481  52.102  1.00  0.00     0.067 C 
HETATM   14  C14 UNL     1      20.433   1.447  52.204  1.00  0.00     0.084 C 
HETATM   15  N3  UNL     1      21.035   0.275  52.386  1.00  0.00    -0.254 NA
HETATM   16  C15 UNL     1      22.450   0.276  52.430  1.00  0.00     0.281 C 
HETATM   17  N4  UNL     1      23.242  -0.730  52.978  1.00  0.00    -0.255 NA
HETATM   18  H9  UNL     1      23.148   3.705  52.153  1.00  0.00     0.166 HD
ENDROOT
BRANCH   1  19
HETATM   19  O1  UNL     1      27.815  -0.417  54.687  1.00  0.00    -0.353 OA
HETATM   20  C1  UNL     1      28.884  -0.897  53.920  1.00  0.00     0.210 C 
ENDBRANCH   1  19
BRANCH   6  21
HETATM   21  O2  UNL     1      27.666   2.261  54.326  1.00  0.00    -0.353 OA
HETATM   22  C8  UNL     1      28.626   2.559  53.324  1.00  0.00     0.210 C 
ENDBRANCH   6  21
TORSDOF 2
ENDMDL
MODEL 4
REMARK VINA RESULT:      -7.5      3.641      6.279
REMARK  2 active torsions:
REMARK  status: ('A' for Active; 'I' for Inactive)
REMARK    1  A    between atoms: O1_2  and  C2_3 
REMARK    2  A    between atoms: C7_8  and  O2_9 
ROOT
HETATM    1  C2  UNL     1      25.640   0.073  54.109  1.00  0.00     0.103 A 
HETATM    2  C3  UNL     1      24.624   0.246  53.198  1.00  0.00     0.071 A 
HETATM    3  C4  UNL     1      24.572   1.165  52.174  1.00  0.00     0.069 A 
HETATM    4  C5  UNL     1      25.703   1.991  52.099  1.00  0.00     0.022 A 
HETATM    5  C6  UNL     1      26.742   1.846  52.997  1.00  0.00     0.055 A 
HETATM    6  C7  UNL     1      26.721   0.900  53.996  1.00  0.00     0.102 A 
HETATM    7  C9  UNL     1      25.551   2.866  51.088  1.00  0.00     0.069 C 
HETATM    8  N1  UNL     1      26.429   3.913  50.644  1.00  0.00    -0.353 N 
HETATM    9  C10 UNL     1      25.669   4.800  49.777  1.00  0.00     0.079 C 
HETATM   10  C11 UNL     1      26.253   5.878  49.282  1.00  0.00     0.149 C 
HETATM   11  N2  UNL     1      25.498   6.756  48.424  1.00  0.00    -0.256 NA
HETATM   12  C12 UNL     1      24.320   6.536  48.058  1.00  0.00     0.087 C 
HETATM   13  C13 UNL     1      23.594   5.590  48.584  1.00  0.00     0.067 C 
HETATM   14  C14 UNL     1      24.252   4.586  49.393  1.00  0.00     0.084 C 
HETATM   15  N3  UNL     1      23.565   3.510  49.764  1.00  0.00    -0.254 NA
HETATM   16  C15 UNL     1      24.258   2.527  50.511  1.00  0.00     0.281 C 
HETATM   17  N4  UNL     1      23.665   1.548  51.305  1.00  0.00    -0.255 NA
HETATM   18  H9  UNL     1      27.408   4.032  50.880  1.00  0.00     0.166 HD
ENDROOT
BRANCH   1  19
HETATM   19  O1  UNL     1      25.585  -0.880  55.093  1.00  0.00    -0.353 OA
HETATM   20  C1  UNL     1      24.400  -1.312  55.702  1.00  0.00     0.210 C 
ENDBRANCH   1  19
BRANCH   6  21
HETATM   21  O2  UNL     1      27.750   0.735  54.909  1.00  0.00    -0.353 OA
HETATM   22  C8  UNL     1      28.933   0.089  54.465  1.00  0.00     0.210 C 
ENDBRANCH   6  21
TORSDOF 2
ENDMDL
MODEL 5
REMARK VINA RESULT:      -7.3      3.787      5.907
REMARK  2 active torsions:
REMARK  status: ('A' for Active; 'I' for Inactive)
REMARK    1  A    between atoms: O1_2  and  C2_3 
REMARK    2  A    between atoms: C7_8  and  O2_9 
ROOT
HETATM    1  C2  UNL     1      24.101  -0.102  53.511  1.00  0.00     0.103 A 
HETATM    2  C3  UNL     1      23.324   0.900  52.976  1.00  0.00     0.071 A 
HETATM    3  C4  UNL     1      23.699   1.833  52.037  1.00  0.00     0.069 A 
HETATM    4  C5  UNL     1      25.030   1.705  51.614  1.00  0.00     0.022 A 
HETATM    5  C6  UNL     1      25.839   0.711  52.128  1.00  0.00     0.055 A 
HETATM    6  C7  UNL     1      25.390  -0.189  53.067  1.00  0.00     0.102 A 
HETATM    7  C9  UNL     1      25.309   2.670  50.718  1.00  0.00     0.069 C 
HETATM    8  N1  UNL     1      26.539   2.951  50.030  1.00  0.00    -0.353 N 
HETATM    9  C10 UNL     1      26.443   4.288  49.466  1.00  0.00     0.079 C 
HETATM   10  C11 UNL     1      27.481   4.797  48.825  1.00  0.00     0.149 C 
HETATM   11  N2  UNL     1      27.384   6.123  48.268  1.00  0.00    -0.256 NA
HETATM   12  C12 UNL     1      26.344   6.821  48.298  1.00  0.00     0.087 C 
HETATM   13  C13 UNL     1      25.306   6.493  49.016  1.00  0.00     0.067 C 
HETATM   14  C14 UNL     1      25.239   5.151  49.556  1.00  0.00     0.084 C 
HETATM   15  N3  UNL     1      24.103   4.741  50.112  1.00  0.00    -0.254 NA
HETATM   16  C15 UNL     1      24.060   3.406  50.583  1.00  0.00     0.281 C 
HETATM   17  N4  UNL     1      23.151   2.905  51.511  1.00  0.00    -0.255 NA
HETATM   18  H9  UNL     1      27.343   2.341  49.941  1.00  0.00     0.166 HD
ENDROOT
BRANCH   1  19
HETATM   19  O1  UNL     1      23.620  -0.981  54.446  1.00  0.00    -0.353 OA
HETATM   20  C1  UNL     1      22.302  -0.979  54.920  1.00  0.00     0.210 C 
ENDBRANCH   1  19
BRANCH   6  21
HETATM   21  O2  UNL     1      26.182  -1.193  53.599  1.00  0.00    -0.353 OA
HETATM   22  C8  UNL     1      26.986  -1.946  52.704  1.00  0.00     0.210 C 
ENDBRANCH   6  21
TORSDOF 2
ENDMDL
MODEL 6
REMARK VINA RESULT:      -7.3      1.596      3.089
REMARK  2 active torsions:
REMARK  status: ('A' for Active; 'I' for Inactive)
REMARK    1  A    between atoms: O1_2  and  C2_3 
REMARK    2  A    between atoms: C7_8  and  O2_9 
ROOT
HETATM    1  C2  UNL     1      21.272   2.223  52.646  1.00  0.00     0.103 A 
HETATM    2  C3  UNL     1      22.448   2.931  52.564  1.00  0.00     0.071 A 
HETATM    3  C4  UNL     1      23.727   2.422  52.543  1.00  0.00     0.069 A 
HETATM    4  C5  UNL     1      23.779   1.023  52.618  1.00  0.00     0.022 A 
HETATM    5  C6  UNL     1      22.618   0.279  52.700  1.00  0.00     0.055 A 
HETATM    6  C7  UNL     1      21.372   0.862  52.715  1.00  0.00     0.102 A 
HETATM    7  C9  UNL     1      25.063   0.622  52.614  1.00  0.00     0.069 C 
HETATM    8  N1  UNL     1      25.608  -0.705  52.695  1.00  0.00    -0.353 N 
HETATM    9  C10 UNL     1      27.021  -0.592  53.023  1.00  0.00     0.079 C 
HETATM   10  C11 UNL     1      27.734  -1.690  53.205  1.00  0.00     0.149 C 
HETATM   11  N2  UNL     1      29.133  -1.575  53.530  1.00  0.00    -0.256 NA
HETATM   12  C12 UNL     1      29.750  -0.487  53.597  1.00  0.00     0.087 C 
HETATM   13  C13 UNL     1      29.136   0.663  53.576  1.00  0.00     0.067 C 
HETATM   14  C14 UNL     1      27.746   0.694  53.173  1.00  0.00     0.084 C 
HETATM   15  N3  UNL     1      27.169   1.871  52.951  1.00  0.00    -0.254 NA
HETATM   16  C15 UNL     1      25.825   1.859  52.509  1.00  0.00     0.281 C 
HETATM   17  N4  UNL     1      24.937   2.929  52.588  1.00  0.00    -0.255 NA
HETATM   18  H9  UNL     1      25.114  -1.579  52.554  1.00  0.00     0.166 HD
ENDROOT
BRANCH   1  19
HETATM   19  O1  UNL     1      20.047   2.838  52.659  1.00  0.00    -0.353 OA
HETATM   20  C1  UNL     1      19.516   3.554  51.579  1.00  0.00     0.210 C 
ENDBRANCH   1  19
BRANCH   6  21
HETATM   21  O2  UNL     1      20.194   0.138  52.798  1.00  0.00    -0.353 OA
HETATM   22  C8  UNL     1      20.134  -0.925  53.736  1.00  0.00     0.210 C 
ENDBRANCH   6  21
TORSDOF 2
ENDMDL
MODEL 7
REMARK VINA RESULT:      -7.2      3.569      7.000
REMARK  2 active torsions:
REMARK  status: ('A' for Active; 'I' for Inactive)
REMARK    1  A    between atoms: O1_2  and  C2_3 
REMARK    2  A    between atoms: C7_8  and  O2_9 
ROOT
HETATM    1  C2  UNL     1      27.378   0.025  53.652  1.00  0.00     0.103 A 
HETATM    2  C3  UNL     1      27.668   0.889  52.621  1.00  0.00     0.071 A 
HETATM    3  C4  UNL     1      26.801   1.751  51.988  1.00  0.00     0.069 A 
HETATM    4  C5  UNL     1      25.491   1.702  52.488  1.00  0.00     0.022 A 
HETATM    5  C6  UNL     1      25.165   0.847  53.522  1.00  0.00     0.055 A 
HETATM    6  C7  UNL     1      26.090   0.013  54.106  1.00  0.00     0.102 A 
HETATM    7  C9  UNL     1      24.717   2.558  51.796  1.00  0.00     0.069 C 
HETATM    8  N1  UNL     1      23.313   2.835  51.931  1.00  0.00    -0.353 N 
HETATM    9  C10 UNL     1      22.878   3.541  50.736  1.00  0.00     0.079 C 
HETATM   10  C11 UNL     1      21.602   3.861  50.602  1.00  0.00     0.149 C 
HETATM   11  N2  UNL     1      21.173   4.561  49.417  1.00  0.00    -0.256 NA
HETATM   12  C12 UNL     1      21.948   4.947  48.511  1.00  0.00     0.087 C 
HETATM   13  C13 UNL     1      23.196   4.574  48.459  1.00  0.00     0.067 C 
HETATM   14  C14 UNL     1      23.776   3.942  49.625  1.00  0.00     0.084 C 
HETATM   15  N3  UNL     1      25.090   3.744  49.660  1.00  0.00    -0.254 NA
HETATM   16  C15 UNL     1      25.626   3.171  50.838  1.00  0.00     0.281 C 
HETATM   17  N4  UNL     1      26.863   2.539  50.940  1.00  0.00    -0.255 NA
HETATM   18  H9  UNL     1      22.714   2.591  52.711  1.00  0.00     0.166 HD
ENDROOT
BRANCH   1  19
HETATM   19  O1  UNL     1      28.327  -0.793  54.208  1.00  0.00    -0.353 OA
HETATM   20  C1  UNL     1      29.674  -0.806  53.827  1.00  0.00     0.210 C 
ENDBRANCH   1  19
BRANCH   6  21
HETATM   21  O2  UNL     1      25.787  -0.853  55.144  1.00  0.00    -0.353 OA
HETATM   22  C8  UNL     1      24.424  -1.188  55.350  1.00  0.00     0.210 C 
ENDBRANCH   6  21
TORSDOF 2
ENDMDL
MODEL 8
REMARK VINA RESULT:      -7.0      3.309      5.162
REMARK  2 active torsions:
REMARK  status: ('A' for Active; 'I' for Inactive)
REMARK    1  A    between atoms: O1_2  and  C2_3 
REMARK    2  A    between atoms: C7_8  and  O2_9 
ROOT
HETATM    1  C2  UNL     1      22.710  -0.187  53.380  1.00  0.00     0.103 A 
HETATM    2  C3  UNL     1      24.037  -0.146  53.018  1.00  0.00     0.071 A 
HETATM    3  C4  UNL     1      24.702   0.894  52.408  1.00  0.00     0.069 A 
HETATM    4  C5  UNL     1      23.890   2.008  52.148  1.00  0.00     0.022 A 
HETATM    5  C6  UNL     1      22.554   2.002  52.498  1.00  0.00     0.055 A 
HETATM    6  C7  UNL     1      21.959   0.921  53.108  1.00  0.00     0.102 A 
HETATM    7  C9  UNL     1      24.619   2.958  51.533  1.00  0.00     0.069 C 
HETATM    8  N1  UNL     1      24.218   4.253  51.058  1.00  0.00    -0.353 N 
HETATM    9  C10 UNL     1      25.250   4.739  50.155  1.00  0.00     0.079 C 
HETATM   10  C11 UNL     1      25.082   5.899  49.543  1.00  0.00     0.149 C 
HETATM   11  N2  UNL     1      26.105   6.378  48.649  1.00  0.00    -0.256 NA
HETATM   12  C12 UNL     1      27.193   5.790  48.449  1.00  0.00     0.087 C 
HETATM   13  C13 UNL     1      27.418   4.580  48.880  1.00  0.00     0.067 C 
HETATM   14  C14 UNL     1      26.512   4.017  49.857  1.00  0.00     0.084 C 
HETATM   15  N3  UNL     1      26.841   2.875  50.453  1.00  0.00    -0.254 NA
HETATM   16  C15 UNL     1      25.953   2.382  51.440  1.00  0.00     0.281 C 
HETATM   17  N4  UNL     1      25.898   1.067  51.894  1.00  0.00    -0.255 NA
HETATM   18  H9  UNL     1      23.371   4.757  51.295  1.00  0.00     0.166 HD
ENDROOT
BRANCH   1  19
HETATM   19  O1  UNL     1      22.151  -1.282  53.985  1.00  0.00    -0.353 OA
HETATM   20  C1  UNL     1      22.476  -1.717  55.276  1.00  0.00     0.210 C 
ENDBRANCH   1  19
BRANCH   6  21
HETATM   21  O2  UNL     1      20.622   0.891  53.468  1.00  0.00    -0.353 OA
HETATM   22  C8  UNL     1      19.680   0.496  52.483  1.00  0.00     0.210 C 
ENDBRANCH   6  21
TORSDOF 2
ENDMDL
MODEL 9
REMARK VINA RESULT:      -7.0      2.138      2.159
REMARK  2 active torsions:
REMARK  status: ('A' for Active; 'I' for Inactive)
REMARK    1  A    between atoms: O1_2  and  C2_3 
REMARK    2  A    between atoms: C7_8  and  O2_9 
ROOT
HETATM    1  C2  UNL     1      21.927   2.280  49.304  1.00  0.00     0.103 A 
HETATM    2  C3  UNL     1      22.005   1.387  50.347  1.00  0.00     0.071 A 
HETATM    3  C4  UNL     1      23.016   1.275  51.275  1.00  0.00     0.069 A 
HETATM    4  C5  UNL     1      24.057   2.197  51.088  1.00  0.00     0.022 A 
HETATM    5  C6  UNL     1      24.012   3.109  50.052  1.00  0.00     0.055 A 
HETATM    6  C7  UNL     1      22.963   3.159  49.163  1.00  0.00     0.102 A 
HETATM    7  C9  UNL     1      25.004   1.997  52.023  1.00  0.00     0.069 C 
HETATM    8  N1  UNL     1      26.254   2.678  52.218  1.00  0.00    -0.353 N 
HETATM    9  C10 UNL     1      27.072   1.868  53.109  1.00  0.00     0.079 C 
HETATM   10  C11 UNL     1      28.300   2.264  53.399  1.00  0.00     0.149 C 
HETATM   11  N2  UNL     1      29.108   1.460  54.281  1.00  0.00    -0.256 NA
HETATM   12  C12 UNL     1      28.703   0.420  54.851  1.00  0.00     0.087 C 
HETATM   13  C13 UNL     1      27.570  -0.145  54.540  1.00  0.00     0.067 C 
HETATM   14  C14 UNL     1      26.626   0.599  53.735  1.00  0.00     0.084 C 
HETATM   15  N3  UNL     1      25.395   0.120  53.583  1.00  0.00    -0.254 NA
HETATM   16  C15 UNL     1      24.485   0.902  52.831  1.00  0.00     0.281 C 
HETATM   17  N4  UNL     1      23.315   0.435  52.239  1.00  0.00    -0.255 NA
HETATM   18  H9  UNL     1      26.538   3.564  51.817  1.00  0.00     0.166 HD
ENDROOT
BRANCH   1  19
HETATM   19  O1  UNL     1      20.866   2.300  48.437  1.00  0.00    -0.353 OA
HETATM   20  C1  UNL     1      19.569   2.689  48.792  1.00  0.00     0.210 C 
ENDBRANCH   1  19
BRANCH   6  21
HETATM   21  O2  UNL     1      22.895   4.063  48.115  1.00  0.00    -0.353 OA
HETATM   22  C8  UNL     1      22.822   5.443  48.436  1.00  0.00     0.210 C 
ENDBRANCH   6  21
TORSDOF 2
ENDMDL
