MODEL 1
REMARK VINA RESULT:      -6.9      0.000      0.000
REMARK  11 active torsions:
REMARK  status: ('A' for Active; 'I' for Inactive)
REMARK    1  A    between atoms: C2_2  and  N1_3 
REMARK    2  A    between atoms: N1_3  and  C3_4 
REMARK    3  A    between atoms: N1_3  and  C5_6 
REMARK    4  A    between atoms: C5_6  and  C6_7 
REMARK    5  A    between atoms: C7_8  and  C8_9 
REMARK    6  A    between atoms: C8_9  and  N2_10 
REMARK    7  A    between atoms: C8_9  and  C9_11 
REMARK    8  A    between atoms: C9_11  and  N3_12 
REMARK    9  A    between atoms: C10_13  and  C11_14 
REMARK   10  A    between atoms: C11_14  and  C12_15 
REMARK   11  A    between atoms: C13_16  and  C14_18 
ROOT
HETATM    1  C9  UNL     1      24.906   4.108  49.632  1.00  0.00     0.196 C 
ENDROOT
BRANCH   1   2
HETATM    2  C8  UNL     1      26.362   3.630  49.692  1.00  0.00     0.316 C 
BRANCH   2   3
HETATM    3  C7  UNL     1      26.580   2.853  50.920  1.00  0.00    -0.068 C 
HETATM    4  C6  UNL     1      26.762   2.234  51.938  1.00  0.00    -0.074 C 
BRANCH   4   5
HETATM    5  C5  UNL     1      26.985   1.503  53.188  1.00  0.00     0.365 C 
BRANCH   5   6
HETATM    6  N1  UNL     1      27.723   0.306  52.860  1.00  0.00     0.098 N 
BRANCH   6   7
HETATM    7  C2  UNL     1      26.909  -0.555  52.084  1.00  0.00     0.269 C 
HETATM    8  C1  UNL     1      26.861  -1.979  52.581  1.00  0.00     0.037 C 
ENDBRANCH   6   7
BRANCH   6   9
HETATM    9  C3  UNL     1      28.473  -0.262  53.918  1.00  0.00     0.269 C 
HETATM   10  C4  UNL     1      29.888  -0.539  53.544  1.00  0.00     0.037 C 
ENDBRANCH   6   9
ENDBRANCH   5   6
ENDBRANCH   4   5
ENDBRANCH   2   3
BRANCH   2  11
HETATM   11  N2  UNL     1      27.211   4.796  49.606  1.00  0.00     0.096 N 
HETATM   12  H14 UNL     1      28.051   4.614  48.984  1.00  0.00     0.314 HD
HETATM   13  H15 UNL     1      27.627   5.031  50.557  1.00  0.00     0.314 HD
ENDBRANCH   2  11
ENDBRANCH   1   2
BRANCH   1  14
HETATM   14  N3  UNL     1      24.591   5.061  50.627  1.00  0.00    -0.302 NA
HETATM   15  C10 UNL     1      23.428   5.038  51.163  1.00  0.00     0.087 C 
BRANCH  15  16
HETATM   16  C11 UNL     1      22.078   4.437  51.278  1.00  0.00     0.075 C 
BRANCH  16  17
HETATM   17  C12 UNL     1      22.200   3.331  52.266  1.00  0.00     0.003 C 
HETATM   18  C13 UNL     1      22.250   2.067  51.880  1.00  0.00     0.040 C 
HETATM   19 CL1  UNL     1      22.168   1.767  50.163  1.00  0.00    -0.084 Cl
BRANCH  18  20
HETATM   20  C14 UNL     1      22.376   0.997  52.857  1.00  0.00    -0.015 A 
HETATM   21  C15 UNL     1      21.303   0.596  53.621  1.00  0.00     0.016 A 
HETATM   22  C16 UNL     1      21.403  -0.425  54.573  1.00  0.00     0.043 A 
HETATM   23  C17 UNL     1      22.607  -1.065  54.769  1.00  0.00     0.116 A 
HETATM   24  F1  UNL     1      22.677  -2.042  55.689  1.00  0.00    -0.206 F 
HETATM   25  C18 UNL     1      23.709  -0.679  54.007  1.00  0.00     0.043 A 
HETATM   26  C19 UNL     1      23.560   0.335  53.079  1.00  0.00     0.016 A 
ENDBRANCH  18  20
ENDBRANCH  16  17
ENDBRANCH  15  16
ENDBRANCH   1  14
TORSDOF 11
ENDMDL
MODEL 2
REMARK VINA RESULT:      -6.7      4.467      6.235
REMARK  11 active torsions:
REMARK  status: ('A' for Active; 'I' for Inactive)
REMARK    1  A    between atoms: C2_2  and  N1_3 
REMARK    2  A    between atoms: N1_3  and  C3_4 
REMARK    3  A    between atoms: N1_3  and  C5_6 
REMARK    4  A    between atoms: C5_6  and  C6_7 
REMARK    5  A    between atoms: C7_8  and  C8_9 
REMARK    6  A    between atoms: C8_9  and  N2_10 
REMARK    7  A    between atoms: C8_9  and  C9_11 
REMARK    8  A    between atoms: C9_11  and  N3_12 
REMARK    9  A    between atoms: C10_13  and  C11_14 
REMARK   10  A    between atoms: C11_14  and  C12_15 
REMARK   11  A    between atoms: C13_16  and  C14_18 
ROOT
HETATM    1  C9  UNL     1      27.684   5.083  48.534  1.00  0.00     0.196 C 
ENDROOT
BRANCH   1   2
HETATM    2  C8  UNL     1      28.682   6.155  48.078  1.00  0.00     0.316 C 
BRANCH   2   3
HETATM    3  C7  UNL     1      30.031   5.577  48.006  1.00  0.00    -0.068 C 
HETATM    4  C6  UNL     1      31.142   5.115  47.928  1.00  0.00    -0.074 C 
BRANCH   4   5
HETATM    5  C5  UNL     1      32.496   4.569  47.815  1.00  0.00     0.365 C 
BRANCH   5   6
HETATM    6  N1  UNL     1      32.502   3.663  46.690  1.00  0.00     0.098 N 
BRANCH   6   7
HETATM    7  C2  UNL     1      32.921   2.379  47.119  1.00  0.00     0.269 C 
HETATM    8  C1  UNL     1      32.047   1.248  46.636  1.00  0.00     0.037 C 
ENDBRANCH   6   7
BRANCH   6   9
HETATM    9  C3  UNL     1      33.052   4.176  45.491  1.00  0.00     0.269 C 
HETATM   10  C4  UNL     1      34.532   4.020  45.417  1.00  0.00     0.037 C 
ENDBRANCH   6   9
ENDBRANCH   5   6
ENDBRANCH   4   5
ENDBRANCH   2   3
BRANCH   2  11
HETATM   11  N2  UNL     1      28.592   7.261  49.002  1.00  0.00     0.096 N 
HETATM   12  H14 UNL     1      29.441   7.892  48.931  1.00  0.00     0.314 HD
HETATM   13  H15 UNL     1      28.599   6.914  50.008  1.00  0.00     0.314 HD
ENDBRANCH   2  11
ENDBRANCH   1   2
BRANCH   1  14
HETATM   14  N3  UNL     1      26.599   5.609  49.271  1.00  0.00    -0.302 NA
HETATM   15  C10 UNL     1      25.682   4.814  49.680  1.00  0.00     0.087 C 
BRANCH  15  16
HETATM   16  C11 UNL     1      25.119   3.447  49.781  1.00  0.00     0.075 C 
BRANCH  16  17
HETATM   17  C12 UNL     1      26.144   2.626  50.481  1.00  0.00     0.003 C 
HETATM   18  C13 UNL     1      25.938   2.168  51.705  1.00  0.00     0.040 C 
HETATM   19 CL1  UNL     1      24.411   2.572  52.447  1.00  0.00    -0.084 Cl
BRANCH  18  20
HETATM   20  C14 UNL     1      26.946   1.361  52.375  1.00  0.00    -0.015 A 
HETATM   21  C15 UNL     1      28.009   1.943  53.028  1.00  0.00     0.016 A 
HETATM   22  C16 UNL     1      28.995   1.187  53.671  1.00  0.00     0.043 A 
HETATM   23  C17 UNL     1      28.920  -0.189  53.664  1.00  0.00     0.116 A 
HETATM   24  F1  UNL     1      29.879  -0.892  54.289  1.00  0.00    -0.206 F 
HETATM   25  C18 UNL     1      27.853  -0.803  53.010  1.00  0.00     0.043 A 
HETATM   26  C19 UNL     1      26.903  -0.013  52.388  1.00  0.00     0.016 A 
ENDBRANCH  18  20
ENDBRANCH  16  17
ENDBRANCH  15  16
ENDBRANCH   1  14
TORSDOF 11
ENDMDL
MODEL 3
REMARK VINA RESULT:      -6.6      2.841      5.210
REMARK  11 active torsions:
REMARK  status: ('A' for Active; 'I' for Inactive)
REMARK    1  A    between atoms: C2_2  and  N1_3 
REMARK    2  A    between atoms: N1_3  and  C3_4 
REMARK    3  A    between atoms: N1_3  and  C5_6 
REMARK    4  A    between atoms: C5_6  and  C6_7 
REMARK    5  A    between atoms: C7_8  and  C8_9 
REMARK    6  A    between atoms: C8_9  and  N2_10 
REMARK    7  A    between atoms: C8_9  and  C9_11 
REMARK    8  A    between atoms: C9_11  and  N3_12 
REMARK    9  A    between atoms: C10_13  and  C11_14 
REMARK   10  A    between atoms: C11_14  and  C12_15 
REMARK   11  A    between atoms: C13_16  and  C14_18 
ROOT
HETATM    1  C9  UNL     1      21.104   1.555  50.110  1.00  0.00     0.196 C 
ENDROOT
BRANCH   1   2
HETATM    2  C8  UNL     1      22.097   1.846  48.978  1.00  0.00     0.316 C 
BRANCH   2   3
HETATM    3  C7  UNL     1      23.095   2.824  49.432  1.00  0.00    -0.068 C 
HETATM    4  C6  UNL     1      23.916   3.633  49.784  1.00  0.00    -0.074 C 
BRANCH   4   5
HETATM    5  C5  UNL     1      24.912   4.628  50.189  1.00  0.00     0.365 C 
BRANCH   5   6
HETATM    6  N1  UNL     1      26.176   3.942  50.318  1.00  0.00     0.098 N 
BRANCH   6   7
HETATM    7  C2  UNL     1      26.955   4.161  49.155  1.00  0.00     0.269 C 
HETATM    8  C1  UNL     1      26.978   5.595  48.684  1.00  0.00     0.037 C 
ENDBRANCH   6   7
BRANCH   6   9
HETATM    9  C3  UNL     1      26.112   2.627  50.837  1.00  0.00     0.269 C 
HETATM   10  C4  UNL     1      27.156   2.356  51.865  1.00  0.00     0.037 C 
ENDBRANCH   6   9
ENDBRANCH   5   6
ENDBRANCH   4   5
ENDBRANCH   2   3
BRANCH   2  11
HETATM   11  N2  UNL     1      21.340   2.302  47.835  1.00  0.00     0.096 N 
HETATM   12  H14 UNL     1      20.330   1.985  47.892  1.00  0.00     0.314 HD
HETATM   13  H15 UNL     1      21.709   1.864  46.939  1.00  0.00     0.314 HD
ENDBRANCH   2  11
ENDBRANCH   1   2
BRANCH   1  14
HETATM   14  N3  UNL     1      21.276   0.276  50.687  1.00  0.00    -0.302 NA
HETATM   15  C10 UNL     1      21.726   0.190  51.883  1.00  0.00     0.087 C 
BRANCH  15  16
HETATM   16  C11 UNL     1      22.217   0.841  53.121  1.00  0.00     0.075 C 
BRANCH  16  17
HETATM   17  C12 UNL     1      23.697   0.684  53.113  1.00  0.00     0.003 C 
HETATM   18  C13 UNL     1      24.299  -0.194  53.898  1.00  0.00     0.040 C 
HETATM   19 CL1  UNL     1      23.273  -1.152  54.934  1.00  0.00    -0.084 Cl
BRANCH  18  20
HETATM   20  C14 UNL     1      25.745  -0.341  53.874  1.00  0.00    -0.015 A 
HETATM   21  C15 UNL     1      26.370  -1.111  52.919  1.00  0.00     0.016 A 
HETATM   22  C16 UNL     1      27.759  -1.274  52.882  1.00  0.00     0.043 A 
HETATM   23  C17 UNL     1      28.549  -0.653  53.824  1.00  0.00     0.116 A 
HETATM   24  F1  UNL     1      29.881  -0.826  53.768  1.00  0.00    -0.206 F 
HETATM   25  C18 UNL     1      27.941   0.133  54.802  1.00  0.00     0.043 A 
HETATM   26  C19 UNL     1      26.565   0.264  54.797  1.00  0.00     0.016 A 
ENDBRANCH  18  20
ENDBRANCH  16  17
ENDBRANCH  15  16
ENDBRANCH   1  14
TORSDOF 11
ENDMDL
MODEL 4
REMARK VINA RESULT:      -6.4      3.925      6.190
REMARK  11 active torsions:
REMARK  status: ('A' for Active; 'I' for Inactive)
REMARK    1  A    between atoms: C2_2  and  N1_3 
REMARK    2  A    between atoms: N1_3  and  C3_4 
REMARK    3  A    between atoms: N1_3  and  C5_6 
REMARK    4  A    between atoms: C5_6  and  C6_7 
REMARK    5  A    between atoms: C7_8  and  C8_9 
REMARK    6  A    between atoms: C8_9  and  N2_10 
REMARK    7  A    between atoms: C8_9  and  C9_11 
REMARK    8  A    between atoms: C9_11  and  N3_12 
REMARK    9  A    between atoms: C10_13  and  C11_14 
REMARK   10  A    between atoms: C11_14  and  C12_15 
REMARK   11  A    between atoms: C13_16  and  C14_18 
ROOT
HETATM    1  C9  UNL     1      25.886   4.708  49.340  1.00  0.00     0.196 C 
ENDROOT
BRANCH   1   2
HETATM    2  C8  UNL     1      26.506   6.032  48.874  1.00  0.00     0.316 C 
BRANCH   2   3
HETATM    3  C7  UNL     1      27.911   5.817  48.502  1.00  0.00    -0.068 C 
HETATM    4  C6  UNL     1      29.058   5.640  48.175  1.00  0.00    -0.074 C 
BRANCH   4   5
HETATM    5  C5  UNL     1      30.445   5.429  47.754  1.00  0.00     0.365 C 
BRANCH   5   6
HETATM    6  N1  UNL     1      31.293   6.059  48.738  1.00  0.00     0.098 N 
BRANCH   6   7
HETATM    7  C2  UNL     1      31.203   7.467  48.609  1.00  0.00     0.269 C 
HETATM    8  C1  UNL     1      32.508   8.145  48.272  1.00  0.00     0.037 C 
ENDBRANCH   6   7
BRANCH   6   9
HETATM    9  C3  UNL     1      32.579   5.488  48.898  1.00  0.00     0.269 C 
HETATM   10  C4  UNL     1      32.860   4.408  47.912  1.00  0.00     0.037 C 
ENDBRANCH   6   9
ENDBRANCH   5   6
ENDBRANCH   4   5
ENDBRANCH   2   3
BRANCH   2  11
HETATM   11  N2  UNL     1      26.346   6.992  49.940  1.00  0.00     0.096 N 
HETATM   12  H14 UNL     1      25.462   6.805  50.496  1.00  0.00     0.314 HD
HETATM   13  H15 UNL     1      26.214   7.973  49.548  1.00  0.00     0.314 HD
ENDBRANCH   2  11
ENDBRANCH   1   2
BRANCH   1  14
HETATM   14  N3  UNL     1      25.118   4.838  50.519  1.00  0.00    -0.302 NA
HETATM   15  C10 UNL     1      24.624   3.785  51.057  1.00  0.00     0.087 C 
BRANCH  15  16
HETATM   16  C11 UNL     1      24.431   2.316  51.064  1.00  0.00     0.075 C 
BRANCH  16  17
HETATM   17  C12 UNL     1      25.728   1.729  51.496  1.00  0.00     0.003 C 
HETATM   18  C13 UNL     1      25.786   0.822  52.457  1.00  0.00     0.040 C 
HETATM   19 CL1  UNL     1      24.271   0.353  53.184  1.00  0.00    -0.084 Cl
BRANCH  18  20
HETATM   20  C14 UNL     1      27.060   0.252  52.864  1.00  0.00    -0.015 A 
HETATM   21  C15 UNL     1      28.078   1.046  53.343  1.00  0.00     0.016 A 
HETATM   22  C16 UNL     1      29.316   0.521  53.732  1.00  0.00     0.043 A 
HETATM   23  C17 UNL     1      29.546  -0.834  53.641  1.00  0.00     0.116 A 
HETATM   24  F1  UNL     1      30.742  -1.314  54.021  1.00  0.00    -0.206 F 
HETATM   25  C18 UNL     1      28.531  -1.660  53.161  1.00  0.00     0.043 A 
HETATM   26  C19 UNL     1      27.325  -1.094  52.789  1.00  0.00     0.016 A 
ENDBRANCH  18  20
ENDBRANCH  16  17
ENDBRANCH  15  16
ENDBRANCH   1  14
TORSDOF 11
ENDMDL
MODEL 5
REMARK VINA RESULT:      -6.4      1.219      2.186
REMARK  11 active torsions:
REMARK  status: ('A' for Active; 'I' for Inactive)
REMARK    1  A    between atoms: C2_2  and  N1_3 
REMARK    2  A    between atoms: N1_3  and  C3_4 
REMARK    3  A    between atoms: N1_3  and  C5_6 
REMARK    4  A    between atoms: C5_6  and  C6_7 
REMARK    5  A    between atoms: C7_8  and  C8_9 
REMARK    6  A    between atoms: C8_9  and  N2_10 
REMARK    7  A    between atoms: C8_9  and  C9_11 
REMARK    8  A    between atoms: C9_11  and  N3_12 
REMARK    9  A    between atoms: C10_13  and  C11_14 
REMARK   10  A    between atoms: C11_14  and  C12_15 
REMARK   11  A    between atoms: C13_16  and  C14_18 
ROOT
HETATM    1  C9  UNL     1      23.236   4.562  51.954  1.00  0.00     0.196 C 
ENDROOT
BRANCH   1   2
HETATM    2  C8  UNL     1      24.312   4.405  50.872  1.00  0.00     0.316 C 
BRANCH   2   3
HETATM    3  C7  UNL     1      25.131   3.218  51.156  1.00  0.00    -0.068 C 
HETATM    4  C6  UNL     1      25.814   2.256  51.403  1.00  0.00    -0.074 C 
BRANCH   4   5
HETATM    5  C5  UNL     1      26.653   1.100  51.724  1.00  0.00     0.365 C 
BRANCH   5   6
HETATM    6  N1  UNL     1      26.955   1.165  53.135  1.00  0.00     0.098 N 
BRANCH   6   7
HETATM    7  C2  UNL     1      27.881   2.211  53.373  1.00  0.00     0.269 C 
HETATM    8  C1  UNL     1      29.126   1.782  54.111  1.00  0.00     0.037 C 
ENDBRANCH   6   7
BRANCH   6   9
HETATM    9  C3  UNL     1      27.177  -0.078  53.774  1.00  0.00     0.269 C 
HETATM   10  C4  UNL     1      27.163  -1.228  52.828  1.00  0.00     0.037 C 
ENDBRANCH   6   9
ENDBRANCH   5   6
ENDBRANCH   4   5
ENDBRANCH   2   3
BRANCH   2  11
HETATM   11  N2  UNL     1      25.083   5.626  50.838  1.00  0.00     0.096 N 
HETATM   12  H14 UNL     1      25.103   6.094  51.789  1.00  0.00     0.314 HD
HETATM   13  H15 UNL     1      24.626   6.342  50.196  1.00  0.00     0.314 HD
ENDBRANCH   2  11
ENDBRANCH   1   2
BRANCH   1  14
HETATM   14  N3  UNL     1      22.179   5.418  51.569  1.00  0.00    -0.302 NA
HETATM   15  C10 UNL     1      21.030   4.912  51.319  1.00  0.00     0.087 C 
BRANCH  15  16
HETATM   16  C11 UNL     1      20.141   3.730  51.220  1.00  0.00     0.075 C 
BRANCH  16  17
HETATM   17  C12 UNL     1      20.624   2.760  52.239  1.00  0.00     0.003 C 
HETATM   18  C13 UNL     1      21.332   1.698  51.895  1.00  0.00     0.040 C 
HETATM   19 CL1  UNL     1      21.668   1.496  50.195  1.00  0.00    -0.084 Cl
BRANCH  18  20
HETATM   20  C14 UNL     1      21.804   0.762  52.903  1.00  0.00    -0.015 A 
HETATM   21  C15 UNL     1      23.092   0.275  52.880  1.00  0.00     0.016 A 
HETATM   22  C16 UNL     1      23.565  -0.632  53.834  1.00  0.00     0.043 A 
HETATM   23  C17 UNL     1      22.732  -1.069  54.840  1.00  0.00     0.116 A 
HETATM   24  F1  UNL     1      23.210  -1.941  55.744  1.00  0.00    -0.206 F 
HETATM   25  C18 UNL     1      21.423  -0.591  54.887  1.00  0.00     0.043 A 
HETATM   26  C19 UNL     1      21.002   0.305  53.921  1.00  0.00     0.016 A 
ENDBRANCH  18  20
ENDBRANCH  16  17
ENDBRANCH  15  16
ENDBRANCH   1  14
TORSDOF 11
ENDMDL
MODEL 6
REMARK VINA RESULT:      -6.3      1.588      2.053
REMARK  11 active torsions:
REMARK  status: ('A' for Active; 'I' for Inactive)
REMARK    1  A    between atoms: C2_2  and  N1_3 
REMARK    2  A    between atoms: N1_3  and  C3_4 
REMARK    3  A    between atoms: N1_3  and  C5_6 
REMARK    4  A    between atoms: C5_6  and  C6_7 
REMARK    5  A    between atoms: C7_8  and  C8_9 
REMARK    6  A    between atoms: C8_9  and  N2_10 
REMARK    7  A    between atoms: C8_9  and  C9_11 
REMARK    8  A    between atoms: C9_11  and  N3_12 
REMARK    9  A    between atoms: C10_13  and  C11_14 
REMARK   10  A    between atoms: C11_14  and  C12_15 
REMARK   11  A    between atoms: C13_16  and  C14_18 
ROOT
HETATM    1  C9  UNL     1      23.549   4.556  49.510  1.00  0.00     0.196 C 
ENDROOT
BRANCH   1   2
HETATM    2  C8  UNL     1      24.836   4.707  50.332  1.00  0.00     0.316 C 
BRANCH   2   3
HETATM    3  C7  UNL     1      25.246   3.397  50.855  1.00  0.00    -0.068 C 
HETATM    4  C6  UNL     1      25.565   2.313  51.274  1.00  0.00    -0.074 C 
BRANCH   4   5
HETATM    5  C5  UNL     1      25.937   0.985  51.768  1.00  0.00     0.365 C 
BRANCH   5   6
HETATM    6  N1  UNL     1      27.219   1.112  52.421  1.00  0.00     0.098 N 
BRANCH   6   7
HETATM    7  C2  UNL     1      27.692  -0.172  52.790  1.00  0.00     0.269 C 
HETATM    8  C1  UNL     1      26.734  -1.297  52.486  1.00  0.00     0.037 C 
ENDBRANCH   6   7
BRANCH   6   9
HETATM    9  C3  UNL     1      27.324   2.157  53.370  1.00  0.00     0.269 C 
HETATM   10  C4  UNL     1      28.734   2.521  53.679  1.00  0.00     0.037 C 
ENDBRANCH   6   9
ENDBRANCH   5   6
ENDBRANCH   4   5
ENDBRANCH   2   3
BRANCH   2  11
HETATM   11  N2  UNL     1      24.581   5.675  51.373  1.00  0.00     0.096 N 
HETATM   12  H14 UNL     1      24.485   5.206  52.318  1.00  0.00     0.314 HD
HETATM   13  H15 UNL     1      23.647   6.160  51.217  1.00  0.00     0.314 HD
ENDBRANCH   2  11
ENDBRANCH   1   2
BRANCH   1  14
HETATM   14  N3  UNL     1      23.628   3.538  48.533  1.00  0.00    -0.302 NA
HETATM   15  C10 UNL     1      22.759   2.596  48.547  1.00  0.00     0.087 C 
BRANCH  15  16
HETATM   16  C11 UNL     1      21.563   1.961  49.149  1.00  0.00     0.075 C 
BRANCH  16  17
HETATM   17  C12 UNL     1      22.027   1.308  50.403  1.00  0.00     0.003 C 
HETATM   18  C13 UNL     1      21.176   0.714  51.224  1.00  0.00     0.040 C 
HETATM   19 CL1  UNL     1      19.495   0.734  50.759  1.00  0.00    -0.084 Cl
BRANCH  18  20
HETATM   20  C14 UNL     1      21.645   0.074  52.443  1.00  0.00    -0.015 A 
HETATM   21  C15 UNL     1      20.770  -0.543  53.308  1.00  0.00     0.016 A 
HETATM   22  C16 UNL     1      21.196  -1.157  54.490  1.00  0.00     0.043 A 
HETATM   23  C17 UNL     1      22.533  -1.156  54.822  1.00  0.00     0.116 A 
HETATM   24  F1  UNL     1      22.918  -1.752  55.963  1.00  0.00    -0.206 F 
HETATM   25  C18 UNL     1      23.441  -0.538  53.962  1.00  0.00     0.043 A 
HETATM   26  C19 UNL     1      22.970   0.055  52.805  1.00  0.00     0.016 A 
ENDBRANCH  18  20
ENDBRANCH  16  17
ENDBRANCH  15  16
ENDBRANCH   1  14
TORSDOF 11
ENDMDL
MODEL 7
REMARK VINA RESULT:      -6.2      3.223      6.122
REMARK  11 active torsions:
REMARK  status: ('A' for Active; 'I' for Inactive)
REMARK    1  A    between atoms: C2_2  and  N1_3 
REMARK    2  A    between atoms: N1_3  and  C3_4 
REMARK    3  A    between atoms: N1_3  and  C5_6 
REMARK    4  A    between atoms: C5_6  and  C6_7 
REMARK    5  A    between atoms: C7_8  and  C8_9 
REMARK    6  A    between atoms: C8_9  and  N2_10 
REMARK    7  A    between atoms: C8_9  and  C9_11 
REMARK    8  A    between atoms: C9_11  and  N3_12 
REMARK    9  A    between atoms: C10_13  and  C11_14 
REMARK   10  A    between atoms: C11_14  and  C12_15 
REMARK   11  A    between atoms: C13_16  and  C14_18 
ROOT
HETATM    1  C9  UNL     1      24.044   4.648  51.391  1.00  0.00     0.196 C 
ENDROOT
BRANCH   1   2
HETATM    2  C8  UNL     1      24.296   6.044  50.808  1.00  0.00     0.316 C 
BRANCH   2   3
HETATM    3  C7  UNL     1      25.468   6.009  49.924  1.00  0.00    -0.068 C 
HETATM    4  C6  UNL     1      26.422   5.961  49.188  1.00  0.00    -0.074 C 
BRANCH   4   5
HETATM    5  C5  UNL     1      27.569   5.886  48.280  1.00  0.00     0.365 C 
BRANCH   5   6
HETATM    6  N1  UNL     1      28.173   7.196  48.242  1.00  0.00     0.098 N 
BRANCH   6   7
HETATM    7  C2  UNL     1      29.572   7.078  48.434  1.00  0.00     0.269 C 
HETATM    8  C1  UNL     1      30.131   5.715  48.107  1.00  0.00     0.037 C 
ENDBRANCH   6   7
BRANCH   6   9
HETATM    9  C3  UNL     1      27.488   8.211  48.953  1.00  0.00     0.269 C 
HETATM   10  C4  UNL     1      28.404   9.229  49.539  1.00  0.00     0.037 C 
ENDBRANCH   6   9
ENDBRANCH   5   6
ENDBRANCH   4   5
ENDBRANCH   2   3
BRANCH   2  11
HETATM   11  N2  UNL     1      24.452   6.961  51.914  1.00  0.00     0.096 N 
HETATM   12  H14 UNL     1      23.660   7.665  51.944  1.00  0.00     0.314 HD
HETATM   13  H15 UNL     1      25.330   7.550  51.794  1.00  0.00     0.314 HD
ENDBRANCH   2  11
ENDBRANCH   1   2
BRANCH   1  14
HETATM   14  N3  UNL     1      23.774   3.673  50.405  1.00  0.00    -0.302 NA
HETATM   15  C10 UNL     1      23.614   2.454  50.765  1.00  0.00     0.087 C 
BRANCH  15  16
HETATM   16  C11 UNL     1      23.562   1.425  51.831  1.00  0.00     0.075 C 
BRANCH  16  17
HETATM   17  C12 UNL     1      24.973   1.032  52.097  1.00  0.00     0.003 C 
HETATM   18  C13 UNL     1      25.275   0.156  53.040  1.00  0.00     0.040 C 
HETATM   19 CL1  UNL     1      23.943  -0.510  53.948  1.00  0.00    -0.084 Cl
BRANCH  18  20
HETATM   20  C14 UNL     1      26.658  -0.224  53.284  1.00  0.00    -0.015 A 
HETATM   21  C15 UNL     1      27.508   0.590  53.997  1.00  0.00     0.016 A 
HETATM   22  C16 UNL     1      28.844   0.249  54.237  1.00  0.00     0.043 A 
HETATM   23  C17 UNL     1      29.347  -0.938  53.751  1.00  0.00     0.116 A 
HETATM   24  F1  UNL     1      30.633  -1.242  53.994  1.00  0.00    -0.206 F 
HETATM   25  C18 UNL     1      28.507  -1.781  53.026  1.00  0.00     0.043 A 
HETATM   26  C19 UNL     1      27.194  -1.400  52.816  1.00  0.00     0.016 A 
ENDBRANCH  18  20
ENDBRANCH  16  17
ENDBRANCH  15  16
ENDBRANCH   1  14
TORSDOF 11
ENDMDL
MODEL 8
REMARK VINA RESULT:      -6.2      1.725      2.566
REMARK  11 active torsions:
REMARK  status: ('A' for Active; 'I' for Inactive)
REMARK    1  A    between atoms: C2_2  and  N1_3 
REMARK    2  A    between atoms: N1_3  and  C3_4 
REMARK    3  A    between atoms: N1_3  and  C5_6 
REMARK    4  A    between atoms: C5_6  and  C6_7 
REMARK    5  A    between atoms: C7_8  and  C8_9 
REMARK    6  A    between atoms: C8_9  and  N2_10 
REMARK    7  A    between atoms: C8_9  and  C9_11 
REMARK    8  A    between atoms: C9_11  and  N3_12 
REMARK    9  A    between atoms: C10_13  and  C11_14 
REMARK   10  A    between atoms: C11_14  and  C12_15 
REMARK   11  A    between atoms: C13_16  and  C14_18 
ROOT
HETATM    1  C9  UNL     1      24.911   5.396  48.892  1.00  0.00     0.196 C 
ENDROOT
BRANCH   1   2
HETATM    2  C8  UNL     1      26.359   4.890  48.929  1.00  0.00     0.316 C 
BRANCH   2   3
HETATM    3  C7  UNL     1      26.453   3.718  49.810  1.00  0.00    -0.068 C 
HETATM    4  C6  UNL     1      26.547   2.767  50.544  1.00  0.00    -0.074 C 
BRANCH   4   5
HETATM    5  C5  UNL     1      26.676   1.624  51.451  1.00  0.00     0.365 C 
BRANCH   5   6
HETATM    6  N1  UNL     1      26.437   2.108  52.790  1.00  0.00     0.098 N 
BRANCH   6   7
HETATM    7  C2  UNL     1      27.484   1.677  53.643  1.00  0.00     0.269 C 
HETATM    8  C1  UNL     1      28.733   2.520  53.568  1.00  0.00     0.037 C 
ENDBRANCH   6   7
BRANCH   6   9
HETATM    9  C3  UNL     1      25.107   1.990  53.259  1.00  0.00     0.269 C 
HETATM   10  C4  UNL     1      24.474   3.307  53.548  1.00  0.00     0.037 C 
ENDBRANCH   6   9
ENDBRANCH   5   6
ENDBRANCH   4   5
ENDBRANCH   2   3
BRANCH   2  11
HETATM   11  N2  UNL     1      27.196   5.986  49.358  1.00  0.00     0.096 N 
HETATM   12  H14 UNL     1      27.179   6.093  50.412  1.00  0.00     0.314 HD
HETATM   13  H15 UNL     1      26.824   6.912  48.988  1.00  0.00     0.314 HD
ENDBRANCH   2  11
ENDBRANCH   1   2
BRANCH   1  14
HETATM   14  N3  UNL     1      24.302   5.437  50.166  1.00  0.00    -0.302 NA
HETATM   15  C10 UNL     1      23.237   4.754  50.368  1.00  0.00     0.087 C 
BRANCH  15  16
HETATM   16  C11 UNL     1      22.194   3.825  49.873  1.00  0.00     0.075 C 
BRANCH  16  17
HETATM   17  C12 UNL     1      22.274   2.614  50.734  1.00  0.00     0.003 C 
HETATM   18  C13 UNL     1      21.406   2.405  51.709  1.00  0.00     0.040 C 
HETATM   19 CL1  UNL     1      20.169   3.616  51.930  1.00  0.00    -0.084 Cl
BRANCH  18  20
HETATM   20  C14 UNL     1      21.493   1.213  52.538  1.00  0.00    -0.015 A 
HETATM   21  C15 UNL     1      22.330   0.172  52.207  1.00  0.00     0.016 A 
HETATM   22  C16 UNL     1      22.424  -0.988  52.985  1.00  0.00     0.043 A 
HETATM   23  C17 UNL     1      21.661  -1.114  54.124  1.00  0.00     0.116 A 
HETATM   24  F1  UNL     1      21.768  -2.238  54.853  1.00  0.00    -0.206 F 
HETATM   25  C18 UNL     1      20.805  -0.073  54.482  1.00  0.00     0.043 A 
HETATM   26  C19 UNL     1      20.747   1.053  53.681  1.00  0.00     0.016 A 
ENDBRANCH  18  20
ENDBRANCH  16  17
ENDBRANCH  15  16
ENDBRANCH   1  14
TORSDOF 11
ENDMDL
MODEL 9
REMARK VINA RESULT:      -6.1      4.473      6.692
REMARK  11 active torsions:
REMARK  status: ('A' for Active; 'I' for Inactive)
REMARK    1  A    between atoms: C2_2  and  N1_3 
REMARK    2  A    between atoms: N1_3  and  C3_4 
REMARK    3  A    between atoms: N1_3  and  C5_6 
REMARK    4  A    between atoms: C5_6  and  C6_7 
REMARK    5  A    between atoms: C7_8  and  C8_9 
REMARK    6  A    between atoms: C8_9  and  N2_10 
REMARK    7  A    between atoms: C8_9  and  C9_11 
REMARK    8  A    between atoms: C9_11  and  N3_12 
REMARK    9  A    between atoms: C10_13  and  C11_14 
REMARK   10  A    between atoms: C11_14  and  C12_15 
REMARK   11  A    between atoms: C13_16  and  C14_18 
ROOT
HETATM    1  C9  UNL     1      26.509   7.376  49.649  1.00  0.00     0.196 C 
ENDROOT
BRANCH   1   2
HETATM    2  C8  UNL     1      27.340   8.662  49.562  1.00  0.00     0.316 C 
BRANCH   2   3
HETATM    3  C7  UNL     1      28.642   8.371  48.946  1.00  0.00    -0.068 C 
HETATM    4  C6  UNL     1      29.718   8.151  48.450  1.00  0.00    -0.074 C 
BRANCH   4   5
HETATM    5  C5  UNL     1      31.035   7.901  47.860  1.00  0.00     0.365 C 
BRANCH   5   6
HETATM    6  N1  UNL     1      31.889   7.399  48.911  1.00  0.00     0.098 N 
BRANCH   6   7
HETATM    7  C2  UNL     1      33.214   7.857  48.704  1.00  0.00     0.269 C 
HETATM    8  C1  UNL     1      33.360   8.843  47.571  1.00  0.00     0.037 C 
ENDBRANCH   6   7
BRANCH   6   9
HETATM    9  C3  UNL     1      31.702   6.039  49.258  1.00  0.00     0.269 C 
HETATM   10  C4  UNL     1      31.928   5.112  48.115  1.00  0.00     0.037 C 
ENDBRANCH   6   9
ENDBRANCH   5   6
ENDBRANCH   4   5
ENDBRANCH   2   3
BRANCH   2  11
HETATM   11  N2  UNL     1      27.456   9.202  50.897  1.00  0.00     0.096 N 
HETATM   12  H14 UNL     1      26.851  10.065  51.016  1.00  0.00     0.314 HD
HETATM   13  H15 UNL     1      28.448   9.542  51.081  1.00  0.00     0.314 HD
ENDBRANCH   2  11
ENDBRANCH   1   2
BRANCH   1  14
HETATM   14  N3  UNL     1      26.975   6.352  48.795  1.00  0.00    -0.302 NA
HETATM   15  C10 UNL     1      26.472   5.179  48.899  1.00  0.00     0.087 C 
BRANCH  15  16
HETATM   16  C11 UNL     1      25.525   4.240  49.547  1.00  0.00     0.075 C 
BRANCH  16  17
HETATM   17  C12 UNL     1      26.360   3.236  50.261  1.00  0.00     0.003 C 
HETATM   18  C13 UNL     1      25.977   2.720  51.416  1.00  0.00     0.040 C 
HETATM   19 CL1  UNL     1      24.450   3.274  52.055  1.00  0.00    -0.084 Cl
BRANCH  18  20
HETATM   20  C14 UNL     1      26.800   1.734  52.099  1.00  0.00    -0.015 A 
HETATM   21  C15 UNL     1      26.538   0.387  51.993  1.00  0.00     0.016 A 
HETATM   22  C16 UNL     1      27.310  -0.579  52.647  1.00  0.00     0.043 A 
HETATM   23  C17 UNL     1      28.375  -0.191  53.430  1.00  0.00     0.116 A 
HETATM   24  F1  UNL     1      29.101  -1.138  54.049  1.00  0.00    -0.206 F 
HETATM   25  C18 UNL     1      28.663   1.167  53.554  1.00  0.00     0.043 A 
HETATM   26  C19 UNL     1      27.870   2.084  52.888  1.00  0.00     0.016 A 
ENDBRANCH  18  20
ENDBRANCH  16  17
ENDBRANCH  15  16
ENDBRANCH   1  14
TORSDOF 11
ENDMDL
