MODEL 1
REMARK VINA RESULT:      -9.7      0.000      0.000
REMARK  3 active torsions:
REMARK  status: ('A' for Active; 'I' for Inactive)
REMARK    1  A    between atoms: C7_7  and  C8_8 
REMARK    2  A    between atoms: C9_9  and  C10_10 
REMARK    3  A    between atoms: C16_17  and  O1_18 
ROOT
HETATM    1  C10 UNL     1      24.646   2.308  51.627  1.00  0.00     0.081 C 
HETATM    2  C11 UNL     1      25.753   1.887  52.348  1.00  0.00     0.029 C 
HETATM    3  C12 UNL     1      25.677   0.512  53.025  1.00  0.00     0.082 C 
HETATM    4  C13 UNL     1      26.510  -0.400  52.187  1.00  0.00     0.028 C 
HETATM    5  C14 UNL     1      24.265   0.279  52.947  1.00  0.00     0.451 A 
HETATM    6  N1  UNL     1      23.130  -0.189  53.281  1.00  0.00     0.249 N 
HETATM    7  C15 UNL     1      21.896  -0.199  52.839  1.00  0.00     0.444 A 
HETATM    8  C16 UNL     1      21.764  -0.963  54.033  1.00  0.00     0.258 A 
HETATM    9  C17 UNL     1      23.078  -0.890  54.409  1.00  0.00     0.482 A 
HETATM   10  N2  UNL     1      23.091  -0.184  53.258  1.00  0.00     0.249 N 
HETATM   11  N3  UNL     1      23.664  -1.445  55.564  1.00  0.00    -0.337 N 
HETATM   12  C18 UNL     1      24.998  -1.145  55.973  1.00  0.00     0.086 C 
HETATM   13  C19 UNL     1      25.963  -0.366  55.415  1.00  0.00     0.028 C 
HETATM   14  C20 UNL     1      26.255   0.672  54.380  1.00  0.00     0.211 C 
HETATM   15  F1  UNL     1      27.649   0.636  54.214  1.00  0.00    -0.244 F 
HETATM   16  C21 UNL     1      20.691  -0.018  52.105  1.00  0.00     0.164 C 
HETATM   17  N4  UNL     1      20.941   1.156  51.689  1.00  0.00    -0.282 NA
HETATM   18  C22 UNL     1      22.018   2.054  51.853  1.00  0.00     0.270 C 
HETATM   19  N5  UNL     1      23.322   1.706  51.356  1.00  0.00    -0.365 N 
HETATM   20  H19 UNL     1      22.819  -1.979  55.800  1.00  0.00     0.163 HD
HETATM   21  H26 UNL     1      23.871   1.100  50.749  1.00  0.00     0.162 HD
ENDROOT
BRANCH   1  22
HETATM   22  C9  UNL     1      24.670   3.605  50.962  1.00  0.00    -0.049 C 
HETATM   23  C8  UNL     1      24.707   4.680  50.422  1.00  0.00    -0.094 C 
BRANCH  23  24
HETATM   24  C7  UNL     1      24.728   5.996  49.763  1.00  0.00     0.069 C 
HETATM   25  C2  UNL     1      26.158   6.342  49.514  1.00  0.00    -0.003 C 
HETATM   26  C1  UNL     1      26.834   5.133  48.887  1.00  0.00     0.011 C 
HETATM   27  C3  UNL     1      26.306   7.552  48.637  1.00  0.00     0.005 C 
HETATM   28  C4  UNL     1      25.518   7.450  47.366  1.00  0.00     0.000 C 
HETATM   29  C5  UNL     1      24.081   7.116  47.622  1.00  0.00     0.001 C 
HETATM   30  C6  UNL     1      23.895   5.920  48.522  1.00  0.00     0.017 C 
ENDBRANCH  23  24
ENDBRANCH   1  22
BRANCH   8  31
HETATM   31  O1  UNL     1      21.025  -1.693  54.943  1.00  0.00    -0.376 OA
HETATM   32  H18 UNL     1      21.253  -2.562  55.365  1.00  0.00     0.211 HD
ENDBRANCH   8  31
TORSDOF 3
ENDMDL
MODEL 2
REMARK VINA RESULT:      -9.5      2.400      4.145
REMARK  3 active torsions:
REMARK  status: ('A' for Active; 'I' for Inactive)
REMARK    1  A    between atoms: C7_7  and  C8_8 
REMARK    2  A    between atoms: C9_9  and  C10_10 
REMARK    3  A    between atoms: C16_17  and  O1_18 
ROOT
HETATM    1  C10 UNL     1      25.174   3.411  50.901  1.00  0.00     0.081 C 
HETATM    2  C11 UNL     1      23.834   3.153  50.649  1.00  0.00     0.029 C 
HETATM    3  C12 UNL     1      23.051   2.373  51.714  1.00  0.00     0.082 C 
HETATM    4  C13 UNL     1      22.200   3.382  52.412  1.00  0.00     0.028 C 
HETATM    5  C14 UNL     1      24.139   1.861  52.493  1.00  0.00     0.451 A 
HETATM    6  N1  UNL     1      24.761   1.060  53.262  1.00  0.00     0.249 N 
HETATM    7  C15 UNL     1      25.918   0.974  53.871  1.00  0.00     0.444 A 
HETATM    8  C16 UNL     1      25.301  -0.242  54.283  1.00  0.00     0.258 A 
HETATM    9  C17 UNL     1      24.127  -0.057  53.604  1.00  0.00     0.482 A 
HETATM   10  N2  UNL     1      24.803   1.067  53.279  1.00  0.00     0.249 N 
HETATM   11  N3  UNL     1      23.023  -0.931  53.561  1.00  0.00    -0.337 N 
HETATM   12  C18 UNL     1      21.927  -0.746  52.666  1.00  0.00     0.086 C 
HETATM   13  C19 UNL     1      21.660   0.222  51.748  1.00  0.00     0.028 C 
HETATM   14  C20 UNL     1      22.221   1.382  50.990  1.00  0.00     0.211 C 
HETATM   15  F1  UNL     1      21.099   2.083  50.519  1.00  0.00    -0.244 F 
HETATM   16  C21 UNL     1      27.232   1.181  54.376  1.00  0.00     0.164 C 
HETATM   17  N4  UNL     1      27.697   1.773  53.352  1.00  0.00    -0.282 NA
HETATM   18  C22 UNL     1      27.167   2.136  52.096  1.00  0.00     0.270 C 
HETATM   19  N5  UNL     1      26.078   3.075  52.023  1.00  0.00    -0.365 N 
HETATM   20  H19 UNL     1      23.404  -1.533  54.301  1.00  0.00     0.163 HD
HETATM   21  H26 UNL     1      25.533   3.789  52.501  1.00  0.00     0.162 HD
ENDROOT
BRANCH   1  22
HETATM   22  C9  UNL     1      25.961   4.152  49.924  1.00  0.00    -0.049 C 
HETATM   23  C8  UNL     1      26.611   4.779  49.129  1.00  0.00    -0.094 C 
BRANCH  23  24
HETATM   24  C7  UNL     1      27.394   5.535  48.138  1.00  0.00     0.069 C 
HETATM   25  C2  UNL     1      26.813   6.908  48.070  1.00  0.00    -0.003 C 
HETATM   26  C1  UNL     1      26.635   7.416  49.492  1.00  0.00     0.011 C 
HETATM   27  C3  UNL     1      27.667   7.849  47.269  1.00  0.00     0.005 C 
HETATM   28  C4  UNL     1      29.097   7.860  47.717  1.00  0.00     0.000 C 
HETATM   29  C5  UNL     1      29.680   6.482  47.770  1.00  0.00     0.001 C 
HETATM   30  C6  UNL     1      28.834   5.504  48.546  1.00  0.00     0.017 C 
ENDBRANCH  23  24
ENDBRANCH   1  22
BRANCH   8  31
HETATM   31  O1  UNL     1      25.293  -1.436  54.976  1.00  0.00    -0.376 OA
HETATM   32  H18 UNL     1      24.769  -1.674  55.785  1.00  0.00     0.211 HD
ENDBRANCH   8  31
TORSDOF 3
ENDMDL
MODEL 3
REMARK VINA RESULT:      -9.2      3.614      6.368
REMARK  3 active torsions:
REMARK  status: ('A' for Active; 'I' for Inactive)
REMARK    1  A    between atoms: C7_7  and  C8_8 
REMARK    2  A    between atoms: C9_9  and  C10_10 
REMARK    3  A    between atoms: C16_17  and  O1_18 
ROOT
HETATM    1  C10 UNL     1      23.412   1.207  52.211  1.00  0.00     0.081 C 
HETATM    2  C11 UNL     1      22.997   2.202  51.339  1.00  0.00     0.029 C 
HETATM    3  C12 UNL     1      21.504   2.558  51.330  1.00  0.00     0.082 C 
HETATM    4  C13 UNL     1      21.392   3.856  52.059  1.00  0.00     0.028 C 
HETATM    5  C14 UNL     1      20.978   1.426  52.032  1.00  0.00     0.451 A 
HETATM    6  N1  UNL     1      20.125   0.545  52.372  1.00  0.00     0.249 N 
HETATM    7  C15 UNL     1      20.011  -0.443  53.226  1.00  0.00     0.444 A 
HETATM    8  C16 UNL     1      18.749  -0.503  52.570  1.00  0.00     0.258 A 
HETATM    9  C17 UNL     1      18.969   0.544  51.716  1.00  0.00     0.482 A 
HETATM   10  N2  UNL     1      20.130   0.514  52.405  1.00  0.00     0.249 N 
HETATM   11  N3  UNL     1      18.088   1.040  50.735  1.00  0.00    -0.337 N 
HETATM   12  C18 UNL     1      18.483   2.004  49.759  1.00  0.00     0.086 C 
HETATM   13  C19 UNL     1      19.660   2.654  49.553  1.00  0.00     0.028 C 
HETATM   14  C20 UNL     1      21.112   2.706  49.909  1.00  0.00     0.211 C 
HETATM   15  F1  UNL     1      21.533   3.988  49.520  1.00  0.00    -0.244 F 
HETATM   16  C21 UNL     1      20.209  -1.423  54.239  1.00  0.00     0.164 C 
HETATM   17  N4  UNL     1      21.451  -1.599  54.040  1.00  0.00    -0.282 NA
HETATM   18  C22 UNL     1      22.394  -1.058  53.139  1.00  0.00     0.270 C 
HETATM   19  N5  UNL     1      22.701   0.348  53.183  1.00  0.00    -0.365 N 
HETATM   20  H19 UNL     1      17.307   0.465  51.070  1.00  0.00     0.163 HD
HETATM   21  H26 UNL     1      22.651   1.217  53.711  1.00  0.00     0.162 HD
ENDROOT
BRANCH   1  22
HETATM   22  C9  UNL     1      24.820   0.834  52.262  1.00  0.00    -0.049 C 
HETATM   23  C8  UNL     1      25.977   0.507  52.309  1.00  0.00    -0.094 C 
BRANCH  23  24
HETATM   24  C7  UNL     1      27.399   0.131  52.375  1.00  0.00     0.069 C 
HETATM   25  C2  UNL     1      28.038   0.997  53.408  1.00  0.00    -0.003 C 
HETATM   26  C1  UNL     1      27.157   0.980  54.648  1.00  0.00     0.011 C 
HETATM   27  C3  UNL     1      29.434   0.553  53.738  1.00  0.00     0.005 C 
HETATM   28  C4  UNL     1      29.514  -0.902  54.090  1.00  0.00     0.000 C 
HETATM   29  C5  UNL     1      28.885  -1.767  53.043  1.00  0.00     0.001 C 
HETATM   30  C6  UNL     1      27.489  -1.334  52.668  1.00  0.00     0.017 C 
ENDBRANCH  23  24
ENDBRANCH   1  22
BRANCH   8  31
HETATM   31  O1  UNL     1      17.496  -1.051  52.374  1.00  0.00    -0.376 OA
HETATM   32  H18 UNL     1      16.853  -0.870  51.641  1.00  0.00     0.211 HD
ENDBRANCH   8  31
TORSDOF 3
ENDMDL
MODEL 4
REMARK VINA RESULT:      -9.1      2.865      4.920
REMARK  3 active torsions:
REMARK  status: ('A' for Active; 'I' for Inactive)
REMARK    1  A    between atoms: C7_7  and  C8_8 
REMARK    2  A    between atoms: C9_9  and  C10_10 
REMARK    3  A    between atoms: C16_17  and  O1_18 
ROOT
HETATM    1  C10 UNL     1      25.615   4.053  49.887  1.00  0.00     0.081 C 
HETATM    2  C11 UNL     1      24.376   4.005  49.266  1.00  0.00     0.029 C 
HETATM    3  C12 UNL     1      23.207   3.407  50.061  1.00  0.00     0.082 C 
HETATM    4  C13 UNL     1      22.377   4.569  50.497  1.00  0.00     0.028 C 
HETATM    5  C14 UNL     1      23.933   2.758  51.111  1.00  0.00     0.451 A 
HETATM    6  N1  UNL     1      24.172   1.898  52.019  1.00  0.00     0.249 N 
HETATM    7  C15 UNL     1      25.082   1.649  52.929  1.00  0.00     0.444 A 
HETATM    8  C16 UNL     1      24.180   0.567  53.141  1.00  0.00     0.258 A 
HETATM    9  C17 UNL     1      23.290   0.914  52.160  1.00  0.00     0.482 A 
HETATM   10  N2  UNL     1      24.208   1.898  52.047  1.00  0.00     0.249 N 
HETATM   11  N3  UNL     1      22.112   0.230  51.801  1.00  0.00    -0.337 N 
HETATM   12  C18 UNL     1      21.356   0.554  50.635  1.00  0.00     0.086 C 
HETATM   13  C19 UNL     1      21.522   1.514  49.686  1.00  0.00     0.028 C 
HETATM   14  C20 UNL     1      22.459   2.536  49.125  1.00  0.00     0.211 C 
HETATM   15  F1  UNL     1      21.647   3.391  48.362  1.00  0.00    -0.244 F 
HETATM   16  C21 UNL     1      26.218   1.660  53.785  1.00  0.00     0.164 C 
HETATM   17  N4  UNL     1      27.043   2.126  52.938  1.00  0.00    -0.282 NA
HETATM   18  C22 UNL     1      26.952   2.520  51.586  1.00  0.00     0.270 C 
HETATM   19  N5  UNL     1      26.101   3.620  51.215  1.00  0.00    -0.365 N 
HETATM   20  H19 UNL     1      22.165  -0.395  52.614  1.00  0.00     0.163 HD
HETATM   21  H26 UNL     1      25.572   4.432  51.525  1.00  0.00     0.162 HD
ENDROOT
BRANCH   1  22
HETATM   22  C9  UNL     1      26.756   4.615  49.176  1.00  0.00    -0.049 C 
HETATM   23  C8  UNL     1      27.690   5.097  48.590  1.00  0.00    -0.094 C 
BRANCH  23  24
HETATM   24  C7  UNL     1      28.834   5.667  47.860  1.00  0.00     0.069 C 
HETATM   25  C2  UNL     1      28.449   7.047  47.441  1.00  0.00    -0.003 C 
HETATM   26  C1  UNL     1      27.848   7.754  48.646  1.00  0.00     0.011 C 
HETATM   27  C3  UNL     1      29.613   7.821  46.892  1.00  0.00     0.005 C 
HETATM   28  C4  UNL     1      30.799   7.817  47.809  1.00  0.00     0.000 C 
HETATM   29  C5  UNL     1      31.190   6.430  48.215  1.00  0.00     0.001 C 
HETATM   30  C6  UNL     1      30.038   5.614  48.748  1.00  0.00     0.017 C 
ENDBRANCH  23  24
ENDBRANCH   1  22
BRANCH   8  31
HETATM   31  O1  UNL     1      23.778  -0.580  53.796  1.00  0.00    -0.376 OA
HETATM   32  H18 UNL     1      22.883  -1.009  53.794  1.00  0.00     0.211 HD
ENDBRANCH   8  31
TORSDOF 3
ENDMDL
MODEL 5
REMARK VINA RESULT:      -8.9      3.326      6.514
REMARK  3 active torsions:
REMARK  status: ('A' for Active; 'I' for Inactive)
REMARK    1  A    between atoms: C7_7  and  C8_8 
REMARK    2  A    between atoms: C9_9  and  C10_10 
REMARK    3  A    between atoms: C16_17  and  O1_18 
ROOT
HETATM    1  C10 UNL     1      23.203   2.426  52.122  1.00  0.00     0.081 C 
HETATM    2  C11 UNL     1      23.227   3.392  51.127  1.00  0.00     0.029 C 
HETATM    3  C12 UNL     1      21.895   3.745  50.450  1.00  0.00     0.082 C 
HETATM    4  C13 UNL     1      21.490   5.066  51.017  1.00  0.00     0.028 C 
HETATM    5  C14 UNL     1      21.099   2.635  50.882  1.00  0.00     0.451 A 
HETATM    6  N1  UNL     1      20.173   1.764  50.837  1.00  0.00     0.249 N 
HETATM    7  C15 UNL     1      19.682   0.804  51.582  1.00  0.00     0.444 A 
HETATM    8  C16 UNL     1      18.837   0.721  50.439  1.00  0.00     0.258 A 
HETATM    9  C17 UNL     1      19.424   1.740  49.739  1.00  0.00     0.482 A 
HETATM   10  N2  UNL     1      20.163   1.734  50.870  1.00  0.00     0.249 N 
HETATM   11  N3  UNL     1      19.072   2.203  48.456  1.00  0.00    -0.337 N 
HETATM   12  C18 UNL     1      19.869   3.135  47.726  1.00  0.00     0.086 C 
HETATM   13  C19 UNL     1      21.024   3.781  48.041  1.00  0.00     0.028 C 
HETATM   14  C20 UNL     1      22.171   3.847  48.998  1.00  0.00     0.211 C 
HETATM   15  F1  UNL     1      22.737   5.117  48.798  1.00  0.00    -0.244 F 
HETATM   16  C21 UNL     1      19.401  -0.142  52.607  1.00  0.00     0.164 C 
HETATM   17  N4  UNL     1      20.602  -0.323  52.981  1.00  0.00    -0.282 NA
HETATM   18  C22 UNL     1      21.851   0.191  52.573  1.00  0.00     0.270 C 
HETATM   19  N5  UNL     1      22.125   1.598  52.706  1.00  0.00    -0.365 N 
HETATM   20  H19 UNL     1      18.216   1.637  48.429  1.00  0.00     0.163 HD
HETATM   21  H26 UNL     1      21.858   2.483  53.132  1.00  0.00     0.162 HD
ENDROOT
BRANCH   1  22
HETATM   22  C9  UNL     1      24.439   2.058  52.799  1.00  0.00    -0.049 C 
HETATM   23  C8  UNL     1      25.455   1.734  53.359  1.00  0.00    -0.094 C 
BRANCH  23  24
HETATM   24  C7  UNL     1      26.696   1.360  54.055  1.00  0.00     0.069 C 
HETATM   25  C2  UNL     1      26.958  -0.077  53.750  1.00  0.00    -0.003 C 
HETATM   26  C1  UNL     1      26.801  -0.277  52.251  1.00  0.00     0.011 C 
HETATM   27  C3  UNL     1      28.319  -0.518  54.208  1.00  0.00     0.005 C 
HETATM   28  C4  UNL     1      29.416   0.376  53.715  1.00  0.00     0.000 C 
HETATM   29  C5  UNL     1      29.156   1.815  54.036  1.00  0.00     0.001 C 
HETATM   30  C6  UNL     1      27.787   2.285  53.612  1.00  0.00     0.017 C 
ENDBRANCH  23  24
ENDBRANCH   1  22
BRANCH   8  31
HETATM   31  O1  UNL     1      17.792   0.165  49.727  1.00  0.00    -0.376 OA
HETATM   32  H18 UNL     1      17.385  -0.734  49.833  1.00  0.00     0.211 HD
ENDBRANCH   8  31
TORSDOF 3
ENDMDL
MODEL 6
REMARK VINA RESULT:      -8.7      3.827      7.026
REMARK  3 active torsions:
REMARK  status: ('A' for Active; 'I' for Inactive)
REMARK    1  A    between atoms: C7_7  and  C8_8 
REMARK    2  A    between atoms: C9_9  and  C10_10 
REMARK    3  A    between atoms: C16_17  and  O1_18 
ROOT
HETATM    1  C10 UNL     1      23.268   2.296  51.541  1.00  0.00     0.081 C 
HETATM    2  C11 UNL     1      22.255   1.350  51.471  1.00  0.00     0.029 C 
HETATM    3  C12 UNL     1      21.042   1.676  50.589  1.00  0.00     0.082 C 
HETATM    4  C13 UNL     1      21.204   0.852  49.355  1.00  0.00     0.028 C 
HETATM    5  C14 UNL     1      21.244   3.082  50.404  1.00  0.00     0.451 A 
HETATM    6  N1  UNL     1      20.931   4.299  50.199  1.00  0.00     0.249 N 
HETATM    7  C15 UNL     1      21.523   5.456  50.029  1.00  0.00     0.444 A 
HETATM    8  C16 UNL     1      20.153   5.833  49.933  1.00  0.00     0.258 A 
HETATM    9  C17 UNL     1      19.634   4.580  50.124  1.00  0.00     0.482 A 
HETATM   10  N2  UNL     1      20.960   4.333  50.194  1.00  0.00     0.249 N 
HETATM   11  N3  UNL     1      18.273   4.221  50.163  1.00  0.00    -0.337 N 
HETATM   12  C18 UNL     1      17.827   2.927  50.568  1.00  0.00     0.086 C 
HETATM   13  C19 UNL     1      18.508   1.811  50.946  1.00  0.00     0.028 C 
HETATM   14  C20 UNL     1      19.840   1.266  51.352  1.00  0.00     0.211 C 
HETATM   15  F1  UNL     1      19.728  -0.124  51.185  1.00  0.00    -0.244 F 
HETATM   16  C21 UNL     1      22.451   6.524  49.887  1.00  0.00     0.164 C 
HETATM   17  N4  UNL     1      23.315   6.086  50.710  1.00  0.00    -0.282 NA
HETATM   18  C22 UNL     1      23.403   4.943  51.532  1.00  0.00     0.270 C 
HETATM   19  N5  UNL     1      23.450   3.634  50.937  1.00  0.00    -0.365 N 
HETATM   20  H19 UNL     1      17.965   5.146  49.841  1.00  0.00     0.163 HD
HETATM   21  H26 UNL     1      23.603   3.084  50.093  1.00  0.00     0.162 HD
ENDROOT
BRANCH   1  22
HETATM   22  C9  UNL     1      24.443   2.033  52.361  1.00  0.00    -0.049 C 
HETATM   23  C8  UNL     1      25.405   1.826  53.054  1.00  0.00    -0.094 C 
BRANCH  23  24
HETATM   24  C7  UNL     1      26.596   1.575  53.882  1.00  0.00     0.069 C 
HETATM   25  C2  UNL     1      26.874   0.110  53.823  1.00  0.00    -0.003 C 
HETATM   26  C1  UNL     1      26.818  -0.323  52.367  1.00  0.00     0.011 C 
HETATM   27  C3  UNL     1      28.199  -0.243  54.435  1.00  0.00     0.005 C 
HETATM   28  C4  UNL     1      29.330   0.571  53.883  1.00  0.00     0.000 C 
HETATM   29  C5  UNL     1      29.053   2.041  53.957  1.00  0.00     0.001 C 
HETATM   30  C6  UNL     1      27.716   2.428  53.374  1.00  0.00     0.017 C 
ENDBRANCH  23  24
ENDBRANCH   1  22
BRANCH   8  31
HETATM   31  O1  UNL     1      19.150   6.765  49.756  1.00  0.00    -0.376 OA
HETATM   32  H18 UNL     1      19.237   7.729  49.539  1.00  0.00     0.211 HD
ENDBRANCH   8  31
TORSDOF 3
ENDMDL
MODEL 7
REMARK VINA RESULT:      -8.6      2.135      2.880
REMARK  3 active torsions:
REMARK  status: ('A' for Active; 'I' for Inactive)
REMARK    1  A    between atoms: C7_7  and  C8_8 
REMARK    2  A    between atoms: C9_9  and  C10_10 
REMARK    3  A    between atoms: C16_17  and  O1_18 
ROOT
HETATM    1  C10 UNL     1      23.808   2.475  51.422  1.00  0.00     0.081 C 
HETATM    2  C11 UNL     1      25.168   2.503  51.688  1.00  0.00     0.029 C 
HETATM    3  C12 UNL     1      25.783   1.272  52.370  1.00  0.00     0.082 C 
HETATM    4  C13 UNL     1      26.524   0.543  51.298  1.00  0.00     0.028 C 
HETATM    5  C14 UNL     1      24.589   0.623  52.824  1.00  0.00     0.451 A 
HETATM    6  N1  UNL     1      23.857  -0.110  53.564  1.00  0.00     0.249 N 
HETATM    7  C15 UNL     1      22.623  -0.546  53.611  1.00  0.00     0.444 A 
HETATM    8  C16 UNL     1      23.168  -1.144  54.782  1.00  0.00     0.258 A 
HETATM    9  C17 UNL     1      24.430  -0.634  54.643  1.00  0.00     0.482 A 
HETATM   10  N2  UNL     1      23.814  -0.120  53.557  1.00  0.00     0.249 N 
HETATM   11  N3  UNL     1      25.525  -0.829  55.507  1.00  0.00    -0.337 N 
HETATM   12  C18 UNL     1      26.743  -0.094  55.387  1.00  0.00     0.086 C 
HETATM   13  C19 UNL     1      27.146   0.852  54.497  1.00  0.00     0.028 C 
HETATM   14  C20 UNL     1      26.707   1.779  53.409  1.00  0.00     0.211 C 
HETATM   15  F1  UNL     1      27.889   2.136  52.739  1.00  0.00    -0.244 F 
HETATM   16  C21 UNL     1      21.249  -0.831  53.374  1.00  0.00     0.164 C 
HETATM   17  N4  UNL     1      20.943   0.296  52.874  1.00  0.00    -0.282 NA
HETATM   18  C22 UNL     1      21.655   1.486  52.612  1.00  0.00     0.270 C 
HETATM   19  N5  UNL     1      22.745   1.476  51.672  1.00  0.00    -0.365 N 
HETATM   20  H19 UNL     1      25.037  -1.552  56.049  1.00  0.00     0.163 HD
HETATM   21  H26 UNL     1      23.216   0.984  50.915  1.00  0.00     0.162 HD
ENDROOT
BRANCH   1  22
HETATM   22  C9  UNL     1      23.177   3.617  50.773  1.00  0.00    -0.049 C 
HETATM   23  C8  UNL     1      22.655   4.550  50.220  1.00  0.00    -0.094 C 
BRANCH  23  24
HETATM   24  C7  UNL     1      22.030   5.706  49.557  1.00  0.00     0.069 C 
HETATM   25  C2  UNL     1      20.639   5.307  49.192  1.00  0.00    -0.003 C 
HETATM   26  C1  UNL     1      20.002   4.653  50.407  1.00  0.00     0.011 C 
HETATM   27  C3  UNL     1      19.818   6.473  48.720  1.00  0.00     0.005 C 
HETATM   28  C4  UNL     1      19.845   7.628  49.676  1.00  0.00     0.000 C 
HETATM   29  C5  UNL     1      21.242   8.033  50.028  1.00  0.00     0.001 C 
HETATM   30  C6  UNL     1      22.103   6.881  50.482  1.00  0.00     0.017 C 
ENDBRANCH  23  24
ENDBRANCH   1  22
BRANCH   8  31
HETATM   31  O1  UNL     1      23.069  -1.930  55.914  1.00  0.00    -0.376 OA
HETATM   32  H18 UNL     1      22.481  -1.801  56.703  1.00  0.00     0.211 HD
ENDBRANCH   8  31
TORSDOF 3
ENDMDL
MODEL 8
REMARK VINA RESULT:      -8.6      3.561      8.170
REMARK  3 active torsions:
REMARK  status: ('A' for Active; 'I' for Inactive)
REMARK    1  A    between atoms: C7_7  and  C8_8 
REMARK    2  A    between atoms: C9_9  and  C10_10 
REMARK    3  A    between atoms: C16_17  and  O1_18 
ROOT
HETATM    1  C10 UNL     1      20.618   0.513  51.808  1.00  0.00     0.081 C 
HETATM    2  C11 UNL     1      20.538   1.589  50.937  1.00  0.00     0.029 C 
HETATM    3  C12 UNL     1      21.854   2.243  50.494  1.00  0.00     0.082 C 
HETATM    4  C13 UNL     1      22.086   1.779  49.093  1.00  0.00     0.028 C 
HETATM    5  C14 UNL     1      22.744   1.684  51.467  1.00  0.00     0.451 A 
HETATM    6  N1  UNL     1      23.761   1.616  52.230  1.00  0.00     0.249 N 
HETATM    7  C15 UNL     1      24.316   0.770  53.063  1.00  0.00     0.444 A 
HETATM    8  C16 UNL     1      25.219   1.868  53.146  1.00  0.00     0.258 A 
HETATM    9  C17 UNL     1      24.560   2.677  52.260  1.00  0.00     0.482 A 
HETATM   10  N2  UNL     1      23.773   1.580  52.256  1.00  0.00     0.249 N 
HETATM   11  N3  UNL     1      24.921   3.982  51.870  1.00  0.00    -0.337 N 
HETATM   12  C18 UNL     1      24.064   4.821  51.096  1.00  0.00     0.086 C 
HETATM   13  C19 UNL     1      22.832   4.610  50.561  1.00  0.00     0.028 C 
HETATM   14  C20 UNL     1      21.640   3.707  50.545  1.00  0.00     0.211 C 
HETATM   15  F1  UNL     1      20.949   4.041  49.368  1.00  0.00    -0.244 F 
HETATM   16  C21 UNL     1      24.649  -0.343  53.883  1.00  0.00     0.164 C 
HETATM   17  N4  UNL     1      23.458  -0.685  54.166  1.00  0.00    -0.282 NA
HETATM   18  C22 UNL     1      22.181  -0.185  53.831  1.00  0.00     0.270 C 
HETATM   19  N5  UNL     1      21.750  -0.183  52.458  1.00  0.00    -0.365 N 
HETATM   20  H19 UNL     1      25.834   3.925  52.335  1.00  0.00     0.163 HD
HETATM   21  H26 UNL     1      21.898  -0.539  51.516  1.00  0.00     0.162 HD
ENDROOT
BRANCH   1  22
HETATM   22  C9  UNL     1      19.398  -0.145  52.255  1.00  0.00    -0.049 C 
HETATM   23  C8  UNL     1      18.398  -0.693  52.643  1.00  0.00    -0.094 C 
BRANCH  23  24
HETATM   24  C7  UNL     1      17.172  -1.370  53.093  1.00  0.00     0.069 C 
HETATM   25  C2  UNL     1      16.066  -0.927  52.194  1.00  0.00    -0.003 C 
HETATM   26  C1  UNL     1      16.552  -1.043  50.758  1.00  0.00     0.011 C 
HETATM   27  C3  UNL     1      14.811  -1.725  52.400  1.00  0.00     0.005 C 
HETATM   28  C4  UNL     1      15.043  -3.204  52.328  1.00  0.00     0.000 C 
HETATM   29  C5  UNL     1      16.143  -3.646  53.242  1.00  0.00     0.001 C 
HETATM   30  C6  UNL     1      17.413  -2.848  53.080  1.00  0.00     0.017 C 
ENDBRANCH  23  24
ENDBRANCH   1  22
BRANCH   8  31
HETATM   31  O1  UNL     1      26.352   2.487  53.638  1.00  0.00    -0.376 OA
HETATM   32  H18 UNL     1      27.299   2.210  53.533  1.00  0.00     0.211 HD
ENDBRANCH   8  31
TORSDOF 3
ENDMDL
MODEL 9
REMARK VINA RESULT:      -8.3      5.835      9.502
REMARK  3 active torsions:
REMARK  status: ('A' for Active; 'I' for Inactive)
REMARK    1  A    between atoms: C7_7  and  C8_8 
REMARK    2  A    between atoms: C9_9  and  C10_10 
REMARK    3  A    between atoms: C16_17  and  O1_18 
ROOT
HETATM    1  C10 UNL     1      29.351   6.451  48.268  1.00  0.00     0.081 C 
HETATM    2  C11 UNL     1      29.357   7.797  47.935  1.00  0.00     0.029 C 
HETATM    3  C12 UNL     1      28.225   8.670  48.494  1.00  0.00     0.082 C 
HETATM    4  C13 UNL     1      28.834   9.463  49.603  1.00  0.00     0.028 C 
HETATM    5  C14 UNL     1      27.313   7.649  48.914  1.00  0.00     0.451 A 
HETATM    6  N1  UNL     1      26.191   7.114  49.189  1.00  0.00     0.249 N 
HETATM    7  C15 UNL     1      25.725   5.987  49.667  1.00  0.00     0.444 A 
HETATM    8  C16 UNL     1      24.518   6.707  49.441  1.00  0.00     0.258 A 
HETATM    9  C17 UNL     1      25.105   7.842  48.951  1.00  0.00     0.482 A 
HETATM   10  N2  UNL     1      26.185   7.073  49.207  1.00  0.00     0.249 N 
HETATM   11  N3  UNL     1      24.455   9.007  48.499  1.00  0.00    -0.337 N 
HETATM   12  C18 UNL     1      25.140  10.058  47.818  1.00  0.00     0.086 C 
HETATM   13  C19 UNL     1      26.451  10.222  47.490  1.00  0.00     0.028 C 
HETATM   14  C20 UNL     1      27.782   9.550  47.387  1.00  0.00     0.211 C 
HETATM   15  F1  UNL     1      28.713  10.600  47.329  1.00  0.00    -0.244 F 
HETATM   16  C21 UNL     1      25.553   4.677  50.196  1.00  0.00     0.164 C 
HETATM   17  N4  UNL     1      26.527   4.136  49.585  1.00  0.00    -0.282 NA
HETATM   18  C22 UNL     1      27.498   4.599  48.670  1.00  0.00     0.270 C 
HETATM   19  N5  UNL     1      28.439   5.609  49.074  1.00  0.00    -0.365 N 
HETATM   20  H19 UNL     1      23.541   8.697  48.848  1.00  0.00     0.163 HD
HETATM   21  H26 UNL     1      28.873   6.113  49.845  1.00  0.00     0.162 HD
ENDROOT
BRANCH   1  22
HETATM   22  C9  UNL     1      30.405   5.579  47.766  1.00  0.00    -0.049 C 
HETATM   23  C8  UNL     1      31.287   4.876  47.346  1.00  0.00    -0.094 C 
BRANCH  23  24
HETATM   24  C7  UNL     1      32.348   3.999  46.825  1.00  0.00     0.069 C 
HETATM   25  C2  UNL     1      32.857   4.620  45.567  1.00  0.00    -0.003 C 
HETATM   26  C1  UNL     1      33.112   6.094  45.839  1.00  0.00     0.011 C 
HETATM   27  C3  UNL     1      34.101   3.947  45.062  1.00  0.00     0.005 C 
HETATM   28  C4  UNL     1      35.167   3.833  46.110  1.00  0.00     0.000 C 
HETATM   29  C5  UNL     1      34.655   3.196  47.365  1.00  0.00     0.001 C 
HETATM   30  C6  UNL     1      33.390   3.832  47.886  1.00  0.00     0.017 C 
ENDBRANCH  23  24
ENDBRANCH   1  22
BRANCH   8  31
HETATM   31  O1  UNL     1      23.142   6.828  49.466  1.00  0.00    -0.376 OA
HETATM   32  H18 UNL     1      22.510   6.815  48.702  1.00  0.00     0.211 HD
ENDBRANCH   8  31
TORSDOF 3
ENDMDL
