MODEL 1
REMARK VINA RESULT:      -7.2      0.000      0.000
REMARK  4 active torsions:
REMARK  status: ('A' for Active; 'I' for Inactive)
REMARK    1  A    between atoms: N1_2  and  C2_3 
REMARK    2  A    between atoms: N1_2  and  C3_5 
REMARK    3  A    between atoms: C6_8  and  C7_9 
REMARK       I    between atoms: C7_9  and  N2_11 
REMARK    4  A    between atoms: N2_11  and  C8_12 
ROOT
HETATM    1  C7  UNL     1      23.377   0.066  52.850  1.00  0.00     0.256 C 
HETATM    2  O1  UNL     1      24.118   0.906  52.234  1.00  0.00    -0.267 OA
HETATM    3  N2  UNL     1      24.119  -0.792  53.706  1.00  0.00    -0.323 N 
HETATM    4  H8  UNL     1      23.589  -1.509  54.248  1.00  0.00     0.169 HD
ENDROOT
BRANCH   1   5
HETATM    5  C6  UNL     1      21.934   0.034  52.655  1.00  0.00     0.032 A 
HETATM    6  C5  UNL     1      21.349   0.383  51.468  1.00  0.00     0.019 A 
HETATM    7  C4  UNL     1      19.980   0.316  51.395  1.00  0.00     0.030 A 
HETATM    8  C3  UNL     1      19.124  -0.069  52.402  1.00  0.00     0.030 A 
HETATM    9  C15 UNL     1      19.799  -0.399  53.552  1.00  0.00     0.030 A 
HETATM   10  C14 UNL     1      21.149  -0.356  53.691  1.00  0.00     0.019 A 
BRANCH   8  11
HETATM   11  N1  UNL     1      17.709  -0.128  52.296  1.00  0.00    -0.372 N 
HETATM   12  C1  UNL     1      17.160   0.958  51.470  1.00  0.00     0.151 C 
BRANCH  11  13
HETATM   13  C2  UNL     1      16.649  -0.936  52.757  1.00  0.00     0.237 C 
HETATM   14 CL1  UNL     1      17.073  -2.597  53.131  1.00  0.00    -0.109 Cl
ENDBRANCH  11  13
ENDBRANCH   8  11
ENDBRANCH   1   5
BRANCH   3  15
HETATM   15  C8  UNL     1      25.549  -0.612  53.770  1.00  0.00     0.035 A 
HETATM   16  C9  UNL     1      26.131   0.181  54.736  1.00  0.00     0.031 A 
HETATM   17  C10 UNL     1      27.524   0.282  54.702  1.00  0.00     0.021 A 
HETATM   18  C11 UNL     1      28.274  -0.373  53.757  1.00  0.00     0.011 A 
HETATM   19 BR1  UNL     1      30.173  -0.235  53.711  1.00  0.00    -0.051 Br
HETATM   20  C12 UNL     1      27.637  -1.167  52.798  1.00  0.00     0.021 A 
HETATM   21  C13 UNL     1      26.252  -1.295  52.794  1.00  0.00     0.031 A 
ENDBRANCH   3  15
TORSDOF 4
ENDMDL
MODEL 2
REMARK VINA RESULT:      -7.2      4.621      8.303
REMARK  4 active torsions:
REMARK  status: ('A' for Active; 'I' for Inactive)
REMARK    1  A    between atoms: N1_2  and  C2_3 
REMARK    2  A    between atoms: N1_2  and  C3_5 
REMARK    3  A    between atoms: C6_8  and  C7_9 
REMARK       I    between atoms: C7_9  and  N2_11 
REMARK    4  A    between atoms: N2_11  and  C8_12 
ROOT
HETATM    1  C7  UNL     1      22.832  -0.225  52.909  1.00  0.00     0.256 C 
HETATM    2  O1  UNL     1      22.422  -1.433  52.987  1.00  0.00    -0.267 OA
HETATM    3  N2  UNL     1      21.775   0.698  52.684  1.00  0.00    -0.323 N 
HETATM    4  H8  UNL     1      22.024   1.708  52.607  1.00  0.00     0.169 HD
ENDROOT
BRANCH   1   5
HETATM    5  C6  UNL     1      24.243   0.111  53.042  1.00  0.00     0.032 A 
HETATM    6  C5  UNL     1      24.865   0.997  52.205  1.00  0.00     0.019 A 
HETATM    7  C4  UNL     1      26.199   1.241  52.422  1.00  0.00     0.030 A 
HETATM    8  C3  UNL     1      26.984   0.683  53.405  1.00  0.00     0.030 A 
HETATM    9  C15 UNL     1      26.276  -0.191  54.194  1.00  0.00     0.030 A 
HETATM   10  C14 UNL     1      24.958  -0.476  54.034  1.00  0.00     0.019 A 
BRANCH   8  11
HETATM   11  N1  UNL     1      28.363   0.955  53.604  1.00  0.00    -0.372 N 
HETATM   12  C1  UNL     1      28.657   2.396  53.621  1.00  0.00     0.151 C 
BRANCH  11  13
HETATM   13  C2  UNL     1      29.564   0.239  53.797  1.00  0.00     0.237 C 
HETATM   14 CL1  UNL     1      29.521  -1.449  53.321  1.00  0.00    -0.109 Cl
ENDBRANCH  11  13
ENDBRANCH   8  11
ENDBRANCH   1   5
BRANCH   3  15
HETATM   15  C8  UNL     1      20.433   0.178  52.578  1.00  0.00     0.035 A 
HETATM   16  C9  UNL     1      19.861  -0.548  53.600  1.00  0.00     0.031 A 
HETATM   17  C10 UNL     1      18.558  -1.002  53.388  1.00  0.00     0.021 A 
HETATM   18  C11 UNL     1      17.881  -0.739  52.223  1.00  0.00     0.011 A 
HETATM   19 BR1  UNL     1      16.103  -1.358  51.934  1.00  0.00    -0.051 Br
HETATM   20  C12 UNL     1      18.504   0.003  51.215  1.00  0.00     0.021 A 
HETATM   21  C13 UNL     1      19.802   0.473  51.383  1.00  0.00     0.031 A 
ENDBRANCH   3  15
TORSDOF 4
ENDMDL
MODEL 3
REMARK VINA RESULT:      -7.1      0.961      1.580
REMARK  4 active torsions:
REMARK  status: ('A' for Active; 'I' for Inactive)
REMARK    1  A    between atoms: N1_2  and  C2_3 
REMARK    2  A    between atoms: N1_2  and  C3_5 
REMARK    3  A    between atoms: C6_8  and  C7_9 
REMARK       I    between atoms: C7_9  and  N2_11 
REMARK    4  A    between atoms: N2_11  and  C8_12 
ROOT
HETATM    1  C7  UNL     1      23.352   0.037  52.924  1.00  0.00     0.256 C 
HETATM    2  O1  UNL     1      24.074   0.916  52.342  1.00  0.00    -0.267 OA
HETATM    3  N2  UNL     1      24.114  -0.845  53.737  1.00  0.00    -0.323 N 
HETATM    4  H8  UNL     1      23.600  -1.594  54.250  1.00  0.00     0.169 HD
ENDROOT
BRANCH   1   5
HETATM    5  C6  UNL     1      21.909  -0.010  52.737  1.00  0.00     0.032 A 
HETATM    6  C5  UNL     1      21.056  -0.413  53.729  1.00  0.00     0.019 A 
HETATM    7  C4  UNL     1      19.713  -0.419  53.443  1.00  0.00     0.030 A 
HETATM    8  C3  UNL     1      19.127  -0.058  52.252  1.00  0.00     0.030 A 
HETATM    9  C15 UNL     1      20.058   0.331  51.319  1.00  0.00     0.030 A 
HETATM   10  C14 UNL     1      21.398   0.360  51.535  1.00  0.00     0.019 A 
BRANCH   8  11
HETATM   11  N1  UNL     1      17.733  -0.075  51.986  1.00  0.00    -0.372 N 
HETATM   12  C1  UNL     1      16.995  -0.956  52.903  1.00  0.00     0.151 C 
BRANCH  11  13
HETATM   13  C2  UNL     1      16.822   0.517  51.085  1.00  0.00     0.237 C 
HETATM   14 CL1  UNL     1      16.540  -0.377  49.602  1.00  0.00    -0.109 Cl
ENDBRANCH  11  13
ENDBRANCH   8  11
ENDBRANCH   1   5
BRANCH   3  15
HETATM   15  C8  UNL     1      25.542  -0.643  53.800  1.00  0.00     0.035 A 
HETATM   16  C9  UNL     1      26.114   0.142  54.778  1.00  0.00     0.031 A 
HETATM   17  C10 UNL     1      27.505   0.265  54.742  1.00  0.00     0.021 A 
HETATM   18  C11 UNL     1      28.262  -0.362  53.785  1.00  0.00     0.011 A 
HETATM   19 BR1  UNL     1      30.159  -0.193  53.735  1.00  0.00    -0.051 Br
HETATM   20  C12 UNL     1      27.635  -1.149  52.814  1.00  0.00     0.021 A 
HETATM   21  C13 UNL     1      26.252  -1.299  52.811  1.00  0.00     0.031 A 
ENDBRANCH   3  15
TORSDOF 4
ENDMDL
MODEL 4
REMARK VINA RESULT:      -7.0      4.665      8.319
REMARK  4 active torsions:
REMARK  status: ('A' for Active; 'I' for Inactive)
REMARK    1  A    between atoms: N1_2  and  C2_3 
REMARK    2  A    between atoms: N1_2  and  C3_5 
REMARK    3  A    between atoms: C6_8  and  C7_9 
REMARK       I    between atoms: C7_9  and  N2_11 
REMARK    4  A    between atoms: N2_11  and  C8_12 
ROOT
HETATM    1  C7  UNL     1      22.356   0.145  52.774  1.00  0.00     0.256 C 
HETATM    2  O1  UNL     1      21.987  -0.192  51.598  1.00  0.00    -0.267 OA
HETATM    3  N2  UNL     1      21.272   0.203  53.691  1.00  0.00    -0.323 N 
HETATM    4  H8  UNL     1      21.488   0.471  54.677  1.00  0.00     0.169 HD
ENDROOT
BRANCH   1   5
HETATM    5  C6  UNL     1      23.751   0.429  53.084  1.00  0.00     0.032 A 
HETATM    6  C5  UNL     1      24.294   1.676  52.932  1.00  0.00     0.019 A 
HETATM    7  C4  UNL     1      25.619   1.831  53.255  1.00  0.00     0.030 A 
HETATM    8  C3  UNL     1      26.469   0.854  53.721  1.00  0.00     0.030 A 
HETATM    9  C15 UNL     1      25.838  -0.361  53.842  1.00  0.00     0.030 A 
HETATM   10  C14 UNL     1      24.532  -0.582  53.541  1.00  0.00     0.019 A 
BRANCH   8  11
HETATM   11  N1  UNL     1      27.838   1.045  54.046  1.00  0.00    -0.372 N 
HETATM   12  C1  UNL     1      28.345   2.351  53.601  1.00  0.00     0.151 C 
BRANCH  11  13
HETATM   13  C2  UNL     1      28.879   0.341  54.686  1.00  0.00     0.237 C 
HETATM   14 CL1  UNL     1      29.665  -0.891  53.714  1.00  0.00    -0.109 Cl
ENDBRANCH  11  13
ENDBRANCH   8  11
ENDBRANCH   1   5
BRANCH   3  15
HETATM   15  C8  UNL     1      19.953  -0.113  53.201  1.00  0.00     0.035 A 
HETATM   16  C9  UNL     1      19.322   0.684  52.271  1.00  0.00     0.031 A 
HETATM   17  C10 UNL     1      18.047   0.281  51.868  1.00  0.00     0.021 A 
HETATM   18  C11 UNL     1      17.453  -0.849  52.370  1.00  0.00     0.011 A 
HETATM   19 BR1  UNL     1      15.714  -1.399  51.821  1.00  0.00    -0.051 Br
HETATM   20  C12 UNL     1      18.135  -1.627  53.312  1.00  0.00     0.021 A 
HETATM   21  C13 UNL     1      19.406  -1.263  53.742  1.00  0.00     0.031 A 
ENDBRANCH   3  15
TORSDOF 4
ENDMDL
MODEL 5
REMARK VINA RESULT:      -7.0      5.333      5.765
REMARK  4 active torsions:
REMARK  status: ('A' for Active; 'I' for Inactive)
REMARK    1  A    between atoms: N1_2  and  C2_3 
REMARK    2  A    between atoms: N1_2  and  C3_5 
REMARK    3  A    between atoms: C6_8  and  C7_9 
REMARK       I    between atoms: C7_9  and  N2_11 
REMARK    4  A    between atoms: N2_11  and  C8_12 
ROOT
HETATM    1  C7  UNL     1      24.194   3.131  50.332  1.00  0.00     0.256 C 
HETATM    2  O1  UNL     1      23.988   3.382  49.096  1.00  0.00    -0.267 OA
HETATM    3  N2  UNL     1      25.271   3.885  50.872  1.00  0.00    -0.323 N 
HETATM    4  H8  UNL     1      25.506   3.739  51.878  1.00  0.00     0.169 HD
ENDROOT
BRANCH   1   5
HETATM    5  C6  UNL     1      23.382   2.165  51.060  1.00  0.00     0.032 A 
HETATM    6  C5  UNL     1      22.374   1.458  50.460  1.00  0.00     0.019 A 
HETATM    7  C4  UNL     1      21.673   0.573  51.241  1.00  0.00     0.030 A 
HETATM    8  C3  UNL     1      21.878   0.318  52.578  1.00  0.00     0.030 A 
HETATM    9  C15 UNL     1      22.906   1.072  53.092  1.00  0.00     0.030 A 
HETATM   10  C14 UNL     1      23.639   1.963  52.377  1.00  0.00     0.019 A 
BRANCH   8  11
HETATM   11  N1  UNL     1      21.134  -0.604  53.360  1.00  0.00    -0.372 N 
HETATM   12  C1  UNL     1      19.683  -0.406  53.236  1.00  0.00     0.151 C 
BRANCH  11  13
HETATM   13  C2  UNL     1      21.378  -1.680  54.239  1.00  0.00     0.237 C 
HETATM   14 CL1  UNL     1      22.722  -1.461  55.346  1.00  0.00    -0.109 Cl
ENDBRANCH  11  13
ENDBRANCH   8  11
ENDBRANCH   1   5
BRANCH   3  15
HETATM   15  C8  UNL     1      25.963   4.798  49.995  1.00  0.00     0.035 A 
HETATM   16  C9  UNL     1      25.543   6.101  49.838  1.00  0.00     0.031 A 
HETATM   17  C10 UNL     1      26.289   6.895  48.964  1.00  0.00     0.021 A 
HETATM   18  C11 UNL     1      27.383   6.404  48.297  1.00  0.00     0.011 A 
HETATM   19 BR1  UNL     1      28.401   7.487  47.105  1.00  0.00    -0.051 Br
HETATM   20  C12 UNL     1      27.771   5.074  48.490  1.00  0.00     0.021 A 
HETATM   21  C13 UNL     1      27.056   4.248  49.350  1.00  0.00     0.031 A 
ENDBRANCH   3  15
TORSDOF 4
ENDMDL
MODEL 6
REMARK VINA RESULT:      -6.9      4.553      8.431
REMARK  4 active torsions:
REMARK  status: ('A' for Active; 'I' for Inactive)
REMARK    1  A    between atoms: N1_2  and  C2_3 
REMARK    2  A    between atoms: N1_2  and  C3_5 
REMARK    3  A    between atoms: C6_8  and  C7_9 
REMARK       I    between atoms: C7_9  and  N2_11 
REMARK    4  A    between atoms: N2_11  and  C8_12 
ROOT
HETATM    1  C7  UNL     1      23.261   0.963  52.206  1.00  0.00     0.256 C 
HETATM    2  O1  UNL     1      23.000   1.341  51.014  1.00  0.00    -0.267 OA
HETATM    3  N2  UNL     1      22.097   0.854  53.013  1.00  0.00    -0.323 N 
HETATM    4  H8  UNL     1      22.222   0.549  54.003  1.00  0.00     0.169 HD
ENDROOT
BRANCH   1   5
HETATM    5  C6  UNL     1      24.625   0.688  52.637  1.00  0.00     0.032 A 
HETATM    6  C5  UNL     1      24.903  -0.055  53.752  1.00  0.00     0.019 A 
HETATM    7  C4  UNL     1      26.225  -0.252  54.066  1.00  0.00     0.030 A 
HETATM    8  C3  UNL     1      27.313   0.224  53.369  1.00  0.00     0.030 A 
HETATM    9  C15 UNL     1      26.937   0.956  52.269  1.00  0.00     0.030 A 
HETATM   10  C14 UNL     1      25.650   1.188  51.902  1.00  0.00     0.019 A 
BRANCH   8  11
HETATM   11  N1  UNL     1      28.671   0.003  53.720  1.00  0.00    -0.372 N 
HETATM   12  C1  UNL     1      29.278   1.167  54.382  1.00  0.00     0.151 C 
BRANCH  11  13
HETATM   13  C2  UNL     1      29.633  -1.024  53.621  1.00  0.00     0.237 C 
HETATM   14 CL1  UNL     1      29.012  -2.599  53.160  1.00  0.00    -0.109 Cl
ENDBRANCH  11  13
ENDBRANCH   8  11
ENDBRANCH   1   5
BRANCH   3  15
HETATM   15  C8  UNL     1      20.824   1.168  52.410  1.00  0.00     0.035 A 
HETATM   16  C9  UNL     1      20.054   0.197  51.809  1.00  0.00     0.031 A 
HETATM   17  C10 UNL     1      18.840   0.616  51.258  1.00  0.00     0.021 A 
HETATM   18  C11 UNL     1      18.436   1.926  51.314  1.00  0.00     0.011 A 
HETATM   19 BR1  UNL     1      16.780   2.498  50.564  1.00  0.00    -0.051 Br
HETATM   20  C12 UNL     1      19.252   2.876  51.937  1.00  0.00     0.021 A 
HETATM   21  C13 UNL     1      20.469   2.502  52.497  1.00  0.00     0.031 A 
ENDBRANCH   3  15
TORSDOF 4
ENDMDL
MODEL 7
REMARK VINA RESULT:      -6.8      8.189      9.789
REMARK  4 active torsions:
REMARK  status: ('A' for Active; 'I' for Inactive)
REMARK    1  A    between atoms: N1_2  and  C2_3 
REMARK    2  A    between atoms: N1_2  and  C3_5 
REMARK    3  A    between atoms: C6_8  and  C7_9 
REMARK       I    between atoms: C7_9  and  N2_11 
REMARK    4  A    between atoms: N2_11  and  C8_12 
ROOT
HETATM    1  C7  UNL     1      26.274   4.043  49.751  1.00  0.00     0.256 C 
HETATM    2  O1  UNL     1      25.251   3.411  49.316  1.00  0.00    -0.267 OA
HETATM    3  N2  UNL     1      26.692   3.590  51.031  1.00  0.00    -0.323 N 
HETATM    4  H8  UNL     1      27.523   4.054  51.460  1.00  0.00     0.169 HD
ENDROOT
BRANCH   1   5
HETATM    5  C6  UNL     1      26.901   5.104  48.976  1.00  0.00     0.032 A 
HETATM    6  C5  UNL     1      28.213   5.049  48.589  1.00  0.00     0.019 A 
HETATM    7  C4  UNL     1      28.701   6.105  47.860  1.00  0.00     0.030 A 
HETATM    8  C3  UNL     1      28.003   7.226  47.473  1.00  0.00     0.030 A 
HETATM    9  C15 UNL     1      26.700   7.194  47.906  1.00  0.00     0.030 A 
HETATM   10  C14 UNL     1      26.153   6.182  48.628  1.00  0.00     0.019 A 
BRANCH   8  11
HETATM   11  N1  UNL     1      28.537   8.304  46.719  1.00  0.00    -0.372 N 
HETATM   12  C1  UNL     1      29.176   9.322  47.566  1.00  0.00     0.151 C 
BRANCH  11  13
HETATM   13  C2  UNL     1      28.641   8.698  45.369  1.00  0.00     0.237 C 
HETATM   14 CL1  UNL     1      27.197   8.464  44.400  1.00  0.00    -0.109 Cl
ENDBRANCH  11  13
ENDBRANCH   8  11
ENDBRANCH   1   5
BRANCH   3  15
HETATM   15  C8  UNL     1      25.944   2.522  51.649  1.00  0.00     0.035 A 
HETATM   16  C9  UNL     1      26.413   1.227  51.656  1.00  0.00     0.031 A 
HETATM   17  C10 UNL     1      25.605   0.275  52.283  1.00  0.00     0.021 A 
HETATM   18  C11 UNL     1      24.408   0.612  52.862  1.00  0.00     0.011 A 
HETATM   19 BR1  UNL     1      23.306  -0.686  53.717  1.00  0.00    -0.051 Br
HETATM   20  C12 UNL     1      23.975   1.941  52.830  1.00  0.00     0.021 A 
HETATM   21  C13 UNL     1      24.746   2.921  52.216  1.00  0.00     0.031 A 
ENDBRANCH   3  15
TORSDOF 4
ENDMDL
MODEL 8
REMARK VINA RESULT:      -6.8      7.126      8.942
REMARK  4 active torsions:
REMARK  status: ('A' for Active; 'I' for Inactive)
REMARK    1  A    between atoms: N1_2  and  C2_3 
REMARK    2  A    between atoms: N1_2  and  C3_5 
REMARK    3  A    between atoms: C6_8  and  C7_9 
REMARK       I    between atoms: C7_9  and  N2_11 
REMARK    4  A    between atoms: N2_11  and  C8_12 
ROOT
HETATM    1  C7  UNL     1      24.934   3.327  50.628  1.00  0.00     0.256 C 
HETATM    2  O1  UNL     1      24.123   2.555  50.013  1.00  0.00    -0.267 OA
HETATM    3  N2  UNL     1      24.955   3.093  52.030  1.00  0.00    -0.323 N 
HETATM    4  H8  UNL     1      25.593   3.683  52.608  1.00  0.00     0.169 HD
ENDROOT
BRANCH   1   5
HETATM    5  C6  UNL     1      25.726   4.322  49.919  1.00  0.00     0.032 A 
HETATM    6  C5  UNL     1      25.357   5.639  49.854  1.00  0.00     0.019 A 
HETATM    7  C4  UNL     1      26.179   6.491  49.158  1.00  0.00     0.030 A 
HETATM    8  C3  UNL     1      27.348   6.158  48.513  1.00  0.00     0.030 A 
HETATM    9  C15 UNL     1      27.636   4.820  48.631  1.00  0.00     0.030 A 
HETATM   10  C14 UNL     1      26.868   3.924  49.304  1.00  0.00     0.019 A 
BRANCH   8  11
HETATM   11  N1  UNL     1      28.177   7.063  47.800  1.00  0.00    -0.372 N 
HETATM   12  C1  UNL     1      29.596   6.676  47.837  1.00  0.00     0.151 C 
BRANCH  11  13
HETATM   13  C2  UNL     1      28.044   8.249  47.048  1.00  0.00     0.237 C 
HETATM   14 CL1  UNL     1      26.539   8.416  46.162  1.00  0.00    -0.109 Cl
ENDBRANCH  11  13
ENDBRANCH   8  11
ENDBRANCH   1   5
BRANCH   3  15
HETATM   15  C8  UNL     1      24.097   2.060  52.556  1.00  0.00     0.035 A 
HETATM   16  C9  UNL     1      22.732   2.231  52.636  1.00  0.00     0.031 A 
HETATM   17  C10 UNL     1      22.001   1.163  53.162  1.00  0.00     0.021 A 
HETATM   18  C11 UNL     1      22.609   0.005  53.578  1.00  0.00     0.011 A 
HETATM   19 BR1  UNL     1      21.611  -1.451  54.296  1.00  0.00    -0.051 Br
HETATM   20  C12 UNL     1      23.998  -0.121  53.476  1.00  0.00     0.021 A 
HETATM   21  C13 UNL     1      24.765   0.917  52.959  1.00  0.00     0.031 A 
ENDBRANCH   3  15
TORSDOF 4
ENDMDL
MODEL 9
REMARK VINA RESULT:      -6.7      8.355     10.158
REMARK  4 active torsions:
REMARK  status: ('A' for Active; 'I' for Inactive)
REMARK    1  A    between atoms: N1_2  and  C2_3 
REMARK    2  A    between atoms: N1_2  and  C3_5 
REMARK    3  A    between atoms: C6_8  and  C7_9 
REMARK       I    between atoms: C7_9  and  N2_11 
REMARK    4  A    between atoms: N2_11  and  C8_12 
ROOT
HETATM    1  C7  UNL     1      26.196   4.137  49.629  1.00  0.00     0.256 C 
HETATM    2  O1  UNL     1      26.439   2.903  49.404  1.00  0.00    -0.267 OA
HETATM    3  N2  UNL     1      25.185   4.325  50.610  1.00  0.00    -0.323 N 
HETATM    4  H8  UNL     1      24.925   5.306  50.853  1.00  0.00     0.169 HD
ENDROOT
BRANCH   1   5
HETATM    5  C6  UNL     1      26.908   5.196  48.926  1.00  0.00     0.032 A 
HETATM    6  C5  UNL     1      26.309   6.379  48.588  1.00  0.00     0.019 A 
HETATM    7  C4  UNL     1      27.075   7.307  47.926  1.00  0.00     0.030 A 
HETATM    8  C3  UNL     1      28.396   7.172  47.564  1.00  0.00     0.030 A 
HETATM    9  C15 UNL     1      28.910   5.955  47.943  1.00  0.00     0.030 A 
HETATM   10  C14 UNL     1      28.209   4.995  48.599  1.00  0.00     0.019 A 
BRANCH   8  11
HETATM   11  N1  UNL     1      29.162   8.151  46.878  1.00  0.00    -0.372 N 
HETATM   12  C1  UNL     1      28.760   8.298  45.472  1.00  0.00     0.151 C 
BRANCH  11  13
HETATM   13  C2  UNL     1      30.217   9.047  47.151  1.00  0.00     0.237 C 
HETATM   14 CL1  UNL     1      30.649   9.212  48.844  1.00  0.00    -0.109 Cl
ENDBRANCH  11  13
ENDBRANCH   8  11
ENDBRANCH   1   5
BRANCH   3  15
HETATM   15  C8  UNL     1      24.589   3.152  51.201  1.00  0.00     0.035 A 
HETATM   16  C9  UNL     1      23.521   2.512  50.609  1.00  0.00     0.031 A 
HETATM   17  C10 UNL     1      23.025   1.386  51.270  1.00  0.00     0.021 A 
HETATM   18  C11 UNL     1      23.573   0.939  52.446  1.00  0.00     0.011 A 
HETATM   19 BR1  UNL     1      22.897  -0.597  53.348  1.00  0.00    -0.051 Br
HETATM   20  C12 UNL     1      24.657   1.622  53.007  1.00  0.00     0.021 A 
HETATM   21  C13 UNL     1      25.181   2.748  52.384  1.00  0.00     0.031 A 
ENDBRANCH   3  15
TORSDOF 4
ENDMDL
