MODEL 1
REMARK VINA RESULT:      -7.9      0.000      0.000
REMARK  7 active torsions:
REMARK  status: ('A' for Active; 'I' for Inactive)
REMARK    1  A    between atoms: O1_2  and  C2_3 
REMARK    2  A    between atoms: C6_7  and  C7_8 
REMARK    3  A    between atoms: C7_8  and  N1_9 
REMARK    4  A    between atoms: N1_9  and  C8_10 
REMARK    5  A    between atoms: C12_14  and  C13_15 
REMARK    6  A    between atoms: C17_21  and  N3_22 
REMARK    7  A    between atoms: N3_22  and  C18_23 
ROOT
HETATM    1  C8  UNL     1      24.625   1.495  53.093  1.00  0.00     0.028 A 
HETATM    2  C9  UNL     1      23.783   0.802  52.261  1.00  0.00     0.029 A 
HETATM    3  C10 UNL     1      22.955   1.362  51.310  1.00  0.00     0.003 A 
HETATM    4  C11 UNL     1      22.973   2.735  51.182  1.00  0.00     0.010 A 
HETATM    5  C12 UNL     1      23.806   3.471  51.999  1.00  0.00    -0.028 A 
HETATM    6  C19 UNL     1      24.605   2.849  52.928  1.00  0.00     0.038 A 
ENDROOT
BRANCH   5   7
HETATM    7  C13 UNL     1      23.864   4.965  51.908  1.00  0.00     0.166 A 
HETATM    8  N2  UNL     1      22.582   5.566  52.054  1.00  0.00    -0.385 N 
HETATM    9  C14 UNL     1      21.846   6.435  51.219  1.00  0.00     0.085 A 
HETATM   10  H15 UNL     1      22.281   5.199  52.970  1.00  0.00     0.160 HD
HETATM   11  C15 UNL     1      22.472   6.726  50.112  1.00  0.00     0.038 A 
HETATM   12  C16 UNL     1      23.768   6.167  49.870  1.00  0.00     0.037 A 
HETATM   13 BR1  UNL     1      24.525   6.694  48.222  1.00  0.00    -0.049 Br
HETATM   14  C17 UNL     1      24.488   5.369  50.598  1.00  0.00     0.056 A 
BRANCH  14  15
HETATM   15  N3  UNL     1      25.727   4.762  50.485  1.00  0.00    -0.335 N 
HETATM   16  H18 UNL     1      26.521   5.009  51.138  1.00  0.00     0.168 HD
BRANCH  15  17
HETATM   17  C18 UNL     1      26.423   3.821  49.738  1.00  0.00     0.353 C 
HETATM   18  O2  UNL     1      27.428   4.224  49.141  1.00  0.00    -0.283 OA
ENDBRANCH  15  17
ENDBRANCH  14  15
ENDBRANCH   5   7
BRANCH   1  19
HETATM   19  N1  UNL     1      25.475   0.908  54.055  1.00  0.00    -0.389 N 
HETATM   20  H10 UNL     1      25.664   1.461  54.938  1.00  0.00     0.159 HD
BRANCH  19  21
HETATM   21  C7  UNL     1      26.158  -0.363  54.045  1.00  0.00     0.135 C 
BRANCH  21  22
HETATM   22  C6  UNL     1      27.375  -0.303  53.195  1.00  0.00     0.083 A 
HETATM   23  C2  UNL     1      28.590   0.143  53.928  1.00  0.00     0.055 A 
HETATM   24  C3  UNL     1      29.573  -0.745  53.971  1.00  0.00     0.033 A 
HETATM   25  C4  UNL     1      29.077  -1.908  53.239  1.00  0.00    -0.001 A 
HETATM   26  C5  UNL     1      27.847  -1.681  52.795  1.00  0.00    -0.014 A 
BRANCH  23  27
HETATM   27  O1  UNL     1      28.608   1.425  54.501  1.00  0.00    -0.359 OA
HETATM   28  C1  UNL     1      28.675   2.540  53.603  1.00  0.00     0.209 C 
ENDBRANCH  23  27
ENDBRANCH  21  22
ENDBRANCH  19  21
ENDBRANCH   1  19
TORSDOF 7
ENDMDL
MODEL 2
REMARK VINA RESULT:      -7.7      2.346      3.288
REMARK  7 active torsions:
REMARK  status: ('A' for Active; 'I' for Inactive)
REMARK    1  A    between atoms: O1_2  and  C2_3 
REMARK    2  A    between atoms: C6_7  and  C7_8 
REMARK    3  A    between atoms: C7_8  and  N1_9 
REMARK    4  A    between atoms: N1_9  and  C8_10 
REMARK    5  A    between atoms: C12_14  and  C13_15 
REMARK    6  A    between atoms: C17_21  and  N3_22 
REMARK    7  A    between atoms: N3_22  and  C18_23 
ROOT
HETATM    1  C8  UNL     1      23.670  -0.392  53.578  1.00  0.00     0.028 A 
HETATM    2  C9  UNL     1      22.825  -0.733  54.603  1.00  0.00     0.029 A 
HETATM    3  C10 UNL     1      21.500  -0.364  54.708  1.00  0.00     0.003 A 
HETATM    4  C11 UNL     1      20.977   0.417  53.698  1.00  0.00     0.010 A 
HETATM    5  C12 UNL     1      21.792   0.784  52.648  1.00  0.00    -0.028 A 
HETATM    6  C19 UNL     1      23.106   0.381  52.605  1.00  0.00     0.038 A 
ENDROOT
BRANCH   5   7
HETATM    7  C13 UNL     1      21.280   1.634  51.525  1.00  0.00     0.166 A 
HETATM    8  N2  UNL     1      20.935   0.865  50.380  1.00  0.00    -0.385 N 
HETATM    9  C14 UNL     1      21.370   0.922  49.037  1.00  0.00     0.085 A 
HETATM   10  H15 UNL     1      20.247   0.202  50.770  1.00  0.00     0.160 HD
HETATM   11  C15 UNL     1      22.257   1.857  48.831  1.00  0.00     0.038 A 
HETATM   12  C16 UNL     1      22.673   2.683  49.924  1.00  0.00     0.037 A 
HETATM   13 BR1  UNL     1      23.960   3.980  49.445  1.00  0.00    -0.049 Br
HETATM   14  C17 UNL     1      22.308   2.676  51.170  1.00  0.00     0.056 A 
BRANCH  14  15
HETATM   15  N3  UNL     1      22.627   3.399  52.306  1.00  0.00    -0.335 N 
HETATM   16  H18 UNL     1      21.887   3.670  53.010  1.00  0.00     0.168 HD
BRANCH  15  17
HETATM   17  C18 UNL     1      23.698   3.987  52.967  1.00  0.00     0.353 C 
HETATM   18  O2  UNL     1      24.586   3.224  53.366  1.00  0.00    -0.283 OA
ENDBRANCH  15  17
ENDBRANCH  14  15
ENDBRANCH   5   7
BRANCH   1  19
HETATM   19  N1  UNL     1      25.022  -0.786  53.477  1.00  0.00    -0.389 N 
HETATM   20  H10 UNL     1      25.250  -1.572  52.807  1.00  0.00     0.159 HD
BRANCH  19  21
HETATM   21  C7  UNL     1      26.193  -0.284  54.156  1.00  0.00     0.135 C 
BRANCH  21  22
HETATM   22  C6  UNL     1      27.366  -0.268  53.244  1.00  0.00     0.083 A 
HETATM   23  C2  UNL     1      28.642   0.076  53.925  1.00  0.00     0.055 A 
HETATM   24  C3  UNL     1      29.569  -0.871  53.887  1.00  0.00     0.033 A 
HETATM   25  C4  UNL     1      28.963  -1.974  53.144  1.00  0.00    -0.001 A 
HETATM   26  C5  UNL     1      27.730  -1.657  52.774  1.00  0.00    -0.014 A 
BRANCH  23  27
HETATM   27  O1  UNL     1      28.771   1.333  54.539  1.00  0.00    -0.359 OA
HETATM   28  C1  UNL     1      28.635   2.486  53.697  1.00  0.00     0.209 C 
ENDBRANCH  23  27
ENDBRANCH  21  22
ENDBRANCH  19  21
ENDBRANCH   1  19
TORSDOF 7
ENDMDL
MODEL 3
REMARK VINA RESULT:      -7.6      3.688      7.147
REMARK  7 active torsions:
REMARK  status: ('A' for Active; 'I' for Inactive)
REMARK    1  A    between atoms: O1_2  and  C2_3 
REMARK    2  A    between atoms: C6_7  and  C7_8 
REMARK    3  A    between atoms: C7_8  and  N1_9 
REMARK    4  A    between atoms: N1_9  and  C8_10 
REMARK    5  A    between atoms: C12_14  and  C13_15 
REMARK    6  A    between atoms: C17_21  and  N3_22 
REMARK    7  A    between atoms: N3_22  and  C18_23 
ROOT
HETATM    1  C8  UNL     1      23.076   2.504  52.166  1.00  0.00     0.028 A 
HETATM    2  C9  UNL     1      23.520   2.672  50.879  1.00  0.00     0.029 A 
HETATM    3  C10 UNL     1      24.832   2.572  50.464  1.00  0.00     0.003 A 
HETATM    4  C11 UNL     1      25.780   2.278  51.422  1.00  0.00     0.010 A 
HETATM    5  C12 UNL     1      25.376   2.101  52.729  1.00  0.00    -0.028 A 
HETATM    6  C19 UNL     1      24.051   2.216  53.075  1.00  0.00     0.038 A 
ENDROOT
BRANCH   5   7
HETATM    7  C13 UNL     1      26.362   1.785  53.812  1.00  0.00     0.166 A 
HETATM    8  N2  UNL     1      27.452   2.698  53.834  1.00  0.00    -0.385 N 
HETATM    9  C14 UNL     1      28.848   2.505  53.738  1.00  0.00     0.085 A 
HETATM   10  H15 UNL     1      26.968   3.602  53.940  1.00  0.00     0.160 HD
HETATM   11  C15 UNL     1      29.178   1.249  53.599  1.00  0.00     0.038 A 
HETATM   12  C16 UNL     1      28.150   0.253  53.562  1.00  0.00     0.037 A 
HETATM   13 BR1  UNL     1      28.807  -1.506  53.356  1.00  0.00    -0.049 Br
HETATM   14  C17 UNL     1      26.860   0.373  53.647  1.00  0.00     0.056 A 
BRANCH  14  15
HETATM   15  N3  UNL     1      25.776  -0.487  53.621  1.00  0.00    -0.335 N 
HETATM   16  H18 UNL     1      25.498  -0.995  52.737  1.00  0.00     0.168 HD
BRANCH  15  17
HETATM   17  C18 UNL     1      24.773  -1.010  54.427  1.00  0.00     0.353 C 
HETATM   18  O2  UNL     1      25.105  -1.362  55.565  1.00  0.00    -0.283 OA
ENDBRANCH  15  17
ENDBRANCH  14  15
ENDBRANCH   5   7
BRANCH   1  19
HETATM   19  N1  UNL     1      21.728   2.598  52.575  1.00  0.00    -0.389 N 
HETATM   20  H10 UNL     1      21.543   2.910  53.570  1.00  0.00     0.159 HD
BRANCH  19  21
HETATM   21  C7  UNL     1      20.511   2.335  51.846  1.00  0.00     0.135 C 
BRANCH  21  22
HETATM   22  C6  UNL     1      20.349   0.879  51.595  1.00  0.00     0.083 A 
HETATM   23  C2  UNL     1      19.968   0.107  52.808  1.00  0.00     0.055 A 
HETATM   24  C3  UNL     1      18.796  -0.510  52.731  1.00  0.00     0.033 A 
HETATM   25  C4  UNL     1      18.277  -0.189  51.404  1.00  0.00    -0.001 A 
HETATM   26  C5  UNL     1      19.131   0.588  50.751  1.00  0.00    -0.014 A 
BRANCH  23  27
HETATM   27  O1  UNL     1      20.841   0.088  53.908  1.00  0.00    -0.359 OA
HETATM   28  C1  UNL     1      21.138  -1.191  54.481  1.00  0.00     0.209 C 
ENDBRANCH  23  27
ENDBRANCH  21  22
ENDBRANCH  19  21
ENDBRANCH   1  19
TORSDOF 7
ENDMDL
MODEL 4
REMARK VINA RESULT:      -7.6      3.565      5.115
REMARK  7 active torsions:
REMARK  status: ('A' for Active; 'I' for Inactive)
REMARK    1  A    between atoms: O1_2  and  C2_3 
REMARK    2  A    between atoms: C6_7  and  C7_8 
REMARK    3  A    between atoms: C7_8  and  N1_9 
REMARK    4  A    between atoms: N1_9  and  C8_10 
REMARK    5  A    between atoms: C12_14  and  C13_15 
REMARK    6  A    between atoms: C17_21  and  N3_22 
REMARK    7  A    between atoms: N3_22  and  C18_23 
ROOT
HETATM    1  C8  UNL     1      24.509   2.792  52.184  1.00  0.00     0.028 A 
HETATM    2  C9  UNL     1      23.837   3.890  52.659  1.00  0.00     0.029 A 
HETATM    3  C10 UNL     1      22.470   4.069  52.629  1.00  0.00     0.003 A 
HETATM    4  C11 UNL     1      21.710   3.060  52.074  1.00  0.00     0.010 A 
HETATM    5  C12 UNL     1      22.344   1.938  51.584  1.00  0.00    -0.028 A 
HETATM    6  C19 UNL     1      23.713   1.824  51.645  1.00  0.00     0.038 A 
ENDROOT
BRANCH   5   7
HETATM    7  C13 UNL     1      21.571   0.813  50.968  1.00  0.00     0.166 A 
HETATM    8  N2  UNL     1      20.735   1.252  49.904  1.00  0.00    -0.385 N 
HETATM    9  C14 UNL     1      19.343   1.142  49.689  1.00  0.00     0.085 A 
HETATM   10  H15 UNL     1      21.415   1.706  49.275  1.00  0.00     0.160 HD
HETATM   11  C15 UNL     1      18.727   0.524  50.660  1.00  0.00     0.038 A 
HETATM   12  C16 UNL     1      19.482   0.048  51.780  1.00  0.00     0.037 A 
HETATM   13 BR1  UNL     1      18.431  -0.819  53.088  1.00  0.00    -0.049 Br
HETATM   14  C17 UNL     1      20.755   0.119  52.027  1.00  0.00     0.056 A 
BRANCH  14  15
HETATM   15  N3  UNL     1      21.596  -0.287  53.049  1.00  0.00    -0.335 N 
HETATM   16  H18 UNL     1      22.485  -0.822  52.848  1.00  0.00     0.168 HD
BRANCH  15  17
HETATM   17  C18 UNL     1      21.738  -0.254  54.430  1.00  0.00     0.353 C 
HETATM   18  O2  UNL     1      21.468  -1.297  55.037  1.00  0.00    -0.283 OA
ENDBRANCH  15  17
ENDBRANCH  14  15
ENDBRANCH   5   7
BRANCH   1  19
HETATM   19  N1  UNL     1      25.909   2.617  52.230  1.00  0.00    -0.389 N 
HETATM   20  H10 UNL     1      26.461   3.277  52.846  1.00  0.00     0.159 HD
BRANCH  19  21
HETATM   21  C7  UNL     1      26.751   1.657  51.559  1.00  0.00     0.135 C 
BRANCH  21  22
HETATM   22  C6  UNL     1      27.217   0.609  52.505  1.00  0.00     0.083 A 
HETATM   23  C2  UNL     1      27.131   1.018  53.932  1.00  0.00     0.055 A 
HETATM   24  C3  UNL     1      26.325   0.275  54.677  1.00  0.00     0.033 A 
HETATM   25  C4  UNL     1      25.783  -0.735  53.772  1.00  0.00    -0.001 A 
HETATM   26  C5  UNL     1      26.271  -0.566  52.550  1.00  0.00    -0.014 A 
BRANCH  23  27
HETATM   27  O1  UNL     1      27.881   2.121  54.373  1.00  0.00    -0.359 OA
HETATM   28  C1  UNL     1      29.298   2.068  54.171  1.00  0.00     0.209 C 
ENDBRANCH  23  27
ENDBRANCH  21  22
ENDBRANCH  19  21
ENDBRANCH   1  19
TORSDOF 7
ENDMDL
MODEL 5
REMARK VINA RESULT:      -7.5      3.042      7.085
REMARK  7 active torsions:
REMARK  status: ('A' for Active; 'I' for Inactive)
REMARK    1  A    between atoms: O1_2  and  C2_3 
REMARK    2  A    between atoms: C6_7  and  C7_8 
REMARK    3  A    between atoms: C7_8  and  N1_9 
REMARK    4  A    between atoms: N1_9  and  C8_10 
REMARK    5  A    between atoms: C12_14  and  C13_15 
REMARK    6  A    between atoms: C17_21  and  N3_22 
REMARK    7  A    between atoms: N3_22  and  C18_23 
ROOT
HETATM    1  C8  UNL     1      25.255   3.063  50.586  1.00  0.00     0.028 A 
HETATM    2  C9  UNL     1      23.905   2.973  50.809  1.00  0.00     0.029 A 
HETATM    3  C10 UNL     1      23.312   2.526  51.971  1.00  0.00     0.003 A 
HETATM    4  C11 UNL     1      24.145   2.136  52.999  1.00  0.00     0.010 A 
HETATM    5  C12 UNL     1      25.510   2.210  52.817  1.00  0.00    -0.028 A 
HETATM    6  C19 UNL     1      26.035   2.665  51.632  1.00  0.00     0.038 A 
ENDROOT
BRANCH   5   7
HETATM    7  C13 UNL     1      26.462   1.796  53.897  1.00  0.00     0.166 A 
HETATM    8  N2  UNL     1      27.601   2.645  53.968  1.00  0.00    -0.385 N 
HETATM    9  C14 UNL     1      28.985   2.379  53.878  1.00  0.00     0.085 A 
HETATM   10  H15 UNL     1      27.166   3.570  54.106  1.00  0.00     0.160 HD
HETATM   11  C15 UNL     1      29.247   1.114  53.691  1.00  0.00     0.038 A 
HETATM   12  C16 UNL     1      28.167   0.179  53.601  1.00  0.00     0.037 A 
HETATM   13 BR1  UNL     1      28.729  -1.604  53.330  1.00  0.00    -0.049 Br
HETATM   14  C17 UNL     1      26.885   0.366  53.678  1.00  0.00     0.056 A 
BRANCH  14  15
HETATM   15  N3  UNL     1      25.755  -0.430  53.605  1.00  0.00    -0.335 N 
HETATM   16  H18 UNL     1      25.360  -0.740  52.675  1.00  0.00     0.168 HD
BRANCH  15  17
HETATM   17  C18 UNL     1      24.810  -1.067  54.399  1.00  0.00     0.353 C 
HETATM   18  O2  UNL     1      25.147  -1.326  55.560  1.00  0.00    -0.283 OA
ENDBRANCH  15  17
ENDBRANCH  14  15
ENDBRANCH   5   7
BRANCH   1  19
HETATM   19  N1  UNL     1      25.849   3.533  49.394  1.00  0.00    -0.389 N 
HETATM   20  H10 UNL     1      25.461   3.166  48.481  1.00  0.00     0.159 HD
BRANCH  19  21
HETATM   21  C7  UNL     1      26.936   4.462  49.197  1.00  0.00     0.135 C 
BRANCH  21  22
HETATM   22  C6  UNL     1      26.439   5.745  48.633  1.00  0.00     0.083 A 
HETATM   23  C2  UNL     1      25.914   6.682  49.661  1.00  0.00     0.055 A 
HETATM   24  C3  UNL     1      26.563   7.835  49.748  1.00  0.00     0.033 A 
HETATM   25  C4  UNL     1      27.619   7.761  48.742  1.00  0.00    -0.001 A 
HETATM   26  C5  UNL     1      27.568   6.598  48.105  1.00  0.00    -0.014 A 
BRANCH  23  27
HETATM   27  O1  UNL     1      24.811   6.293  50.439  1.00  0.00    -0.359 OA
HETATM   28  C1  UNL     1      23.980   7.339  50.959  1.00  0.00     0.209 C 
ENDBRANCH  23  27
ENDBRANCH  21  22
ENDBRANCH  19  21
ENDBRANCH   1  19
TORSDOF 7
ENDMDL
MODEL 6
REMARK VINA RESULT:      -7.2      2.020      2.885
REMARK  7 active torsions:
REMARK  status: ('A' for Active; 'I' for Inactive)
REMARK    1  A    between atoms: O1_2  and  C2_3 
REMARK    2  A    between atoms: C6_7  and  C7_8 
REMARK    3  A    between atoms: C7_8  and  N1_9 
REMARK    4  A    between atoms: N1_9  and  C8_10 
REMARK    5  A    between atoms: C12_14  and  C13_15 
REMARK    6  A    between atoms: C17_21  and  N3_22 
REMARK    7  A    between atoms: N3_22  and  C18_23 
ROOT
HETATM    1  C8  UNL     1      24.150   0.781  52.701  1.00  0.00     0.028 A 
HETATM    2  C9  UNL     1      22.920   0.176  52.688  1.00  0.00     0.029 A 
HETATM    3  C10 UNL     1      21.894   0.462  51.811  1.00  0.00     0.003 A 
HETATM    4  C11 UNL     1      22.121   1.441  50.866  1.00  0.00     0.010 A 
HETATM    5  C12 UNL     1      23.345   2.076  50.843  1.00  0.00    -0.028 A 
HETATM    6  C19 UNL     1      24.325   1.741  51.748  1.00  0.00     0.038 A 
ENDROOT
BRANCH   5   7
HETATM    7  C13 UNL     1      23.647   3.149  49.843  1.00  0.00     0.166 A 
HETATM    8  N2  UNL     1      24.979   3.068  49.350  1.00  0.00    -0.385 N 
HETATM    9  C14 UNL     1      26.040   4.001  49.338  1.00  0.00     0.085 A 
HETATM   10  H15 UNL     1      25.008   2.107  48.976  1.00  0.00     0.160 HD
HETATM   11  C15 UNL     1      25.720   5.139  49.891  1.00  0.00     0.038 A 
HETATM   12  C16 UNL     1      24.403   5.317  50.422  1.00  0.00     0.037 A 
HETATM   13 BR1  UNL     1      24.116   7.022  51.182  1.00  0.00    -0.049 Br
HETATM   14  C17 UNL     1      23.394   4.501  50.458  1.00  0.00     0.056 A 
BRANCH  14  15
HETATM   15  N3  UNL     1      22.095   4.542  50.934  1.00  0.00    -0.335 N 
HETATM   16  H18 UNL     1      21.846   4.156  51.886  1.00  0.00     0.168 HD
BRANCH  15  17
HETATM   17  C18 UNL     1      20.814   4.954  50.590  1.00  0.00     0.353 C 
HETATM   18  O2  UNL     1      19.877   4.358  51.136  1.00  0.00    -0.283 OA
ENDBRANCH  15  17
ENDBRANCH  14  15
ENDBRANCH   5   7
BRANCH   1  19
HETATM   19  N1  UNL     1      25.196   0.471  53.597  1.00  0.00    -0.389 N 
HETATM   20  H10 UNL     1      25.541   1.246  54.228  1.00  0.00     0.159 HD
BRANCH  19  21
HETATM   21  C7  UNL     1      25.904  -0.769  53.811  1.00  0.00     0.135 C 
BRANCH  21  22
HETATM   22  C6  UNL     1      26.979  -0.945  52.801  1.00  0.00     0.083 A 
HETATM   23  C2  UNL     1      28.269  -0.314  53.191  1.00  0.00     0.055 A 
HETATM   24  C3  UNL     1      29.284  -1.156  53.323  1.00  0.00     0.033 A 
HETATM   25  C4  UNL     1      28.735  -2.475  53.018  1.00  0.00    -0.001 A 
HETATM   26  C5  UNL     1      27.445  -2.379  52.722  1.00  0.00    -0.014 A 
BRANCH  23  27
HETATM   27  O1  UNL     1      28.317   1.076  53.385  1.00  0.00    -0.359 OA
HETATM   28  C1  UNL     1      29.218   1.562  54.389  1.00  0.00     0.209 C 
ENDBRANCH  23  27
ENDBRANCH  21  22
ENDBRANCH  19  21
ENDBRANCH   1  19
TORSDOF 7
ENDMDL
MODEL 7
REMARK VINA RESULT:      -7.1      3.229      6.920
REMARK  7 active torsions:
REMARK  status: ('A' for Active; 'I' for Inactive)
REMARK    1  A    between atoms: O1_2  and  C2_3 
REMARK    2  A    between atoms: C6_7  and  C7_8 
REMARK    3  A    between atoms: C7_8  and  N1_9 
REMARK    4  A    between atoms: N1_9  and  C8_10 
REMARK    5  A    between atoms: C12_14  and  C13_15 
REMARK    6  A    between atoms: C17_21  and  N3_22 
REMARK    7  A    between atoms: N3_22  and  C18_23 
ROOT
HETATM    1  C8  UNL     1      22.522  -0.652  53.916  1.00  0.00     0.028 A 
HETATM    2  C9  UNL     1      22.690  -1.045  55.219  1.00  0.00     0.029 A 
HETATM    3  C10 UNL     1      23.901  -1.284  55.835  1.00  0.00     0.003 A 
HETATM    4  C11 UNL     1      25.042  -1.115  55.079  1.00  0.00     0.010 A 
HETATM    5  C12 UNL     1      24.919  -0.721  53.763  1.00  0.00    -0.028 A 
HETATM    6  C19 UNL     1      23.680  -0.499  53.211  1.00  0.00     0.038 A 
ENDROOT
BRANCH   5   7
HETATM    7  C13 UNL     1      26.123  -0.526  52.893  1.00  0.00     0.166 A 
HETATM    8  N2  UNL     1      26.917  -1.702  52.798  1.00  0.00    -0.385 N 
HETATM    9  C14 UNL     1      28.276  -1.951  53.092  1.00  0.00     0.085 A 
HETATM   10  H15 UNL     1      26.234  -2.390  52.445  1.00  0.00     0.160 HD
HETATM   11  C15 UNL     1      28.901  -0.894  53.535  1.00  0.00     0.038 A 
HETATM   12  C16 UNL     1      28.185   0.339  53.671  1.00  0.00     0.037 A 
HETATM   13 BR1  UNL     1      29.244   1.760  54.326  1.00  0.00    -0.049 Br
HETATM   14  C17 UNL     1      26.945   0.623  53.416  1.00  0.00     0.056 A 
BRANCH  14  15
HETATM   15  N3  UNL     1      26.142   1.747  53.504  1.00  0.00    -0.335 N 
HETATM   16  H18 UNL     1      25.987   2.241  54.426  1.00  0.00     0.168 HD
BRANCH  15  17
HETATM   17  C18 UNL     1      25.351   2.592  52.736  1.00  0.00     0.353 C 
HETATM   18  O2  UNL     1      24.460   3.208  53.333  1.00  0.00    -0.283 OA
ENDBRANCH  15  17
ENDBRANCH  14  15
ENDBRANCH   5   7
BRANCH   1  19
HETATM   19  N1  UNL     1      21.277  -0.400  53.300  1.00  0.00    -0.389 N 
HETATM   20  H10 UNL     1      20.861  -1.173  52.709  1.00  0.00     0.159 HD
BRANCH  19  21
HETATM   21  C7  UNL     1      20.439   0.775  53.338  1.00  0.00     0.135 C 
BRANCH  21  22
HETATM   22  C6  UNL     1      20.299   1.369  51.983  1.00  0.00     0.083 A 
HETATM   23  C2  UNL     1      21.386   2.325  51.640  1.00  0.00     0.055 A 
HETATM   24  C3  UNL     1      22.124   1.979  50.595  1.00  0.00     0.033 A 
HETATM   25  C4  UNL     1      21.568   0.709  50.133  1.00  0.00    -0.001 A 
HETATM   26  C5  UNL     1      20.545   0.350  50.896  1.00  0.00    -0.014 A 
BRANCH  23  27
HETATM   27  O1  UNL     1      21.547   3.483  52.419  1.00  0.00    -0.359 OA
HETATM   28  C1  UNL     1      21.523   4.740  51.730  1.00  0.00     0.209 C 
ENDBRANCH  23  27
ENDBRANCH  21  22
ENDBRANCH  19  21
ENDBRANCH   1  19
TORSDOF 7
ENDMDL
MODEL 8
REMARK VINA RESULT:      -7.0      2.626      3.765
REMARK  7 active torsions:
REMARK  status: ('A' for Active; 'I' for Inactive)
REMARK    1  A    between atoms: O1_2  and  C2_3 
REMARK    2  A    between atoms: C6_7  and  C7_8 
REMARK    3  A    between atoms: C7_8  and  N1_9 
REMARK    4  A    between atoms: N1_9  and  C8_10 
REMARK    5  A    between atoms: C12_14  and  C13_15 
REMARK    6  A    between atoms: C17_21  and  N3_22 
REMARK    7  A    between atoms: N3_22  and  C18_23 
ROOT
HETATM    1  C8  UNL     1      26.174   2.329  51.207  1.00  0.00     0.028 A 
HETATM    2  C9  UNL     1      26.452   3.327  50.309  1.00  0.00     0.029 A 
HETATM    3  C10 UNL     1      25.536   3.932  49.473  1.00  0.00     0.003 A 
HETATM    4  C11 UNL     1      24.229   3.497  49.543  1.00  0.00     0.010 A 
HETATM    5  C12 UNL     1      23.905   2.494  50.433  1.00  0.00    -0.028 A 
HETATM    6  C19 UNL     1      24.869   1.934  51.238  1.00  0.00     0.038 A 
ENDROOT
BRANCH   5   7
HETATM    7  C13 UNL     1      22.504   1.979  50.550  1.00  0.00     0.166 A 
HETATM    8  N2  UNL     1      22.077   1.303  49.374  1.00  0.00    -0.385 N 
HETATM    9  C14 UNL     1      20.978   1.510  48.511  1.00  0.00     0.085 A 
HETATM   10  H15 UNL     1      22.799   0.573  49.276  1.00  0.00     0.160 HD
HETATM   11  C15 UNL     1      20.230   2.517  48.874  1.00  0.00     0.038 A 
HETATM   12  C16 UNL     1      20.580   3.264  50.044  1.00  0.00     0.037 A 
HETATM   13 BR1  UNL     1      19.391   4.682  50.420  1.00  0.00    -0.049 Br
HETATM   14  C17 UNL     1      21.571   3.118  50.870  1.00  0.00     0.056 A 
BRANCH  14  15
HETATM   15  N3  UNL     1      22.019   3.758  52.013  1.00  0.00    -0.335 N 
HETATM   16  H18 UNL     1      22.026   3.269  52.950  1.00  0.00     0.168 HD
BRANCH  15  17
HETATM   17  C18 UNL     1      22.535   4.967  52.461  1.00  0.00     0.353 C 
HETATM   18  O2  UNL     1      23.632   4.922  53.030  1.00  0.00    -0.283 OA
ENDBRANCH  15  17
ENDBRANCH  14  15
ENDBRANCH   5   7
BRANCH   1  19
HETATM   19  N1  UNL     1      27.119   1.727  52.065  1.00  0.00    -0.389 N 
HETATM   20  H10 UNL     1      27.634   0.877  51.701  1.00  0.00     0.159 HD
BRANCH  19  21
HETATM   21  C7  UNL     1      27.522   2.081  53.405  1.00  0.00     0.135 C 
BRANCH  21  22
HETATM   22  C6  UNL     1      27.912   0.873  54.178  1.00  0.00     0.083 A 
HETATM   23  C2  UNL     1      27.529  -0.403  53.516  1.00  0.00     0.055 A 
HETATM   24  C3  UNL     1      28.545  -1.194  53.200  1.00  0.00     0.033 A 
HETATM   25  C4  UNL     1      29.742  -0.482  53.643  1.00  0.00    -0.001 A 
HETATM   26  C5  UNL     1      29.409   0.678  54.194  1.00  0.00    -0.014 A 
BRANCH  23  27
HETATM   27  O1  UNL     1      26.170  -0.669  53.282  1.00  0.00    -0.359 OA
HETATM   28  C1  UNL     1      25.298  -0.658  54.420  1.00  0.00     0.209 C 
ENDBRANCH  23  27
ENDBRANCH  21  22
ENDBRANCH  19  21
ENDBRANCH   1  19
TORSDOF 7
ENDMDL
MODEL 9
REMARK VINA RESULT:      -6.9      2.951      7.045
REMARK  7 active torsions:
REMARK  status: ('A' for Active; 'I' for Inactive)
REMARK    1  A    between atoms: O1_2  and  C2_3 
REMARK    2  A    between atoms: C6_7  and  C7_8 
REMARK    3  A    between atoms: C7_8  and  N1_9 
REMARK    4  A    between atoms: N1_9  and  C8_10 
REMARK    5  A    between atoms: C12_14  and  C13_15 
REMARK    6  A    between atoms: C17_21  and  N3_22 
REMARK    7  A    between atoms: N3_22  and  C18_23 
ROOT
HETATM    1  C8  UNL     1      24.730   3.143  50.702  1.00  0.00     0.028 A 
HETATM    2  C9  UNL     1      23.402   3.012  51.022  1.00  0.00     0.029 A 
HETATM    3  C10 UNL     1      22.909   2.541  52.222  1.00  0.00     0.003 A 
HETATM    4  C11 UNL     1      23.826   2.169  53.183  1.00  0.00     0.010 A 
HETATM    5  C12 UNL     1      25.171   2.284  52.902  1.00  0.00    -0.028 A 
HETATM    6  C19 UNL     1      25.595   2.761  51.685  1.00  0.00     0.038 A 
ENDROOT
BRANCH   5   7
HETATM    7  C13 UNL     1      26.211   1.890  53.906  1.00  0.00     0.166 A 
HETATM    8  N2  UNL     1      27.342   2.754  53.879  1.00  0.00    -0.385 N 
HETATM    9  C14 UNL     1      28.718   2.503  53.681  1.00  0.00     0.085 A 
HETATM   10  H15 UNL     1      26.907   3.675  54.044  1.00  0.00     0.160 HD
HETATM   11  C15 UNL     1      28.980   1.240  53.485  1.00  0.00     0.038 A 
HETATM   12  C16 UNL     1      27.907   0.291  53.489  1.00  0.00     0.037 A 
HETATM   13 BR1  UNL     1      28.467  -1.488  53.189  1.00  0.00    -0.049 Br
HETATM   14  C17 UNL     1      26.633   0.464  53.666  1.00  0.00     0.056 A 
BRANCH  14  15
HETATM   15  N3  UNL     1      25.511  -0.346  53.690  1.00  0.00    -0.335 N 
HETATM   16  H18 UNL     1      24.986  -0.585  52.804  1.00  0.00     0.168 HD
BRANCH  15  17
HETATM   17  C18 UNL     1      24.697  -1.066  54.555  1.00  0.00     0.353 C 
HETATM   18  O2  UNL     1      25.172  -1.336  55.664  1.00  0.00    -0.283 OA
ENDBRANCH  15  17
ENDBRANCH  14  15
ENDBRANCH   5   7
BRANCH   1  19
HETATM   19  N1  UNL     1      25.221   3.636  49.474  1.00  0.00    -0.389 N 
HETATM   20  H10 UNL     1      25.686   2.943  48.823  1.00  0.00     0.159 HD
BRANCH  19  21
HETATM   21  C7  UNL     1      25.199   4.973  48.931  1.00  0.00     0.135 C 
BRANCH  21  22
HETATM   22  C6  UNL     1      26.135   5.860  49.670  1.00  0.00     0.083 A 
HETATM   23  C2  UNL     1      26.954   6.729  48.783  1.00  0.00     0.055 A 
HETATM   24  C3  UNL     1      26.769   8.031  48.952  1.00  0.00     0.033 A 
HETATM   25  C4  UNL     1      25.770   8.145  50.011  1.00  0.00    -0.001 A 
HETATM   26  C5  UNL     1      25.401   6.941  50.428  1.00  0.00    -0.014 A 
BRANCH  23  27
HETATM   27  O1  UNL     1      27.832   6.131  47.863  1.00  0.00    -0.359 OA
HETATM   28  C1  UNL     1      29.117   5.731  48.355  1.00  0.00     0.209 C 
ENDBRANCH  23  27
ENDBRANCH  21  22
ENDBRANCH  19  21
ENDBRANCH   1  19
TORSDOF 7
ENDMDL
