MODEL 1
REMARK VINA RESULT:      -8.8      0.000      0.000
REMARK  6 active torsions:
REMARK  status: ('A' for Active; 'I' for Inactive)
REMARK    1  A    between atoms: C2_2  and  C3_3 
REMARK    2  A    between atoms: C3_3  and  C4_4 
REMARK    3  A    between atoms: C4_4  and  C5_5 
REMARK    4  A    between atoms: C7_7  and  C8_8 
REMARK    5  A    between atoms: C13_15  and  C14_16 
REMARK    6  A    between atoms: C17_19  and  O2_20 
ROOT
HETATM    1  C8  UNL     1      25.023   1.520  52.964  1.00  0.00     0.048 C 
HETATM    2  C9  UNL     1      24.322   0.588  53.564  1.00  0.00     0.047 A 
HETATM    3  C10 UNL     1      24.646  -0.368  54.613  1.00  0.00     0.257 A 
HETATM    4  O1  UNL     1      25.744  -0.483  55.177  1.00  0.00    -0.267 OA
HETATM    5  N1  UNL     1      23.549  -1.198  54.953  1.00  0.00    -0.322 N 
HETATM    6  C11 UNL     1      22.515  -0.743  54.090  1.00  0.00     0.047 A 
HETATM    7  C12 UNL     1      21.198  -1.196  53.978  1.00  0.00     0.042 A 
HETATM    8  C13 UNL     1      20.301  -0.653  53.085  1.00  0.00    -0.024 A 
HETATM    9  C21 UNL     1      20.687   0.378  52.258  1.00  0.00     0.013 A 
HETATM   10  C22 UNL     1      21.989   0.816  52.380  1.00  0.00     0.015 A 
HETATM   11  C23 UNL     1      22.908   0.286  53.268  1.00  0.00     0.006 A 
HETATM   12  H11 UNL     1      23.469  -1.960  55.649  1.00  0.00     0.169 HD
ENDROOT
BRANCH   1  13
HETATM   13  C7  UNL     1      26.399   1.924  53.151  1.00  0.00     0.046 C 
HETATM   14  C6  UNL     1      27.443   1.993  52.371  1.00  0.00     0.028 C 
HETATM   15  C5  UNL     1      28.183   1.650  53.413  1.00  0.00     0.023 C 
HETATM   16  N2  UNL     1      27.260   2.404  54.172  1.00  0.00    -0.358 N 
HETATM   17  H22 UNL     1      27.242   2.987  55.016  1.00  0.00     0.166 HD
BRANCH  15  18
HETATM   18  C4  UNL     1      29.403   0.860  53.707  1.00  0.00     0.058 C 
BRANCH  18  19
HETATM   19  C3  UNL     1      29.021  -0.502  54.267  1.00  0.00     0.006 C 
BRANCH  19  20
HETATM   20  C2  UNL     1      29.065  -1.543  53.162  1.00  0.00    -0.004 C 
HETATM   21  C1  UNL     1      27.631  -1.918  52.767  1.00  0.00     0.005 C 
ENDBRANCH  19  20
ENDBRANCH  18  19
ENDBRANCH  15  18
ENDBRANCH   1  13
BRANCH   8  22
HETATM   22  C14 UNL     1      18.922  -1.111  52.948  1.00  0.00    -0.026 A 
HETATM   23  C15 UNL     1      18.461  -2.260  53.599  1.00  0.00     0.015 A 
HETATM   24  C16 UNL     1      17.146  -2.651  53.434  1.00  0.00     0.037 A 
HETATM   25  C17 UNL     1      16.247  -1.945  52.641  1.00  0.00     0.068 A 
HETATM   26  C19 UNL     1      16.700  -0.795  51.987  1.00  0.00     0.037 A 
HETATM   27  C20 UNL     1      17.999  -0.419  52.156  1.00  0.00     0.015 A 
BRANCH  25  28
HETATM   28  O2  UNL     1      14.928  -2.279  52.436  1.00  0.00    -0.356 OA
HETATM   29  C18 UNL     1      14.473  -3.276  51.555  1.00  0.00     0.210 C 
ENDBRANCH  25  28
ENDBRANCH   8  22
TORSDOF 6
ENDMDL
MODEL 2
REMARK VINA RESULT:      -8.3      1.798      2.374
REMARK  6 active torsions:
REMARK  status: ('A' for Active; 'I' for Inactive)
REMARK    1  A    between atoms: C2_2  and  C3_3 
REMARK    2  A    between atoms: C3_3  and  C4_4 
REMARK    3  A    between atoms: C4_4  and  C5_5 
REMARK    4  A    between atoms: C7_7  and  C8_8 
REMARK    5  A    between atoms: C13_15  and  C14_16 
REMARK    6  A    between atoms: C17_19  and  O2_20 
ROOT
HETATM    1  C8  UNL     1      24.813   1.241  53.159  1.00  0.00     0.048 C 
HETATM    2  C9  UNL     1      23.862   1.373  52.265  1.00  0.00     0.047 A 
HETATM    3  C10 UNL     1      23.805   2.049  50.978  1.00  0.00     0.257 A 
HETATM    4  O1  UNL     1      24.730   2.681  50.447  1.00  0.00    -0.267 OA
HETATM    5  N1  UNL     1      22.542   1.919  50.349  1.00  0.00    -0.322 N 
HETATM    6  C11 UNL     1      21.794   1.140  51.274  1.00  0.00     0.047 A 
HETATM    7  C12 UNL     1      20.472   0.697  51.185  1.00  0.00     0.042 A 
HETATM    8  C13 UNL     1      19.876  -0.058  52.172  1.00  0.00    -0.024 A 
HETATM    9  C21 UNL     1      20.586  -0.404  53.300  1.00  0.00     0.013 A 
HETATM   10  C22 UNL     1      21.889   0.039  53.374  1.00  0.00     0.015 A 
HETATM   11  C23 UNL     1      22.509   0.798  52.396  1.00  0.00     0.006 A 
HETATM   12  H11 UNL     1      22.199   2.282  49.442  1.00  0.00     0.169 HD
ENDROOT
BRANCH   1  13
HETATM   13  C7  UNL     1      26.171   1.742  53.163  1.00  0.00     0.046 C 
HETATM   14  C6  UNL     1      27.244   1.471  52.473  1.00  0.00     0.028 C 
HETATM   15  C5  UNL     1      27.948   1.702  53.570  1.00  0.00     0.023 C 
HETATM   16  N2  UNL     1      26.975   2.688  53.848  1.00  0.00    -0.358 N 
HETATM   17  H22 UNL     1      26.908   3.604  54.306  1.00  0.00     0.166 HD
BRANCH  15  18
HETATM   18  C4  UNL     1      29.173   1.202  54.238  1.00  0.00     0.058 C 
BRANCH  18  19
HETATM   19  C3  UNL     1      29.041  -0.287  54.524  1.00  0.00     0.006 C 
BRANCH  19  20
HETATM   20  C2  UNL     1      29.844  -1.079  53.508  1.00  0.00    -0.004 C 
HETATM   21  C1  UNL     1      29.067  -2.346  53.129  1.00  0.00     0.005 C 
ENDBRANCH  19  20
ENDBRANCH  18  19
ENDBRANCH  15  18
ENDBRANCH   1  13
BRANCH   8  22
HETATM   22  C14 UNL     1      18.497  -0.530  52.103  1.00  0.00    -0.026 A 
HETATM   23  C15 UNL     1      17.604  -0.055  51.137  1.00  0.00     0.015 A 
HETATM   24  C16 UNL     1      16.309  -0.534  51.117  1.00  0.00     0.037 A 
HETATM   25  C17 UNL     1      15.845  -1.480  52.024  1.00  0.00     0.068 A 
HETATM   26  C19 UNL     1      16.731  -1.961  52.994  1.00  0.00     0.037 A 
HETATM   27  C20 UNL     1      18.006  -1.481  53.004  1.00  0.00     0.015 A 
BRANCH  25  28
HETATM   28  O2  UNL     1      14.570  -1.998  52.059  1.00  0.00    -0.356 OA
HETATM   29  C18 UNL     1      14.218  -3.245  52.606  1.00  0.00     0.210 C 
ENDBRANCH  25  28
ENDBRANCH   8  22
TORSDOF 6
ENDMDL
MODEL 3
REMARK VINA RESULT:      -8.3      2.272      3.164
REMARK  6 active torsions:
REMARK  status: ('A' for Active; 'I' for Inactive)
REMARK    1  A    between atoms: C2_2  and  C3_3 
REMARK    2  A    between atoms: C3_3  and  C4_4 
REMARK    3  A    between atoms: C4_4  and  C5_5 
REMARK    4  A    between atoms: C7_7  and  C8_8 
REMARK    5  A    between atoms: C13_15  and  C14_16 
REMARK    6  A    between atoms: C17_19  and  O2_20 
ROOT
HETATM    1  C8  UNL     1      24.184  -0.267  53.288  1.00  0.00     0.048 C 
HETATM    2  C9  UNL     1      22.936  -0.519  53.602  1.00  0.00     0.047 A 
HETATM    3  C10 UNL     1      22.317  -1.136  54.765  1.00  0.00     0.257 A 
HETATM    4  O1  UNL     1      22.914  -1.575  55.759  1.00  0.00    -0.267 OA
HETATM    5  N1  UNL     1      20.905  -1.197  54.664  1.00  0.00    -0.322 N 
HETATM    6  C11 UNL     1      20.641  -0.601  53.401  1.00  0.00     0.047 A 
HETATM    7  C12 UNL     1      19.415  -0.387  52.766  1.00  0.00     0.042 A 
HETATM    8  C13 UNL     1      19.315   0.209  51.528  1.00  0.00    -0.024 A 
HETATM    9  C21 UNL     1      20.450   0.621  50.866  1.00  0.00     0.013 A 
HETATM   10  C22 UNL     1      21.653   0.404  51.504  1.00  0.00     0.015 A 
HETATM   11  C23 UNL     1      21.778  -0.192  52.747  1.00  0.00     0.006 A 
HETATM   12  H11 UNL     1      20.197  -1.572  55.319  1.00  0.00     0.169 HD
ENDROOT
BRANCH   1  13
HETATM   13  C7  UNL     1      25.405  -0.527  54.019  1.00  0.00     0.046 C 
HETATM   14  C6  UNL     1      25.902  -0.096  55.146  1.00  0.00     0.028 C 
HETATM   15  C5  UNL     1      27.100  -0.171  54.590  1.00  0.00     0.023 C 
HETATM   16  N2  UNL     1      26.589  -1.301  53.913  1.00  0.00    -0.358 N 
HETATM   17  H22 UNL     1      26.919  -2.201  53.547  1.00  0.00     0.166 HD
BRANCH  15  18
HETATM   18  C4  UNL     1      28.395   0.551  54.621  1.00  0.00     0.058 C 
BRANCH  18  19
HETATM   19  C3  UNL     1      28.679   1.173  53.261  1.00  0.00     0.006 C 
BRANCH  19  20
HETATM   20  C2  UNL     1      27.740   2.343  53.025  1.00  0.00    -0.004 C 
HETATM   21  C1  UNL     1      26.907   2.074  51.766  1.00  0.00     0.005 C 
ENDBRANCH  19  20
ENDBRANCH  18  19
ENDBRANCH  15  18
ENDBRANCH   1  13
BRANCH   8  22
HETATM   22  C14 UNL     1      18.046   0.440  50.845  1.00  0.00    -0.026 A 
HETATM   23  C15 UNL     1      16.960  -0.428  50.997  1.00  0.00     0.015 A 
HETATM   24  C16 UNL     1      15.782  -0.164  50.327  1.00  0.00     0.037 A 
HETATM   25  C17 UNL     1      15.622   0.941  49.496  1.00  0.00     0.068 A 
HETATM   26  C19 UNL     1      16.704   1.814  49.339  1.00  0.00     0.037 A 
HETATM   27  C20 UNL     1      17.861   1.543  50.005  1.00  0.00     0.015 A 
BRANCH  25  28
HETATM   28  O2  UNL     1      14.479   1.262  48.801  1.00  0.00    -0.356 OA
HETATM   29  C18 UNL     1      13.449   2.093  49.277  1.00  0.00     0.210 C 
ENDBRANCH  25  28
ENDBRANCH   8  22
TORSDOF 6
ENDMDL
MODEL 4
REMARK VINA RESULT:      -8.1      1.973      2.842
REMARK  6 active torsions:
REMARK  status: ('A' for Active; 'I' for Inactive)
REMARK    1  A    between atoms: C2_2  and  C3_3 
REMARK    2  A    between atoms: C3_3  and  C4_4 
REMARK    3  A    between atoms: C4_4  and  C5_5 
REMARK    4  A    between atoms: C7_7  and  C8_8 
REMARK    5  A    between atoms: C13_15  and  C14_16 
REMARK    6  A    between atoms: C17_19  and  O2_20 
ROOT
HETATM    1  C8  UNL     1      23.321   0.170  53.065  1.00  0.00     0.048 C 
HETATM    2  C9  UNL     1      22.189  -0.364  53.460  1.00  0.00     0.047 A 
HETATM    3  C10 UNL     1      21.842  -1.219  54.586  1.00  0.00     0.257 A 
HETATM    4  O1  UNL     1      22.626  -1.635  55.451  1.00  0.00    -0.267 OA
HETATM    5  N1  UNL     1      20.465  -1.552  54.612  1.00  0.00    -0.322 N 
HETATM    6  C11 UNL     1      19.944  -0.885  53.470  1.00  0.00     0.047 A 
HETATM    7  C12 UNL     1      18.633  -0.855  52.989  1.00  0.00     0.042 A 
HETATM    8  C13 UNL     1      18.275  -0.159  51.856  1.00  0.00    -0.024 A 
HETATM    9  C21 UNL     1      19.225   0.546  51.149  1.00  0.00     0.013 A 
HETATM   10  C22 UNL     1      20.514   0.508  51.635  1.00  0.00     0.015 A 
HETATM   11  C23 UNL     1      20.897  -0.185  52.770  1.00  0.00     0.006 A 
HETATM   12  H11 UNL     1      19.924  -2.133  55.276  1.00  0.00     0.169 HD
ENDROOT
BRANCH   1  13
HETATM   13  C7  UNL     1      24.648   0.083  53.637  1.00  0.00     0.046 C 
HETATM   14  C6  UNL     1      25.672   0.888  53.688  1.00  0.00     0.028 C 
HETATM   15  C5  UNL     1      26.452  -0.178  53.599  1.00  0.00     0.023 C 
HETATM   16  N2  UNL     1      25.458  -0.827  54.364  1.00  0.00    -0.358 N 
HETATM   17  H22 UNL     1      25.382  -1.566  55.072  1.00  0.00     0.166 HD
BRANCH  15  18
HETATM   18  C4  UNL     1      27.752  -0.566  53.001  1.00  0.00     0.058 C 
BRANCH  18  19
HETATM   19  C3  UNL     1      28.897   0.006  53.825  1.00  0.00     0.006 C 
BRANCH  19  20
HETATM   20  C2  UNL     1      30.090  -0.931  53.767  1.00  0.00    -0.004 C 
HETATM   21  C1  UNL     1      29.611  -2.331  53.360  1.00  0.00     0.005 C 
ENDBRANCH  19  20
ENDBRANCH  18  19
ENDBRANCH  15  18
ENDBRANCH   1  13
BRANCH   8  22
HETATM   22  C14 UNL     1      16.913  -0.115  51.333  1.00  0.00    -0.026 A 
HETATM   23  C15 UNL     1      15.843   0.347  52.105  1.00  0.00     0.015 A 
HETATM   24  C16 UNL     1      14.573   0.366  51.562  1.00  0.00     0.037 A 
HETATM   25  C17 UNL     1      14.305  -0.058  50.265  1.00  0.00     0.068 A 
HETATM   26  C19 UNL     1      15.370  -0.523  49.486  1.00  0.00     0.037 A 
HETATM   27  C20 UNL     1      16.618  -0.537  50.032  1.00  0.00     0.015 A 
BRANCH  25  28
HETATM   28  O2  UNL     1      13.067  -0.065  49.665  1.00  0.00    -0.356 OA
HETATM   29  C18 UNL     1      11.877  -0.506  50.269  1.00  0.00     0.210 C 
ENDBRANCH  25  28
ENDBRANCH   8  22
TORSDOF 6
ENDMDL
MODEL 5
REMARK VINA RESULT:      -8.0      2.585      9.762
REMARK  6 active torsions:
REMARK  status: ('A' for Active; 'I' for Inactive)
REMARK    1  A    between atoms: C2_2  and  C3_3 
REMARK    2  A    between atoms: C3_3  and  C4_4 
REMARK    3  A    between atoms: C4_4  and  C5_5 
REMARK    4  A    between atoms: C7_7  and  C8_8 
REMARK    5  A    between atoms: C13_15  and  C14_16 
REMARK    6  A    between atoms: C17_19  and  O2_20 
ROOT
HETATM    1  C8  UNL     1      18.351  -0.693  52.664  1.00  0.00     0.048 C 
HETATM    2  C9  UNL     1      19.351  -0.101  52.055  1.00  0.00     0.047 A 
HETATM    3  C10 UNL     1      19.433   0.697  50.841  1.00  0.00     0.257 A 
HETATM    4  O1  UNL     1      18.486   0.985  50.095  1.00  0.00    -0.267 OA
HETATM    5  N1  UNL     1      20.751   1.140  50.568  1.00  0.00    -0.322 N 
HETATM    6  C11 UNL     1      21.508   0.600  51.644  1.00  0.00     0.047 A 
HETATM    7  C12 UNL     1      22.877   0.710  51.901  1.00  0.00     0.042 A 
HETATM    8  C13 UNL     1      23.475   0.125  52.995  1.00  0.00    -0.024 A 
HETATM    9  C21 UNL     1      22.720  -0.602  53.888  1.00  0.00     0.013 A 
HETATM   10  C22 UNL     1      21.371  -0.702  53.623  1.00  0.00     0.015 A 
HETATM   11  C23 UNL     1      20.748  -0.124  52.531  1.00  0.00     0.006 A 
HETATM   12  H11 UNL     1      21.123   1.714  49.791  1.00  0.00     0.169 HD
ENDROOT
BRANCH   1  13
HETATM   13  C7  UNL     1      16.947  -0.752  52.319  1.00  0.00     0.046 C 
HETATM   14  C6  UNL     1      15.837  -0.627  52.992  1.00  0.00     0.028 C 
HETATM   15  C5  UNL     1      15.306  -1.537  52.191  1.00  0.00     0.023 C 
HETATM   16  N2  UNL     1      16.116  -0.960  51.188  1.00  0.00    -0.358 N 
HETATM   17  H22 UNL     1      16.095  -0.789  50.176  1.00  0.00     0.166 HD
BRANCH  15  18
HETATM   18  C4  UNL     1      14.328  -2.650  52.255  1.00  0.00     0.058 C 
BRANCH  18  19
HETATM   19  C3  UNL     1      15.041  -3.982  52.067  1.00  0.00     0.006 C 
BRANCH  19  20
HETATM   20  C2  UNL     1      15.535  -4.494  53.408  1.00  0.00    -0.004 C 
HETATM   21  C1  UNL     1      17.064  -4.383  53.457  1.00  0.00     0.005 C 
ENDBRANCH  19  20
ENDBRANCH  18  19
ENDBRANCH  15  18
ENDBRANCH   1  13
BRANCH   8  22
HETATM   22  C14 UNL     1      24.902   0.225  53.283  1.00  0.00    -0.026 A 
HETATM   23  C15 UNL     1      25.421  -0.076  54.545  1.00  0.00     0.015 A 
HETATM   24  C16 UNL     1      26.780   0.036  54.765  1.00  0.00     0.037 A 
HETATM   25  C17 UNL     1      27.669   0.439  53.774  1.00  0.00     0.068 A 
HETATM   26  C19 UNL     1      27.158   0.743  52.507  1.00  0.00     0.037 A 
HETATM   27  C20 UNL     1      25.816   0.629  52.303  1.00  0.00     0.015 A 
BRANCH  25  28
HETATM   28  O2  UNL     1      29.031   0.571  53.925  1.00  0.00    -0.356 OA
HETATM   29  C18 UNL     1      29.983  -0.401  53.571  1.00  0.00     0.210 C 
ENDBRANCH  25  28
ENDBRANCH   8  22
TORSDOF 6
ENDMDL
MODEL 6
REMARK VINA RESULT:      -8.0      2.994     10.023
REMARK  6 active torsions:
REMARK  status: ('A' for Active; 'I' for Inactive)
REMARK    1  A    between atoms: C2_2  and  C3_3 
REMARK    2  A    between atoms: C3_3  and  C4_4 
REMARK    3  A    between atoms: C4_4  and  C5_5 
REMARK    4  A    between atoms: C7_7  and  C8_8 
REMARK    5  A    between atoms: C13_15  and  C14_16 
REMARK    6  A    between atoms: C17_19  and  O2_20 
ROOT
HETATM    1  C8  UNL     1      18.413   0.450  51.432  1.00  0.00     0.048 C 
HETATM    2  C9  UNL     1      19.231  -0.086  52.306  1.00  0.00     0.047 A 
HETATM    3  C10 UNL     1      19.026  -1.014  53.408  1.00  0.00     0.257 A 
HETATM    4  O1  UNL     1      17.942  -1.508  53.750  1.00  0.00    -0.267 OA
HETATM    5  N1  UNL     1      20.228  -1.322  54.092  1.00  0.00    -0.322 N 
HETATM    6  C11 UNL     1      21.206  -0.562  53.394  1.00  0.00     0.047 A 
HETATM    7  C12 UNL     1      22.581  -0.470  53.626  1.00  0.00     0.042 A 
HETATM    8  C13 UNL     1      23.411   0.318  52.859  1.00  0.00    -0.024 A 
HETATM    9  C21 UNL     1      22.895   1.053  51.815  1.00  0.00     0.013 A 
HETATM   10  C22 UNL     1      21.537   0.952  51.597  1.00  0.00     0.015 A 
HETATM   11  C23 UNL     1      20.684   0.169  52.354  1.00  0.00     0.006 A 
HETATM   12  H11 UNL     1      20.404  -1.940  54.904  1.00  0.00     0.169 HD
ENDROOT
BRANCH   1  13
HETATM   13  C7  UNL     1      16.984   0.292  51.266  1.00  0.00     0.046 C 
HETATM   14  C6  UNL     1      16.136   0.603  50.325  1.00  0.00     0.028 C 
HETATM   15  C5  UNL     1      15.246   0.844  51.274  1.00  0.00     0.023 C 
HETATM   16  N2  UNL     1      15.862  -0.224  51.964  1.00  0.00    -0.358 N 
HETATM   17  H22 UNL     1      15.611  -0.972  52.620  1.00  0.00     0.166 HD
BRANCH  15  18
HETATM   18  C4  UNL     1      14.121   1.772  51.542  1.00  0.00     0.058 C 
BRANCH  18  19
HETATM   19  C3  UNL     1      14.500   2.745  52.650  1.00  0.00     0.006 C 
BRANCH  19  20
HETATM   20  C2  UNL     1      13.650   3.998  52.546  1.00  0.00    -0.004 C 
HETATM   21  C1  UNL     1      13.070   4.330  53.926  1.00  0.00     0.005 C 
ENDBRANCH  19  20
ENDBRANCH  18  19
ENDBRANCH  15  18
ENDBRANCH   1  13
BRANCH   8  22
HETATM   22  C14 UNL     1      24.848   0.432  53.084  1.00  0.00    -0.026 A 
HETATM   23  C15 UNL     1      25.438   1.637  53.475  1.00  0.00     0.015 A 
HETATM   24  C16 UNL     1      26.804   1.691  53.673  1.00  0.00     0.037 A 
HETATM   25  C17 UNL     1      27.632   0.586  53.500  1.00  0.00     0.068 A 
HETATM   26  C19 UNL     1      27.049  -0.624  53.109  1.00  0.00     0.037 A 
HETATM   27  C20 UNL     1      25.701  -0.665  52.916  1.00  0.00     0.015 A 
BRANCH  25  28
HETATM   28  O2  UNL     1      28.996   0.571  53.681  1.00  0.00    -0.356 OA
HETATM   29  C18 UNL     1      29.808  -0.575  53.620  1.00  0.00     0.210 C 
ENDBRANCH  25  28
ENDBRANCH   8  22
TORSDOF 6
ENDMDL
MODEL 7
REMARK VINA RESULT:      -7.9      2.655      9.841
REMARK  6 active torsions:
REMARK  status: ('A' for Active; 'I' for Inactive)
REMARK    1  A    between atoms: C2_2  and  C3_3 
REMARK    2  A    between atoms: C3_3  and  C4_4 
REMARK    3  A    between atoms: C4_4  and  C5_5 
REMARK    4  A    between atoms: C7_7  and  C8_8 
REMARK    5  A    between atoms: C13_15  and  C14_16 
REMARK    6  A    between atoms: C17_19  and  O2_20 
ROOT
HETATM    1  C8  UNL     1      18.357  -1.089  53.104  1.00  0.00     0.048 C 
HETATM    2  C9  UNL     1      19.170  -0.169  52.642  1.00  0.00     0.047 A 
HETATM    3  C10 UNL     1      18.953   1.021  51.833  1.00  0.00     0.257 A 
HETATM    4  O1  UNL     1      17.862   1.413  51.394  1.00  0.00    -0.267 OA
HETATM    5  N1  UNL     1      20.153   1.731  51.575  1.00  0.00    -0.322 N 
HETATM    6  C11 UNL     1      21.141   0.958  52.243  1.00  0.00     0.047 A 
HETATM    7  C12 UNL     1      22.518   1.176  52.334  1.00  0.00     0.042 A 
HETATM    8  C13 UNL     1      23.359   0.330  53.023  1.00  0.00    -0.024 A 
HETATM    9  C21 UNL     1      22.851  -0.781  53.658  1.00  0.00     0.013 A 
HETATM   10  C22 UNL     1      21.491  -0.984  53.562  1.00  0.00     0.015 A 
HETATM   11  C23 UNL     1      20.627  -0.149  52.875  1.00  0.00     0.006 A 
HETATM   12  H11 UNL     1      20.321   2.601  51.039  1.00  0.00     0.169 HD
ENDROOT
BRANCH   1  13
HETATM   13  C7  UNL     1      16.925  -1.233  52.958  1.00  0.00     0.046 C 
HETATM   14  C6  UNL     1      16.143  -2.192  52.547  1.00  0.00     0.028 C 
HETATM   15  C5  UNL     1      15.350  -1.262  52.040  1.00  0.00     0.023 C 
HETATM   16  N2  UNL     1      15.734  -0.488  53.158  1.00  0.00    -0.358 N 
HETATM   17  H22 UNL     1      15.342   0.231  53.777  1.00  0.00     0.166 HD
BRANCH  15  18
HETATM   18  C4  UNL     1      14.460  -1.066  50.870  1.00  0.00     0.058 C 
BRANCH  18  19
HETATM   19  C3  UNL     1      15.095  -0.090  49.889  1.00  0.00     0.006 C 
BRANCH  19  20
HETATM   20  C2  UNL     1      16.209  -0.782  49.124  1.00  0.00    -0.004 C 
HETATM   21  C1  UNL     1      15.599  -1.831  48.186  1.00  0.00     0.005 C 
ENDBRANCH  19  20
ENDBRANCH  18  19
ENDBRANCH  15  18
ENDBRANCH   1  13
BRANCH   8  22
HETATM   22  C14 UNL     1      24.799   0.536  53.128  1.00  0.00    -0.026 A 
HETATM   23  C15 UNL     1      25.341   1.773  53.489  1.00  0.00     0.015 A 
HETATM   24  C16 UNL     1      26.713   1.915  53.573  1.00  0.00     0.037 A 
HETATM   25  C17 UNL     1      27.592   0.869  53.313  1.00  0.00     0.068 A 
HETATM   26  C19 UNL     1      27.058  -0.373  52.951  1.00  0.00     0.037 A 
HETATM   27  C20 UNL     1      25.704  -0.500  52.872  1.00  0.00     0.015 A 
BRANCH  25  28
HETATM   28  O2  UNL     1      28.965   0.942  53.378  1.00  0.00    -0.356 OA
HETATM   29  C18 UNL     1      29.824  -0.147  53.611  1.00  0.00     0.210 C 
ENDBRANCH  25  28
ENDBRANCH   8  22
TORSDOF 6
ENDMDL
MODEL 8
REMARK VINA RESULT:      -7.8      5.952      8.268
REMARK  6 active torsions:
REMARK  status: ('A' for Active; 'I' for Inactive)
REMARK    1  A    between atoms: C2_2  and  C3_3 
REMARK    2  A    between atoms: C3_3  and  C4_4 
REMARK    3  A    between atoms: C4_4  and  C5_5 
REMARK    4  A    between atoms: C7_7  and  C8_8 
REMARK    5  A    between atoms: C13_15  and  C14_16 
REMARK    6  A    between atoms: C17_19  and  O2_20 
ROOT
HETATM    1  C8  UNL     1      28.175   5.771  48.344  1.00  0.00     0.048 C 
HETATM    2  C9  UNL     1      26.883   5.701  48.559  1.00  0.00     0.047 A 
HETATM    3  C10 UNL     1      25.774   6.570  48.191  1.00  0.00     0.257 A 
HETATM    4  O1  UNL     1      25.861   7.627  47.551  1.00  0.00    -0.267 OA
HETATM    5  N1  UNL     1      24.525   6.081  48.648  1.00  0.00    -0.322 N 
HETATM    6  C11 UNL     1      24.869   4.876  49.319  1.00  0.00     0.047 A 
HETATM    7  C12 UNL     1      24.038   3.963  49.973  1.00  0.00     0.042 A 
HETATM    8  C13 UNL     1      24.522   2.828  50.585  1.00  0.00    -0.024 A 
HETATM    9  C21 UNL     1      25.871   2.555  50.568  1.00  0.00     0.013 A 
HETATM   10  C22 UNL     1      26.679   3.463  49.918  1.00  0.00     0.015 A 
HETATM   11  C23 UNL     1      26.218   4.610  49.297  1.00  0.00     0.006 A 
HETATM   12  H11 UNL     1      23.570   6.468  48.545  1.00  0.00     0.169 HD
ENDROOT
BRANCH   1  13
HETATM   13  C7  UNL     1      28.957   6.768  47.644  1.00  0.00     0.046 C 
HETATM   14  C6  UNL     1      30.171   7.227  47.770  1.00  0.00     0.028 C 
HETATM   15  C5  UNL     1      29.708   8.412  47.404  1.00  0.00     0.023 C 
HETATM   16  N2  UNL     1      28.832   7.684  46.568  1.00  0.00    -0.358 N 
HETATM   17  H22 UNL     1      28.364   7.783  45.660  1.00  0.00     0.166 HD
BRANCH  15  18
HETATM   18  C4  UNL     1      29.951   9.845  47.694  1.00  0.00     0.058 C 
BRANCH  18  19
HETATM   19  C3  UNL     1      28.809  10.410  48.528  1.00  0.00     0.006 C 
BRANCH  19  20
HETATM   20  C2  UNL     1      28.750   9.696  49.867  1.00  0.00    -0.004 C 
HETATM   21  C1  UNL     1      27.302   9.278  50.151  1.00  0.00     0.005 C 
ENDBRANCH  19  20
ENDBRANCH  18  19
ENDBRANCH  15  18
ENDBRANCH   1  13
BRANCH   8  22
HETATM   22  C14 UNL     1      23.673   1.862  51.276  1.00  0.00    -0.026 A 
HETATM   23  C15 UNL     1      22.458   1.431  50.736  1.00  0.00     0.015 A 
HETATM   24  C16 UNL     1      21.692   0.516  51.433  1.00  0.00     0.037 A 
HETATM   25  C17 UNL     1      22.080  -0.005  52.663  1.00  0.00     0.068 A 
HETATM   26  C19 UNL     1      23.295   0.421  53.210  1.00  0.00     0.037 A 
HETATM   27  C20 UNL     1      24.041   1.324  52.515  1.00  0.00     0.015 A 
BRANCH  25  28
HETATM   28  O2  UNL     1      21.367  -0.916  53.407  1.00  0.00    -0.356 OA
HETATM   29  C18 UNL     1      21.781  -1.459  54.636  1.00  0.00     0.210 C 
ENDBRANCH  25  28
ENDBRANCH   8  22
TORSDOF 6
ENDMDL
MODEL 9
REMARK VINA RESULT:      -7.8      4.887     10.388
REMARK  6 active torsions:
REMARK  status: ('A' for Active; 'I' for Inactive)
REMARK    1  A    between atoms: C2_2  and  C3_3 
REMARK    2  A    between atoms: C3_3  and  C4_4 
REMARK    3  A    between atoms: C4_4  and  C5_5 
REMARK    4  A    between atoms: C7_7  and  C8_8 
REMARK    5  A    between atoms: C13_15  and  C14_16 
REMARK    6  A    between atoms: C17_19  and  O2_20 
ROOT
HETATM    1  C8  UNL     1      23.326   1.126  52.429  1.00  0.00     0.048 C 
HETATM    2  C9  UNL     1      23.229   2.322  51.899  1.00  0.00     0.047 A 
HETATM    3  C10 UNL     1      22.157   3.306  51.875  1.00  0.00     0.257 A 
HETATM    4  O1  UNL     1      21.041   3.178  52.399  1.00  0.00    -0.267 OA
HETATM    5  N1  UNL     1      22.512   4.482  51.169  1.00  0.00    -0.322 N 
HETATM    6  C11 UNL     1      23.842   4.219  50.741  1.00  0.00     0.047 A 
HETATM    7  C12 UNL     1      24.705   5.028  49.998  1.00  0.00     0.042 A 
HETATM    8  C13 UNL     1      25.980   4.633  49.655  1.00  0.00    -0.024 A 
HETATM    9  C21 UNL     1      26.450   3.399  50.047  1.00  0.00     0.013 A 
HETATM   10  C22 UNL     1      25.588   2.612  50.780  1.00  0.00     0.015 A 
HETATM   11  C23 UNL     1      24.304   2.986  51.137  1.00  0.00     0.006 A 
HETATM   12  H11 UNL     1      21.974   5.346  50.981  1.00  0.00     0.169 HD
ENDROOT
BRANCH   1  13
HETATM   13  C7  UNL     1      22.367   0.360  53.194  1.00  0.00     0.046 C 
HETATM   14  C6  UNL     1      21.994  -0.890  53.199  1.00  0.00     0.028 C 
HETATM   15  C5  UNL     1      20.772  -0.474  53.488  1.00  0.00     0.023 C 
HETATM   16  N2  UNL     1      21.417   0.539  54.233  1.00  0.00    -0.358 N 
HETATM   17  H22 UNL     1      21.262   1.098  55.080  1.00  0.00     0.166 HD
BRANCH  15  18
HETATM   18  C4  UNL     1      19.366  -0.848  53.202  1.00  0.00     0.058 C 
BRANCH  18  19
HETATM   19  C3  UNL     1      18.852  -0.064  52.002  1.00  0.00     0.006 C 
BRANCH  19  20
HETATM   20  C2  UNL     1      17.414  -0.454  51.712  1.00  0.00    -0.004 C 
HETATM   21  C1  UNL     1      16.954  -1.489  52.747  1.00  0.00     0.005 C 
ENDBRANCH  19  20
ENDBRANCH  18  19
ENDBRANCH  15  18
ENDBRANCH   1  13
BRANCH   8  22
HETATM   22  C14 UNL     1      26.897   5.459  48.877  1.00  0.00    -0.026 A 
HETATM   23  C15 UNL     1      28.209   5.054  48.614  1.00  0.00     0.015 A 
HETATM   24  C16 UNL     1      29.038   5.875  47.874  1.00  0.00     0.037 A 
HETATM   25  C17 UNL     1      28.621   7.103  47.369  1.00  0.00     0.068 A 
HETATM   26  C19 UNL     1      27.310   7.515  47.628  1.00  0.00     0.037 A 
HETATM   27  C20 UNL     1      26.502   6.698  48.360  1.00  0.00     0.015 A 
BRANCH  25  28
HETATM   28  O2  UNL     1      29.393   7.966  46.626  1.00  0.00    -0.356 OA
HETATM   29  C18 UNL     1      30.798   8.017  46.645  1.00  0.00     0.210 C 
ENDBRANCH  25  28
ENDBRANCH   8  22
TORSDOF 6
ENDMDL
