MODEL 1
REMARK VINA RESULT:      -8.5      0.000      0.000
REMARK  3 active torsions:
REMARK  status: ('A' for Active; 'I' for Inactive)
REMARK    1  A    between atoms: C2_2  and  N1_3 
REMARK       I    between atoms: N1_3  and  C3_4 
REMARK    2  A    between atoms: C3_4  and  C4_6 
REMARK    3  A    between atoms: C17_22  and  N4_23 
ROOT
HETATM    1  C4  UNL     1      24.713   0.434  52.880  1.00  0.00     0.078 C 
HETATM    2  C5  UNL     1      24.923   1.293  51.930  1.00  0.00     0.135 C 
HETATM    3  N2  UNL     1      24.030   2.094  51.057  1.00  0.00    -0.255 N 
HETATM    4  C6  UNL     1      23.293   1.785  49.791  1.00  0.00     0.167 C 
HETATM    5  C7  UNL     1      22.202   1.089  50.190  1.00  0.00     0.006 C 
HETATM    6  C8  UNL     1      21.061   0.342  50.832  1.00  0.00     0.043 C 
HETATM    7  C9  UNL     1      20.884   0.618  52.314  1.00  0.00    -0.029 C 
HETATM    8  C10 UNL     1      20.849   0.622  53.614  1.00  0.00     0.010 C 
HETATM    9  C11 UNL     1      21.275  -0.215  54.675  1.00  0.00     0.012 C 
HETATM   10  C12 UNL     1      22.054  -1.346  54.626  1.00  0.00     0.060 C 
HETATM   11  N3  UNL     1      22.057  -0.924  53.267  1.00  0.00    -0.261 NA
HETATM   12  C13 UNL     1      23.472  -0.332  53.312  1.00  0.00     0.192 A 
HETATM   13  O2  UNL     1      23.842  -0.690  54.507  1.00  0.00    -0.208 OA
HETATM   14  C14 UNL     1      20.545   2.046  52.328  1.00  0.00     0.065 A 
HETATM   15  C15 UNL     1      21.692   2.818  52.103  1.00  0.00     0.074 A 
HETATM   16  C16 UNL     1      22.634   3.902  51.889  1.00  0.00     0.128 A 
HETATM   17  C17 UNL     1      21.558   4.750  52.014  1.00  0.00     0.080 A 
HETATM   18  C18 UNL     1      20.242   4.355  52.249  1.00  0.00     0.149 A 
HETATM   19  N5  UNL     1      19.807   3.071  52.391  1.00  0.00    -0.258 NA
HETATM   20  O3  UNL     1      23.928   3.418  51.703  1.00  0.00    -0.233 OA
HETATM   21  H13 UNL     1      22.691  -0.497  52.599  1.00  0.00     0.195 HD
ENDROOT
BRANCH   1  22
HETATM   22  C3  UNL     1      25.924  -0.087  53.464  1.00  0.00     0.257 C 
HETATM   23  N1  UNL     1      26.748   0.652  54.303  1.00  0.00    -0.337 N 
HETATM   24  H4  UNL     1      26.444   1.611  54.487  1.00  0.00     0.168 HD
HETATM   25  O1  UNL     1      26.500  -1.208  53.391  1.00  0.00    -0.267 OA
BRANCH  23  26
HETATM   26  C2  UNL     1      27.918   0.080  54.832  1.00  0.00     0.064 C 
HETATM   27  C1  UNL     1      29.065   0.618  54.468  1.00  0.00     0.049 C 
ENDBRANCH  23  26
ENDBRANCH   1  22
BRANCH  17  28
HETATM   28  N4  UNL     1      22.293   5.965  51.822  1.00  0.00    -0.396 N 
HETATM   29  H15 UNL     1      23.019   6.151  51.073  1.00  0.00     0.156 HD
HETATM   30  H16 UNL     1      22.266   6.884  52.357  1.00  0.00     0.156 HD
ENDBRANCH  17  28
TORSDOF 3
ENDMDL
MODEL 2
REMARK VINA RESULT:      -8.2      1.333      1.505
REMARK  3 active torsions:
REMARK  status: ('A' for Active; 'I' for Inactive)
REMARK    1  A    between atoms: C2_2  and  N1_3 
REMARK       I    between atoms: N1_3  and  C3_4 
REMARK    2  A    between atoms: C3_4  and  C4_6 
REMARK    3  A    between atoms: C17_22  and  N4_23 
ROOT
HETATM    1  C4  UNL     1      25.092   1.740  52.510  1.00  0.00     0.078 C 
HETATM    2  C5  UNL     1      25.322   2.713  51.682  1.00  0.00     0.135 C 
HETATM    3  N2  UNL     1      24.486   3.435  50.690  1.00  0.00    -0.255 N 
HETATM    4  C6  UNL     1      24.083   3.133  49.280  1.00  0.00     0.167 C 
HETATM    5  C7  UNL     1      23.083   2.227  49.396  1.00  0.00     0.006 C 
HETATM    6  C8  UNL     1      21.997   1.238  49.734  1.00  0.00     0.043 C 
HETATM    7  C9  UNL     1      21.483   1.332  51.159  1.00  0.00    -0.029 C 
HETATM    8  C10 UNL     1      21.193   1.200  52.420  1.00  0.00     0.010 C 
HETATM    9  C11 UNL     1      21.549   0.346  53.493  1.00  0.00     0.012 C 
HETATM   10  C12 UNL     1      22.519  -0.627  53.539  1.00  0.00     0.060 C 
HETATM   11  N3  UNL     1      22.711  -0.078  52.240  1.00  0.00    -0.261 NA
HETATM   12  C13 UNL     1      23.954   0.737  52.621  1.00  0.00     0.192 A 
HETATM   13  O2  UNL     1      24.142   0.330  53.842  1.00  0.00    -0.208 OA
HETATM   14  C14 UNL     1      20.889   2.673  51.190  1.00  0.00     0.065 A 
HETATM   15  C15 UNL     1      21.895   3.646  51.261  1.00  0.00     0.074 A 
HETATM   16  C16 UNL     1      22.643   4.890  51.320  1.00  0.00     0.128 A 
HETATM   17  C17 UNL     1      21.425   5.527  51.267  1.00  0.00     0.080 A 
HETATM   18  C18 UNL     1      20.184   4.894  51.194  1.00  0.00     0.149 A 
HETATM   19  N5  UNL     1      19.976   3.547  51.160  1.00  0.00    -0.258 NA
HETATM   20  O3  UNL     1      24.015   4.651  51.382  1.00  0.00    -0.233 OA
HETATM   21  H13 UNL     1      23.373   0.514  51.750  1.00  0.00     0.195 HD
ENDROOT
BRANCH   1  22
HETATM   22  C3  UNL     1      26.239   1.376  53.303  1.00  0.00     0.257 C 
HETATM   23  N1  UNL     1      26.990   0.228  53.082  1.00  0.00    -0.337 N 
HETATM   24  H4  UNL     1      26.674  -0.362  52.307  1.00  0.00     0.168 HD
HETATM   25  O1  UNL     1      26.812   1.921  54.288  1.00  0.00    -0.267 OA
BRANCH  23  26
HETATM   26  C2  UNL     1      28.094  -0.067  53.899  1.00  0.00     0.064 C 
HETATM   27  C1  UNL     1      28.969  -0.935  53.431  1.00  0.00     0.049 C 
ENDBRANCH  23  26
ENDBRANCH   1  22
BRANCH  17  28
HETATM   28  N4  UNL     1      21.945   6.862  51.312  1.00  0.00    -0.396 N 
HETATM   29  H15 UNL     1      22.381   7.395  50.507  1.00  0.00     0.156 HD
HETATM   30  H16 UNL     1      21.997   7.559  52.113  1.00  0.00     0.156 HD
ENDBRANCH  17  28
TORSDOF 3
ENDMDL
MODEL 3
REMARK VINA RESULT:      -7.7      2.297      4.361
REMARK  3 active torsions:
REMARK  status: ('A' for Active; 'I' for Inactive)
REMARK    1  A    between atoms: C2_2  and  N1_3 
REMARK       I    between atoms: N1_3  and  C3_4 
REMARK    2  A    between atoms: C3_4  and  C4_6 
REMARK    3  A    between atoms: C17_22  and  N4_23 
ROOT
HETATM    1  C4  UNL     1      24.317   1.619  52.542  1.00  0.00     0.078 C 
HETATM    2  C5  UNL     1      23.052   1.611  52.831  1.00  0.00     0.135 C 
HETATM    3  N2  UNL     1      21.876   2.351  52.308  1.00  0.00    -0.255 N 
HETATM    4  C6  UNL     1      21.314   3.709  52.593  1.00  0.00     0.167 C 
HETATM    5  C7  UNL     1      22.103   4.560  51.893  1.00  0.00     0.006 C 
HETATM    6  C8  UNL     1      23.084   5.334  51.050  1.00  0.00     0.043 C 
HETATM    7  C9  UNL     1      23.805   4.502  50.004  1.00  0.00    -0.029 C 
HETATM    8  C10 UNL     1      24.623   3.799  49.277  1.00  0.00     0.010 C 
HETATM    9  C11 UNL     1      25.943   3.294  49.377  1.00  0.00     0.012 C 
HETATM   10  C12 UNL     1      26.792   3.300  50.459  1.00  0.00     0.060 C 
HETATM   11  N3  UNL     1      25.606   3.864  51.009  1.00  0.00    -0.261 NA
HETATM   12  C13 UNL     1      25.181   2.588  51.748  1.00  0.00     0.192 A 
HETATM   13  O2  UNL     1      26.213   1.828  51.527  1.00  0.00    -0.208 OA
HETATM   14  C14 UNL     1      22.705   4.077  49.131  1.00  0.00     0.065 A 
HETATM   15  C15 UNL     1      21.968   3.055  49.744  1.00  0.00     0.074 A 
HETATM   16  C16 UNL     1      20.995   2.026  50.066  1.00  0.00     0.128 A 
HETATM   17  C17 UNL     1      20.413   2.314  48.853  1.00  0.00     0.080 A 
HETATM   18  C18 UNL     1      20.864   3.275  47.949  1.00  0.00     0.149 A 
HETATM   19  N5  UNL     1      21.948   4.084  48.118  1.00  0.00    -0.258 NA
HETATM   20  O3  UNL     1      21.257   1.456  51.311  1.00  0.00    -0.233 OA
HETATM   21  H13 UNL     1      24.856   3.602  51.639  1.00  0.00     0.195 HD
ENDROOT
BRANCH   1  22
HETATM   22  C3  UNL     1      25.094   0.693  53.328  1.00  0.00     0.257 C 
HETATM   23  N1  UNL     1      26.077   1.088  54.226  1.00  0.00    -0.337 N 
HETATM   24  H4  UNL     1      26.227   2.097  54.300  1.00  0.00     0.168 HD
HETATM   25  O1  UNL     1      25.100  -0.567  53.414  1.00  0.00    -0.267 OA
BRANCH  23  26
HETATM   26  C2  UNL     1      26.799   0.128  54.955  1.00  0.00     0.064 C 
HETATM   27  C1  UNL     1      28.113   0.232  54.944  1.00  0.00     0.049 C 
ENDBRANCH  23  26
ENDBRANCH   1  22
BRANCH  17  28
HETATM   28  N4  UNL     1      19.352   1.356  48.958  1.00  0.00    -0.396 N 
HETATM   29  H15 UNL     1      18.810   1.110  49.834  1.00  0.00     0.156 HD
HETATM   30  H16 UNL     1      18.908   0.730  48.223  1.00  0.00     0.156 HD
ENDBRANCH  17  28
TORSDOF 3
ENDMDL
MODEL 4
REMARK VINA RESULT:      -7.5     10.070     12.765
REMARK  3 active torsions:
REMARK  status: ('A' for Active; 'I' for Inactive)
REMARK    1  A    between atoms: C2_2  and  N1_3 
REMARK       I    between atoms: N1_3  and  C3_4 
REMARK    2  A    between atoms: C3_4  and  C4_6 
REMARK    3  A    between atoms: C17_22  and  N4_23 
ROOT
HETATM    1  C4  UNL     1      30.990   9.543  47.659  1.00  0.00     0.078 C 
HETATM    2  C5  UNL     1      32.272   9.463  47.474  1.00  0.00     0.135 C 
HETATM    3  N2  UNL     1      33.247   8.346  47.524  1.00  0.00    -0.255 N 
HETATM    4  C6  UNL     1      33.977   7.675  48.647  1.00  0.00     0.167 C 
HETATM    5  C7  UNL     1      33.063   6.843  49.201  1.00  0.00     0.006 C 
HETATM    6  C8  UNL     1      31.914   5.987  49.669  1.00  0.00     0.043 C 
HETATM    7  C9  UNL     1      30.813   5.800  48.641  1.00  0.00    -0.029 C 
HETATM    8  C10 UNL     1      29.741   5.818  47.904  1.00  0.00     0.010 C 
HETATM    9  C11 UNL     1      28.503   6.505  47.873  1.00  0.00     0.012 C 
HETATM   10  C12 UNL     1      28.085   7.570  48.636  1.00  0.00     0.060 C 
HETATM   11  N3  UNL     1      29.428   7.398  49.076  1.00  0.00    -0.261 NA
HETATM   12  C13 UNL     1      29.983   8.589  48.282  1.00  0.00     0.192 A 
HETATM   13  O2  UNL     1      28.882   9.093  47.807  1.00  0.00    -0.208 OA
HETATM   14  C14 UNL     1      31.504   5.071  47.571  1.00  0.00     0.065 A 
HETATM   15  C15 UNL     1      32.326   5.943  46.845  1.00  0.00     0.074 A 
HETATM   16  C16 UNL     1      33.267   6.530  45.908  1.00  0.00     0.128 A 
HETATM   17  C17 UNL     1      33.412   5.264  45.389  1.00  0.00     0.080 A 
HETATM   18  C18 UNL     1      32.752   4.124  45.846  1.00  0.00     0.149 A 
HETATM   19  N5  UNL     1      31.860   4.077  46.876  1.00  0.00    -0.258 NA
HETATM   20  O3  UNL     1      33.409   7.900  46.126  1.00  0.00    -0.233 OA
HETATM   21  H13 UNL     1      30.328   7.858  48.984  1.00  0.00     0.195 HD
ENDROOT
BRANCH   1  22
HETATM   22  C3  UNL     1      30.465  10.875  47.485  1.00  0.00     0.257 C 
HETATM   23  N1  UNL     1      29.917  11.623  48.519  1.00  0.00    -0.337 N 
HETATM   24  H4  UNL     1      29.903  11.166  49.434  1.00  0.00     0.168 HD
HETATM   25  O1  UNL     1      30.368  11.637  46.482  1.00  0.00    -0.267 OA
BRANCH  23  26
HETATM   26  C2  UNL     1      29.419  12.914  48.275  1.00  0.00     0.064 C 
HETATM   27  C1  UNL     1      28.249  13.214  48.804  1.00  0.00     0.049 C 
ENDBRANCH  23  26
ENDBRANCH   1  22
BRANCH  17  28
HETATM   28  N4  UNL     1      34.365   5.618  44.379  1.00  0.00    -0.396 N 
HETATM   29  H15 UNL     1      34.420   6.539  43.860  1.00  0.00     0.156 HD
HETATM   30  H16 UNL     1      35.174   5.065  43.964  1.00  0.00     0.156 HD
ENDBRANCH  17  28
TORSDOF 3
ENDMDL
MODEL 5
REMARK VINA RESULT:      -7.3      3.879      6.377
REMARK  3 active torsions:
REMARK  status: ('A' for Active; 'I' for Inactive)
REMARK    1  A    between atoms: C2_2  and  N1_3 
REMARK       I    between atoms: N1_3  and  C3_4 
REMARK    2  A    between atoms: C3_4  and  C4_6 
REMARK    3  A    between atoms: C17_22  and  N4_23 
ROOT
HETATM    1  C4  UNL     1      22.986   3.432  50.445  1.00  0.00     0.078 C 
HETATM    2  C5  UNL     1      22.007   4.263  50.255  1.00  0.00     0.135 C 
HETATM    3  N2  UNL     1      21.937   5.685  49.835  1.00  0.00    -0.255 N 
HETATM    4  C6  UNL     1      22.091   6.978  50.574  1.00  0.00     0.167 C 
HETATM    5  C7  UNL     1      23.429   7.133  50.715  1.00  0.00     0.006 C 
HETATM    6  C8  UNL     1      24.936   7.124  50.767  1.00  0.00     0.043 C 
HETATM    7  C9  UNL     1      25.593   6.212  49.747  1.00  0.00    -0.029 C 
HETATM    8  C10 UNL     1      26.189   5.268  49.078  1.00  0.00     0.010 C 
HETATM    9  C11 UNL     1      26.717   3.979  49.331  1.00  0.00     0.012 C 
HETATM   10  C12 UNL     1      26.624   3.214  50.470  1.00  0.00     0.060 C 
HETATM   11  N3  UNL     1      25.829   4.345  50.807  1.00  0.00    -0.261 NA
HETATM   12  C13 UNL     1      24.486   3.633  50.597  1.00  0.00     0.192 A 
HETATM   13  O2  UNL     1      24.892   2.419  50.370  1.00  0.00    -0.208 OA
HETATM   14  C14 UNL     1      25.194   6.825  48.475  1.00  0.00     0.065 A 
HETATM   15  C15 UNL     1      23.855   6.528  48.194  1.00  0.00     0.074 A 
HETATM   16  C16 UNL     1      22.532   6.439  47.601  1.00  0.00     0.128 A 
HETATM   17  C17 UNL     1      23.018   7.243  46.597  1.00  0.00     0.080 A 
HETATM   18  C18 UNL     1      24.317   7.744  46.522  1.00  0.00     0.149 A 
HETATM   19  N5  UNL     1      25.312   7.524  47.428  1.00  0.00    -0.258 NA
HETATM   20  O3  UNL     1      21.682   5.655  48.381  1.00  0.00    -0.233 OA
HETATM   21  H13 UNL     1      24.850   4.585  50.925  1.00  0.00     0.195 HD
ENDROOT
BRANCH   1  22
HETATM   22  C3  UNL     1      22.554   2.117  50.847  1.00  0.00     0.257 C 
HETATM   23  N1  UNL     1      22.769   1.595  52.116  1.00  0.00    -0.337 N 
HETATM   24  H4  UNL     1      23.265   2.209  52.767  1.00  0.00     0.168 HD
HETATM   25  O1  UNL     1      21.941   1.191  50.245  1.00  0.00    -0.267 OA
BRANCH  23  26
HETATM   26  C2  UNL     1      22.325   0.301  52.437  1.00  0.00     0.064 C 
HETATM   27  C1  UNL     1      23.039  -0.377  53.313  1.00  0.00     0.049 C 
ENDBRANCH  23  26
ENDBRANCH   1  22
BRANCH  17  28
HETATM   28  N4  UNL     1      21.803   7.299  45.840  1.00  0.00    -0.396 N 
HETATM   29  H15 UNL     1      21.562   6.713  44.990  1.00  0.00     0.156 HD
HETATM   30  H16 UNL     1      20.935   7.901  45.964  1.00  0.00     0.156 HD
ENDBRANCH  17  28
TORSDOF 3
ENDMDL
MODEL 6
REMARK VINA RESULT:      -7.2     11.091     13.315
REMARK  3 active torsions:
REMARK  status: ('A' for Active; 'I' for Inactive)
REMARK    1  A    between atoms: C2_2  and  N1_3 
REMARK       I    between atoms: N1_3  and  C3_4 
REMARK    2  A    between atoms: C3_4  and  C4_6 
REMARK    3  A    between atoms: C17_22  and  N4_23 
ROOT
HETATM    1  C4  UNL     1      33.609   5.182  46.909  1.00  0.00     0.078 C 
HETATM    2  C5  UNL     1      33.842   5.725  48.065  1.00  0.00     0.135 C 
HETATM    3  N2  UNL     1      33.885   7.127  48.549  1.00  0.00    -0.255 N 
HETATM    4  C6  UNL     1      34.942   8.188  48.515  1.00  0.00     0.167 C 
HETATM    5  C7  UNL     1      34.899   8.673  47.252  1.00  0.00     0.006 C 
HETATM    6  C8  UNL     1      34.694   9.076  45.814  1.00  0.00     0.043 C 
HETATM    7  C9  UNL     1      33.354   8.666  45.232  1.00  0.00    -0.029 C 
HETATM    8  C10 UNL     1      32.344   8.123  44.618  1.00  0.00     0.010 C 
HETATM    9  C11 UNL     1      32.107   7.014  43.770  1.00  0.00     0.012 C 
HETATM   10  C12 UNL     1      32.963   5.997  43.416  1.00  0.00     0.060 C 
HETATM   11  N3  UNL     1      33.750   6.740  44.340  1.00  0.00    -0.261 NA
HETATM   12  C13 UNL     1      33.562   5.753  45.500  1.00  0.00     0.192 A 
HETATM   13  O2  UNL     1      32.918   4.797  44.899  1.00  0.00    -0.208 OA
HETATM   14  C14 UNL     1      32.409   9.436  46.049  1.00  0.00     0.065 A 
HETATM   15  C15 UNL     1      32.279   8.853  47.316  1.00  0.00     0.074 A 
HETATM   16  C16 UNL     1      31.915   8.544  48.688  1.00  0.00     0.128 A 
HETATM   17  C17 UNL     1      31.132   9.674  48.647  1.00  0.00     0.080 A 
HETATM   18  C18 UNL     1      30.996  10.523  47.550  1.00  0.00     0.149 A 
HETATM   19  N5  UNL     1      31.615  10.375  46.344  1.00  0.00    -0.258 NA
HETATM   20  O3  UNL     1      32.553   7.386  49.130  1.00  0.00    -0.233 OA
HETATM   21  H13 UNL     1      34.096   6.657  45.290  1.00  0.00     0.195 HD
ENDROOT
BRANCH   1  22
HETATM   22  C3  UNL     1      33.663   3.742  46.927  1.00  0.00     0.257 C 
HETATM   23  N1  UNL     1      32.540   2.934  47.053  1.00  0.00    -0.337 N 
HETATM   24  H4  UNL     1      31.649   3.430  47.137  1.00  0.00     0.168 HD
HETATM   25  O1  UNL     1      34.616   2.916  46.844  1.00  0.00    -0.267 OA
BRANCH  23  26
HETATM   26  C2  UNL     1      32.669   1.535  47.068  1.00  0.00     0.064 C 
HETATM   27  C1  UNL     1      31.728   0.841  46.460  1.00  0.00     0.049 C 
ENDBRANCH  23  26
ENDBRANCH   1  22
BRANCH  17  28
HETATM   28  N4  UNL     1      30.639   9.571  49.989  1.00  0.00    -0.396 N 
HETATM   29  H15 UNL     1      29.623   9.552  50.287  1.00  0.00     0.156 HD
HETATM   30  H16 UNL     1      31.158   9.492  50.914  1.00  0.00     0.156 HD
ENDBRANCH  17  28
TORSDOF 3
ENDMDL
MODEL 7
REMARK VINA RESULT:      -7.2      3.162      4.825
REMARK  3 active torsions:
REMARK  status: ('A' for Active; 'I' for Inactive)
REMARK    1  A    between atoms: C2_2  and  N1_3 
REMARK       I    between atoms: N1_3  and  C3_4 
REMARK    2  A    between atoms: C3_4  and  C4_6 
REMARK    3  A    between atoms: C17_22  and  N4_23 
ROOT
HETATM    1  C4  UNL     1      23.865   4.484  49.379  1.00  0.00     0.078 C 
HETATM    2  C5  UNL     1      22.922   4.653  48.503  1.00  0.00     0.135 C 
HETATM    3  N2  UNL     1      21.584   4.042  48.306  1.00  0.00    -0.255 N 
HETATM    4  C6  UNL     1      21.125   2.771  47.662  1.00  0.00     0.167 C 
HETATM    5  C7  UNL     1      21.378   1.810  48.582  1.00  0.00     0.006 C 
HETATM    6  C8  UNL     1      21.732   0.897  49.728  1.00  0.00     0.043 C 
HETATM    7  C9  UNL     1      21.898   1.601  51.062  1.00  0.00    -0.029 C 
HETATM    8  C10 UNL     1      22.298   2.177  52.158  1.00  0.00     0.010 C 
HETATM    9  C11 UNL     1      23.528   2.523  52.771  1.00  0.00     0.012 C 
HETATM   10  C12 UNL     1      24.801   2.452  52.256  1.00  0.00     0.060 C 
HETATM   11  N3  UNL     1      24.008   2.052  51.144  1.00  0.00    -0.261 NA
HETATM   12  C13 UNL     1      24.124   3.393  50.407  1.00  0.00     0.192 A 
HETATM   13  O2  UNL     1      24.968   4.016  51.177  1.00  0.00    -0.208 OA
HETATM   14  C14 UNL     1      20.551   2.126  51.310  1.00  0.00     0.065 A 
HETATM   15  C15 UNL     1      20.313   3.248  50.506  1.00  0.00     0.074 A 
HETATM   16  C16 UNL     1      19.728   4.396  49.836  1.00  0.00     0.128 A 
HETATM   17  C17 UNL     1      18.593   4.140  50.570  1.00  0.00     0.080 A 
HETATM   18  C18 UNL     1      18.443   3.103  51.490  1.00  0.00     0.149 A 
HETATM   19  N5  UNL     1      19.390   2.176  51.809  1.00  0.00    -0.258 NA
HETATM   20  O3  UNL     1      20.628   4.972  48.941  1.00  0.00    -0.233 OA
HETATM   21  H13 UNL     1      23.702   2.422  50.250  1.00  0.00     0.195 HD
ENDROOT
BRANCH   1  22
HETATM   22  C3  UNL     1      25.008   5.336  49.166  1.00  0.00     0.257 C 
HETATM   23  N1  UNL     1      26.273   4.855  48.853  1.00  0.00    -0.337 N 
HETATM   24  H4  UNL     1      26.353   3.838  48.782  1.00  0.00     0.168 HD
HETATM   25  O1  UNL     1      25.165   6.589  49.198  1.00  0.00    -0.267 OA
BRANCH  23  26
HETATM   26  C2  UNL     1      27.344   5.745  48.664  1.00  0.00     0.064 C 
HETATM   27  C1  UNL     1      28.508   5.220  48.336  1.00  0.00     0.049 C 
ENDBRANCH  23  26
ENDBRANCH   1  22
BRANCH  17  28
HETATM   28  N4  UNL     1      17.816   5.221  50.038  1.00  0.00    -0.396 N 
HETATM   29  H15 UNL     1      17.588   6.132  50.527  1.00  0.00     0.156 HD
HETATM   30  H16 UNL     1      17.337   5.333  49.096  1.00  0.00     0.156 HD
ENDBRANCH  17  28
TORSDOF 3
ENDMDL
MODEL 8
REMARK VINA RESULT:      -7.1      3.800      6.249
REMARK  3 active torsions:
REMARK  status: ('A' for Active; 'I' for Inactive)
REMARK    1  A    between atoms: C2_2  and  N1_3 
REMARK       I    between atoms: N1_3  and  C3_4 
REMARK    2  A    between atoms: C3_4  and  C4_6 
REMARK    3  A    between atoms: C17_22  and  N4_23 
ROOT
HETATM    1  C4  UNL     1      25.877   5.288  49.505  1.00  0.00     0.078 C 
HETATM    2  C5  UNL     1      25.883   3.990  49.513  1.00  0.00     0.135 C 
HETATM    3  N2  UNL     1      25.000   2.965  50.123  1.00  0.00    -0.255 N 
HETATM    4  C6  UNL     1      24.920   2.371  51.495  1.00  0.00     0.167 C 
HETATM    5  C7  UNL     1      24.273   3.303  52.235  1.00  0.00     0.006 C 
HETATM    6  C8  UNL     1      23.542   4.454  52.879  1.00  0.00     0.043 C 
HETATM    7  C9  UNL     1      22.834   5.374  51.902  1.00  0.00    -0.029 C 
HETATM    8  C10 UNL     1      22.433   6.322  51.107  1.00  0.00     0.010 C 
HETATM    9  C11 UNL     1      22.900   7.583  50.660  1.00  0.00     0.012 C 
HETATM   10  C12 UNL     1      24.123   8.176  50.871  1.00  0.00     0.060 C 
HETATM   11  N3  UNL     1      24.299   6.906  51.489  1.00  0.00    -0.261 NA
HETATM   12  C13 UNL     1      25.135   6.315  50.346  1.00  0.00     0.192 A 
HETATM   13  O2  UNL     1      25.276   7.361  49.587  1.00  0.00    -0.208 OA
HETATM   14  C14 UNL     1      21.830   4.486  51.306  1.00  0.00     0.065 A 
HETATM   15  C15 UNL     1      22.434   3.621  50.385  1.00  0.00     0.074 A 
HETATM   16  C16 UNL     1      22.710   2.588  49.401  1.00  0.00     0.128 A 
HETATM   17  C17 UNL     1      21.369   2.287  49.464  1.00  0.00     0.080 A 
HETATM   18  C18 UNL     1      20.433   2.936  50.269  1.00  0.00     0.149 A 
HETATM   19  N5  UNL     1      20.691   3.967  51.122  1.00  0.00    -0.258 NA
HETATM   20  O3  UNL     1      24.060   2.567  49.056  1.00  0.00    -0.233 OA
HETATM   21  H13 UNL     1      24.787   6.034  51.319  1.00  0.00     0.195 HD
ENDROOT
BRANCH   1  22
HETATM   22  C3  UNL     1      26.959   5.864  48.745  1.00  0.00     0.257 C 
HETATM   23  N1  UNL     1      28.296   5.557  48.963  1.00  0.00    -0.337 N 
HETATM   24  H4  UNL     1      28.477   4.884  49.713  1.00  0.00     0.168 HD
HETATM   25  O1  UNL     1      26.996   6.695  47.795  1.00  0.00    -0.267 OA
BRANCH  23  26
HETATM   26  C2  UNL     1      29.299   6.161  48.187  1.00  0.00     0.064 C 
HETATM   27  C1  UNL     1      30.364   5.433  47.914  1.00  0.00     0.049 C 
ENDBRANCH  23  26
ENDBRANCH   1  22
BRANCH  17  28
HETATM   28  N4  UNL     1      21.404   1.218  48.511  1.00  0.00    -0.396 N 
HETATM   29  H15 UNL     1      22.058   0.384  48.523  1.00  0.00     0.156 HD
HETATM   30  H16 UNL     1      20.815   1.042  47.643  1.00  0.00     0.156 HD
ENDBRANCH  17  28
TORSDOF 3
ENDMDL
MODEL 9
REMARK VINA RESULT:      -7.1     10.620     13.574
REMARK  3 active torsions:
REMARK  status: ('A' for Active; 'I' for Inactive)
REMARK    1  A    between atoms: C2_2  and  N1_3 
REMARK       I    between atoms: N1_3  and  C3_4 
REMARK    2  A    between atoms: C3_4  and  C4_6 
REMARK    3  A    between atoms: C17_22  and  N4_23 
ROOT
HETATM    1  C4  UNL     1      30.197   7.720  47.368  1.00  0.00     0.078 C 
HETATM    2  C5  UNL     1      30.708   6.537  47.213  1.00  0.00     0.135 C 
HETATM    3  N2  UNL     1      32.066   6.042  46.874  1.00  0.00    -0.255 N 
HETATM    4  C6  UNL     1      32.794   5.865  45.578  1.00  0.00     0.167 C 
HETATM    5  C7  UNL     1      33.214   7.110  45.248  1.00  0.00     0.006 C 
HETATM    6  C8  UNL     1      33.591   8.557  45.062  1.00  0.00     0.043 C 
HETATM    7  C9  UNL     1      33.536   9.388  46.330  1.00  0.00    -0.029 C 
HETATM    8  C10 UNL     1      33.263  10.189  47.319  1.00  0.00     0.010 C 
HETATM    9  C11 UNL     1      32.222  11.075  47.691  1.00  0.00     0.012 C 
HETATM   10  C12 UNL     1      30.995  11.266  47.100  1.00  0.00     0.060 C 
HETATM   11  N3  UNL     1      31.537  10.202  46.324  1.00  0.00    -0.261 NA
HETATM   12  C13 UNL     1      30.693   9.107  46.991  1.00  0.00     0.192 A 
HETATM   13  O2  UNL     1      29.923   9.828  47.751  1.00  0.00    -0.208 OA
HETATM   14  C14 UNL     1      34.572   8.762  47.160  1.00  0.00     0.065 A 
HETATM   15  C15 UNL     1      34.106   7.548  47.681  1.00  0.00     0.074 A 
HETATM   16  C16 UNL     1      33.972   6.274  48.365  1.00  0.00     0.128 A 
HETATM   17  C17 UNL     1      35.270   6.456  48.783  1.00  0.00     0.080 A 
HETATM   18  C18 UNL     1      36.072   7.553  48.471  1.00  0.00     0.149 A 
HETATM   19  N5  UNL     1      35.705   8.618  47.703  1.00  0.00    -0.258 NA
HETATM   20  O3  UNL     1      32.705   5.726  48.167  1.00  0.00    -0.233 OA
HETATM   21  H13 UNL     1      31.406   9.204  46.198  1.00  0.00     0.195 HD
ENDROOT
BRANCH   1  22
HETATM   22  C3  UNL     1      28.799   7.702  47.719  1.00  0.00     0.257 C 
HETATM   23  N1  UNL     1      28.337   7.759  49.028  1.00  0.00    -0.337 N 
HETATM   24  H4  UNL     1      29.061   7.812  49.749  1.00  0.00     0.168 HD
HETATM   25  O1  UNL     1      27.741   7.641  47.032  1.00  0.00    -0.267 OA
BRANCH  23  26
HETATM   26  C2  UNL     1      26.958   7.732  49.296  1.00  0.00     0.064 C 
HETATM   27  C1  UNL     1      26.512   8.564  50.217  1.00  0.00     0.049 C 
ENDBRANCH  23  26
ENDBRANCH   1  22
BRANCH  17  28
HETATM   28  N4  UNL     1      35.367   5.235  49.526  1.00  0.00    -0.396 N 
HETATM   29  H15 UNL     1      35.972   4.398  49.287  1.00  0.00     0.156 HD
HETATM   30  H16 UNL     1      34.885   4.928  50.422  1.00  0.00     0.156 HD
ENDBRANCH  17  28
TORSDOF 3
ENDMDL
