MODEL 1
REMARK VINA RESULT:      -7.7      0.000      0.000
REMARK  0 active torsions:
REMARK  status: ('A' for Active; 'I' for Inactive)
ROOT
HETATM    1  C1  UNL     1      21.108  -1.611  54.476  1.00  0.00     0.020 C 
HETATM    2  C2  UNL     1      21.783  -0.667  53.783  1.00  0.00    -0.040 C 
HETATM    3  C3  UNL     1      23.205  -0.807  53.930  1.00  0.00     0.009 C 
HETATM    4  C4  UNL     1      24.296  -0.213  53.500  1.00  0.00     0.018 C 
HETATM    5  C5  UNL     1      24.419   0.959  52.599  1.00  0.00     0.019 A 
HETATM    6  S1  UNL     1      25.992   1.658  52.118  1.00  0.00    -0.017 S 
HETATM    7  C6  UNL     1      26.806   2.227  53.615  1.00  0.00     0.120 C 
HETATM    8  O1  UNL     1      26.824   0.486  51.563  1.00  0.00    -0.265 OA
HETATM    9  C7  UNL     1      24.290   1.992  51.796  1.00  0.00     0.152 A 
HETATM   10  C8  UNL     1      23.341   2.824  51.117  1.00  0.00    -0.000 C 
HETATM   11  C9  UNL     1      23.587   2.887  49.790  1.00  0.00    -0.007 C 
HETATM   12  C10 UNL     1      22.709   2.159  48.805  1.00  0.00     0.063 C 
HETATM   13  C11 UNL     1      21.343   1.977  49.297  1.00  0.00    -0.066 C 
HETATM   14  C12 UNL     1      20.973   3.233  49.649  1.00  0.00     0.053 C 
HETATM   15  S2  UNL     1      21.907   3.893  51.064  1.00  0.00    -0.105 SA
HETATM   16  C13 UNL     1      20.165   1.135  49.605  1.00  0.00     0.104 C 
HETATM   17  C14 UNL     1      19.916   1.005  51.073  1.00  0.00     0.406 C 
HETATM   18  F1  UNL     1      18.734   0.248  51.223  1.00  0.00    -0.216 F 
HETATM   19  N1  UNL     1      20.987   0.177  51.675  1.00  0.00     0.121 N 
HETATM   20  C15 UNL     1      20.806   0.192  53.136  1.00  0.00     0.311 C 
HETATM   21  H16 UNL     1      20.862  -0.809  51.369  1.00  0.00     0.320 HD
ENDROOT
TORSDOF 0
ENDMDL
MODEL 2
REMARK VINA RESULT:      -7.3      2.766      5.163
REMARK  0 active torsions:
REMARK  status: ('A' for Active; 'I' for Inactive)
ROOT
HETATM    1  C1  UNL     1      20.632  -0.438  53.849  1.00  0.00     0.020 C 
HETATM    2  C2  UNL     1      21.730   0.104  53.277  1.00  0.00    -0.040 C 
HETATM    3  C3  UNL     1      21.416   1.285  52.522  1.00  0.00     0.009 C 
HETATM    4  C4  UNL     1      22.050   2.183  51.801  1.00  0.00     0.018 C 
HETATM    5  C5  UNL     1      23.499   2.272  51.496  1.00  0.00     0.019 A 
HETATM    6  S1  UNL     1      24.204   3.561  50.480  1.00  0.00    -0.017 S 
HETATM    7  C6  UNL     1      23.468   3.419  48.847  1.00  0.00     0.120 C 
HETATM    8  O1  UNL     1      23.718   4.891  51.087  1.00  0.00    -0.265 OA
HETATM    9  C7  UNL     1      24.801   2.154  51.360  1.00  0.00     0.152 A 
HETATM   10  C8  UNL     1      25.940   1.361  51.721  1.00  0.00    -0.000 C 
HETATM   11  C9  UNL     1      26.911   2.109  52.291  1.00  0.00    -0.007 C 
HETATM   12  C10 UNL     1      27.176   2.033  53.773  1.00  0.00     0.063 C 
HETATM   13  C11 UNL     1      26.807   0.739  54.345  1.00  0.00    -0.066 C 
HETATM   14  C12 UNL     1      27.458  -0.146  53.551  1.00  0.00     0.053 C 
HETATM   15  S2  UNL     1      26.835  -0.183  51.842  1.00  0.00    -0.105 SA
HETATM   16  C13 UNL     1      26.093  -0.097  55.337  1.00  0.00     0.104 C 
HETATM   17  C14 UNL     1      24.975  -0.884  54.733  1.00  0.00     0.406 C 
HETATM   18  F1  UNL     1      24.434  -1.685  55.762  1.00  0.00    -0.216 F 
HETATM   19  N1  UNL     1      23.885   0.042  54.347  1.00  0.00     0.121 N 
HETATM   20  C15 UNL     1      22.867  -0.734  53.618  1.00  0.00     0.311 C 
HETATM   21  H16 UNL     1      23.426   0.400  55.208  1.00  0.00     0.320 HD
ENDROOT
TORSDOF 0
ENDMDL
MODEL 3
REMARK VINA RESULT:      -7.0      3.136      5.017
REMARK  0 active torsions:
REMARK  status: ('A' for Active; 'I' for Inactive)
ROOT
HETATM    1  C1  UNL     1      21.429  -1.792  54.235  1.00  0.00     0.020 C 
HETATM    2  C2  UNL     1      21.337  -0.707  53.433  1.00  0.00    -0.040 C 
HETATM    3  C3  UNL     1      19.975  -0.296  53.239  1.00  0.00     0.009 C 
HETATM    4  C4  UNL     1      19.319   0.648  52.601  1.00  0.00     0.018 C 
HETATM    5  C5  UNL     1      19.858   1.744  51.759  1.00  0.00     0.019 A 
HETATM    6  S1  UNL     1      18.819   2.948  50.945  1.00  0.00    -0.017 S 
HETATM    7  C6  UNL     1      17.762   2.057  49.798  1.00  0.00     0.120 C 
HETATM    8  O1  UNL     1      17.911   3.535  52.042  1.00  0.00    -0.265 OA
HETATM    9  C7  UNL     1      20.549   2.622  51.066  1.00  0.00     0.152 A 
HETATM   10  C8  UNL     1      21.872   3.018  50.684  1.00  0.00    -0.000 C 
HETATM   11  C9  UNL     1      22.113   4.315  50.981  1.00  0.00    -0.007 C 
HETATM   12  C10 UNL     1      23.010   4.690  52.132  1.00  0.00     0.063 C 
HETATM   13  C11 UNL     1      24.014   3.666  52.421  1.00  0.00    -0.066 C 
HETATM   14  C12 UNL     1      24.601   3.463  51.217  1.00  0.00     0.053 C 
HETATM   15  S2  UNL     1      23.491   2.711  49.986  1.00  0.00    -0.105 SA
HETATM   16  C13 UNL     1      24.714   2.744  53.344  1.00  0.00     0.104 C 
HETATM   17  C14 UNL     1      24.409   1.307  53.068  1.00  0.00     0.406 C 
HETATM   18  F1  UNL     1      25.190   0.542  53.960  1.00  0.00    -0.216 F 
HETATM   19  N1  UNL     1      23.003   1.029  53.445  1.00  0.00     0.121 N 
HETATM   20  C15 UNL     1      22.682  -0.344  53.021  1.00  0.00     0.311 C 
HETATM   21  H16 UNL     1      22.923   1.048  54.481  1.00  0.00     0.320 HD
ENDROOT
TORSDOF 0
ENDMDL
MODEL 4
REMARK VINA RESULT:      -6.9      8.927     11.154
REMARK  0 active torsions:
REMARK  status: ('A' for Active; 'I' for Inactive)
ROOT
HETATM    1  C1  UNL     1      27.250   4.386  48.935  1.00  0.00     0.020 C 
HETATM    2  C2  UNL     1      27.558   5.638  48.527  1.00  0.00    -0.040 C 
HETATM    3  C3  UNL     1      26.412   6.503  48.536  1.00  0.00     0.009 C 
HETATM    4  C4  UNL     1      26.131   7.758  48.263  1.00  0.00     0.018 C 
HETATM    5  C5  UNL     1      27.041   8.830  47.792  1.00  0.00     0.019 A 
HETATM    6  S1  UNL     1      26.493  10.496  47.452  1.00  0.00    -0.017 S 
HETATM    7  C6  UNL     1      25.280  10.402  46.129  1.00  0.00     0.120 C 
HETATM    8  O1  UNL     1      25.752  10.964  48.719  1.00  0.00    -0.265 OA
HETATM    9  C7  UNL     1      28.018   9.612  47.385  1.00  0.00     0.152 A 
HETATM   10  C8  UNL     1      29.419   9.662  47.091  1.00  0.00    -0.000 C 
HETATM   11  C9  UNL     1      30.041  10.648  47.775  1.00  0.00    -0.007 C 
HETATM   12  C10 UNL     1      30.937  10.332  48.945  1.00  0.00     0.063 C 
HETATM   13  C11 UNL     1      31.543   9.004  48.846  1.00  0.00    -0.066 C 
HETATM   14  C12 UNL     1      32.109   9.015  47.614  1.00  0.00     0.053 C 
HETATM   15  S2  UNL     1      30.897   9.090  46.260  1.00  0.00    -0.105 SA
HETATM   16  C13 UNL     1      31.855   7.665  49.394  1.00  0.00     0.104 C 
HETATM   17  C14 UNL     1      31.127   6.567  48.687  1.00  0.00     0.406 C 
HETATM   18  F1  UNL     1      31.568   5.351  49.252  1.00  0.00    -0.216 F 
HETATM   19  N1  UNL     1      29.685   6.650  49.018  1.00  0.00     0.121 N 
HETATM   20  C15 UNL     1      28.972   5.661  48.193  1.00  0.00     0.311 C 
HETATM   21  H16 UNL     1      29.551   6.365  50.009  1.00  0.00     0.320 HD
ENDROOT
TORSDOF 0
ENDMDL
MODEL 5
REMARK VINA RESULT:      -6.9      2.655      4.541
REMARK  0 active torsions:
REMARK  status: ('A' for Active; 'I' for Inactive)
ROOT
HETATM    1  C1  UNL     1      26.369   4.555  49.318  1.00  0.00     0.020 C 
HETATM    2  C2  UNL     1      25.703   3.595  49.999  1.00  0.00    -0.040 C 
HETATM    3  C3  UNL     1      26.562   2.882  50.902  1.00  0.00     0.009 C 
HETATM    4  C4  UNL     1      26.468   1.907  51.778  1.00  0.00     0.018 C 
HETATM    5  C5  UNL     1      25.270   1.123  52.166  1.00  0.00     0.019 A 
HETATM    6  S1  UNL     1      25.314  -0.190  53.377  1.00  0.00    -0.017 S 
HETATM    7  C6  UNL     1      26.427  -1.456  52.754  1.00  0.00     0.120 C 
HETATM    8  O1  UNL     1      25.968   0.415  54.634  1.00  0.00    -0.265 OA
HETATM    9  C7  UNL     1      24.094   0.566  52.352  1.00  0.00     0.152 A 
HETATM   10  C8  UNL     1      22.718   0.594  51.949  1.00  0.00    -0.000 C 
HETATM   11  C9  UNL     1      21.888   0.727  53.008  1.00  0.00    -0.007 C 
HETATM   12  C10 UNL     1      21.184   2.031  53.279  1.00  0.00     0.063 C 
HETATM   13  C11 UNL     1      20.965   2.816  52.063  1.00  0.00    -0.066 C 
HETATM   14  C12 UNL     1      20.349   1.936  51.237  1.00  0.00     0.053 C 
HETATM   15  S2  UNL     1      21.413   0.551  50.727  1.00  0.00    -0.105 SA
HETATM   16  C13 UNL     1      21.069   4.066  51.277  1.00  0.00     0.104 C 
HETATM   17  C14 UNL     1      22.031   3.954  50.139  1.00  0.00     0.406 C 
HETATM   18  F1  UNL     1      21.979   5.177  49.435  1.00  0.00    -0.216 F 
HETATM   19  N1  UNL     1      23.410   3.873  50.676  1.00  0.00     0.121 N 
HETATM   20  C15 UNL     1      24.321   3.609  49.549  1.00  0.00     0.311 C 
HETATM   21  H16 UNL     1      23.675   4.801  51.062  1.00  0.00     0.320 HD
ENDROOT
TORSDOF 0
ENDMDL
MODEL 6
REMARK VINA RESULT:      -6.9      3.300      4.755
REMARK  0 active torsions:
REMARK  status: ('A' for Active; 'I' for Inactive)
ROOT
HETATM    1  C1  UNL     1      27.186  -0.406  53.312  1.00  0.00     0.020 C 
HETATM    2  C2  UNL     1      25.918  -0.044  53.014  1.00  0.00    -0.040 C 
HETATM    3  C3  UNL     1      24.976  -0.549  53.973  1.00  0.00     0.009 C 
HETATM    4  C4  UNL     1      23.679  -0.507  54.186  1.00  0.00     0.018 C 
HETATM    5  C5  UNL     1      22.630   0.173  53.388  1.00  0.00     0.019 A 
HETATM    6  S1  UNL     1      20.895   0.122  53.812  1.00  0.00    -0.017 S 
HETATM    7  C6  UNL     1      20.380  -1.598  53.751  1.00  0.00     0.120 C 
HETATM    8  O1  UNL     1      20.805   0.575  55.282  1.00  0.00    -0.265 OA
HETATM    9  C7  UNL     1      21.882   0.846  52.542  1.00  0.00     0.152 A 
HETATM   10  C8  UNL     1      21.905   1.645  51.353  1.00  0.00    -0.000 C 
HETATM   11  C9  UNL     1      21.298   2.839  51.538  1.00  0.00    -0.007 C 
HETATM   12  C10 UNL     1      22.105   4.107  51.652  1.00  0.00     0.063 C 
HETATM   13  C11 UNL     1      23.381   4.028  50.941  1.00  0.00    -0.066 C 
HETATM   14  C12 UNL     1      23.015   3.634  49.697  1.00  0.00     0.053 C 
HETATM   15  S2  UNL     1      22.332   1.948  49.641  1.00  0.00    -0.105 SA
HETATM   16  C13 UNL     1      24.854   4.156  50.881  1.00  0.00     0.104 C 
HETATM   17  C14 UNL     1      25.544   2.838  50.738  1.00  0.00     0.406 C 
HETATM   18  F1  UNL     1      26.924   3.107  50.617  1.00  0.00    -0.216 F 
HETATM   19  N1  UNL     1      25.404   2.078  52.002  1.00  0.00     0.121 N 
HETATM   20  C15 UNL     1      25.954   0.729  51.785  1.00  0.00     0.311 C 
HETATM   21  H16 UNL     1      25.995   2.527  52.731  1.00  0.00     0.320 HD
ENDROOT
TORSDOF 0
ENDMDL
MODEL 7
REMARK VINA RESULT:      -6.7      2.887      5.042
REMARK  0 active torsions:
REMARK  status: ('A' for Active; 'I' for Inactive)
ROOT
HETATM    1  C1  UNL     1      26.822   2.460  51.587  1.00  0.00     0.020 C 
HETATM    2  C2  UNL     1      25.531   2.646  51.233  1.00  0.00    -0.040 C 
HETATM    3  C3  UNL     1      25.410   3.232  49.928  1.00  0.00     0.009 C 
HETATM    4  C4  UNL     1      24.453   3.608  49.109  1.00  0.00     0.018 C 
HETATM    5  C5  UNL     1      22.984   3.535  49.305  1.00  0.00     0.019 A 
HETATM    6  S1  UNL     1      21.809   4.106  48.086  1.00  0.00    -0.017 S 
HETATM    7  C6  UNL     1      22.087   5.866  47.856  1.00  0.00     0.120 C 
HETATM    8  O1  UNL     1      22.192   3.406  46.768  1.00  0.00    -0.265 OA
HETATM    9  C7  UNL     1      21.737   3.373  49.689  1.00  0.00     0.152 A 
HETATM   10  C8  UNL     1      20.902   2.897  50.752  1.00  0.00    -0.000 C 
HETATM   11  C9  UNL     1      20.003   1.987  50.315  1.00  0.00    -0.007 C 
HETATM   12  C10 UNL     1      20.168   0.523  50.632  1.00  0.00     0.063 C 
HETATM   13  C11 UNL     1      20.907   0.297  51.874  1.00  0.00    -0.066 C 
HETATM   14  C12 UNL     1      20.235   1.055  52.774  1.00  0.00     0.053 C 
HETATM   15  S2  UNL     1      20.367   2.842  52.459  1.00  0.00    -0.105 SA
HETATM   16  C13 UNL     1      22.001  -0.330  52.649  1.00  0.00     0.104 C 
HETATM   17  C14 UNL     1      23.037   0.655  53.088  1.00  0.00     0.406 C 
HETATM   18  F1  UNL     1      23.972  -0.055  53.872  1.00  0.00    -0.216 F 
HETATM   19  N1  UNL     1      23.795   1.120  51.903  1.00  0.00     0.121 N 
HETATM   20  C15 UNL     1      24.700   2.198  52.337  1.00  0.00     0.311 C 
HETATM   21  H16 UNL     1      24.398   0.343  51.564  1.00  0.00     0.320 HD
ENDROOT
TORSDOF 0
ENDMDL
MODEL 8
REMARK VINA RESULT:      -6.4     10.982     12.706
REMARK  0 active torsions:
REMARK  status: ('A' for Active; 'I' for Inactive)
ROOT
HETATM    1  C1  UNL     1      32.932   7.124  42.588  1.00  0.00     0.020 C 
HETATM    2  C2  UNL     1      32.622   6.613  43.801  1.00  0.00    -0.040 C 
HETATM    3  C3  UNL     1      33.351   5.408  44.079  1.00  0.00     0.009 C 
HETATM    4  C4  UNL     1      33.458   4.531  45.053  1.00  0.00     0.018 C 
HETATM    5  C5  UNL     1      32.757   4.509  46.360  1.00  0.00     0.019 A 
HETATM    6  S1  UNL     1      33.009   3.227  47.579  1.00  0.00    -0.017 S 
HETATM    7  C6  UNL     1      32.500   1.673  46.836  1.00  0.00     0.120 C 
HETATM    8  O1  UNL     1      34.531   3.150  47.805  1.00  0.00    -0.265 OA
HETATM    9  C7  UNL     1      32.034   4.691  47.443  1.00  0.00     0.152 A 
HETATM   10  C8  UNL     1      31.073   5.552  48.066  1.00  0.00    -0.000 C 
HETATM   11  C9  UNL     1      31.483   5.961  49.288  1.00  0.00    -0.007 C 
HETATM   12  C10 UNL     1      31.961   7.372  49.512  1.00  0.00     0.063 C 
HETATM   13  C11 UNL     1      31.362   8.324  48.576  1.00  0.00    -0.066 C 
HETATM   14  C12 UNL     1      30.034   8.089  48.708  1.00  0.00     0.053 C 
HETATM   15  S2  UNL     1      29.524   6.448  48.111  1.00  0.00    -0.105 SA
HETATM   16  C13 UNL     1      31.459   9.403  47.568  1.00  0.00     0.104 C 
HETATM   17  C14 UNL     1      31.067   8.951  46.198  1.00  0.00     0.406 C 
HETATM   18  F1  UNL     1      31.131  10.084  45.357  1.00  0.00    -0.216 F 
HETATM   19  N1  UNL     1      32.100   8.023  45.680  1.00  0.00     0.121 N 
HETATM   20  C15 UNL     1      31.617   7.474  44.401  1.00  0.00     0.311 C 
HETATM   21  H16 UNL     1      32.961   8.565  45.466  1.00  0.00     0.320 HD
ENDROOT
TORSDOF 0
ENDMDL
MODEL 9
REMARK VINA RESULT:      -6.1      3.290      5.693
REMARK  0 active torsions:
REMARK  status: ('A' for Active; 'I' for Inactive)
ROOT
HETATM    1  C1  UNL     1      21.675   3.931  45.894  1.00  0.00     0.020 C 
HETATM    2  C2  UNL     1      22.326   4.094  47.068  1.00  0.00    -0.040 C 
HETATM    3  C3  UNL     1      22.653   5.470  47.316  1.00  0.00     0.009 C 
HETATM    4  C4  UNL     1      23.243   6.182  48.250  1.00  0.00     0.018 C 
HETATM    5  C5  UNL     1      23.842   5.723  49.526  1.00  0.00     0.019 A 
HETATM    6  S1  UNL     1      24.622   6.830  50.692  1.00  0.00    -0.017 S 
HETATM    7  C6  UNL     1      26.019   7.590  49.855  1.00  0.00     0.120 C 
HETATM    8  O1  UNL     1      23.595   7.943  50.971  1.00  0.00    -0.265 OA
HETATM    9  C7  UNL     1      24.302   5.098  50.588  1.00  0.00     0.152 A 
HETATM   10  C8  UNL     1      24.434   3.816  51.215  1.00  0.00    -0.000 C 
HETATM   11  C9  UNL     1      23.932   3.817  52.470  1.00  0.00    -0.007 C 
HETATM   12  C10 UNL     1      22.624   3.134  52.779  1.00  0.00     0.063 C 
HETATM   13  C11 UNL     1      22.339   2.026  51.868  1.00  0.00    -0.066 C 
HETATM   14  C12 UNL     1      23.464   1.274  51.937  1.00  0.00     0.053 C 
HETATM   15  S2  UNL     1      24.931   2.097  51.243  1.00  0.00    -0.105 SA
HETATM   16  C13 UNL     1      21.461   1.308  50.917  1.00  0.00     0.104 C 
HETATM   17  C14 UNL     1      21.972   1.351  49.513  1.00  0.00     0.406 C 
HETATM   18  F1  UNL     1      21.090   0.573  48.731  1.00  0.00    -0.216 F 
HETATM   19  N1  UNL     1      21.840   2.731  48.991  1.00  0.00     0.121 N 
HETATM   20  C15 UNL     1      22.489   2.781  47.670  1.00  0.00     0.311 C 
HETATM   21  H16 UNL     1      20.833   2.937  48.837  1.00  0.00     0.320 HD
ENDROOT
TORSDOF 0
ENDMDL
