MODEL 1
REMARK VINA RESULT:      -9.1      0.000      0.000
REMARK  7 active torsions:
REMARK  status: ('A' for Active; 'I' for Inactive)
REMARK    1  A    between atoms: O1_2  and  C2_3 
REMARK    2  A    between atoms: C6_9  and  N3_10 
REMARK    3  A    between atoms: N4_13  and  C9_14 
REMARK    4  A    between atoms: C9_14  and  N5_16 
REMARK    5  A    between atoms: N5_16  and  C10_17 
REMARK    6  A    between atoms: C10_17  and  C11_18 
REMARK    7  A    between atoms: C20_27  and  O2_28 
ROOT
HETATM    1  N3  UNL     1      23.046   3.213  52.303  1.00  0.00    -0.347 N 
HETATM    2  C7  UNL     1      22.243   3.493  51.089  1.00  0.00     0.146 C 
HETATM    3  C8  UNL     1      22.070   4.996  51.168  1.00  0.00     0.147 C 
HETATM    4  N4  UNL     1      23.432   5.377  51.486  1.00  0.00    -0.340 N 
HETATM    5  C17 UNL     1      23.478   4.524  52.661  1.00  0.00     0.253 C 
ENDROOT
BRANCH   1   6
HETATM    6  C6  UNL     1      23.140   1.852  52.671  1.00  0.00     0.141 A 
HETATM    7  N2  UNL     1      22.143   0.971  52.488  1.00  0.00    -0.224 NA
HETATM    8  C5  UNL     1      22.197  -0.335  52.777  1.00  0.00     0.236 A 
HETATM    9  N1  UNL     1      23.316  -0.866  53.297  1.00  0.00    -0.241 NA
HETATM   10  C4  UNL     1      24.392  -0.091  53.530  1.00  0.00     0.075 A 
HETATM   11  C3  UNL     1      25.537  -0.629  54.073  1.00  0.00     0.072 A 
HETATM   12  C18 UNL     1      24.252   1.240  53.205  1.00  0.00     0.041 A 
HETATM   13  C2  UNL     1      26.635   0.166  54.325  1.00  0.00     0.103 A 
HETATM   14  C20 UNL     1      26.549   1.507  54.018  1.00  0.00     0.102 A 
HETATM   15  C19 UNL     1      25.376   1.988  53.478  1.00  0.00     0.057 A 
BRANCH  13  16
HETATM   16  O1  UNL     1      27.796  -0.350  54.868  1.00  0.00    -0.353 OA
HETATM   17  C1  UNL     1      28.883  -0.803  54.120  1.00  0.00     0.210 C 
ENDBRANCH  13  16
BRANCH  14  18
HETATM   18  O2  UNL     1      27.655   2.306  54.272  1.00  0.00    -0.353 OA
HETATM   19  C21 UNL     1      28.553   2.558  53.190  1.00  0.00     0.210 C 
ENDBRANCH  14  18
ENDBRANCH   1   6
BRANCH   4  20
HETATM   20  C9  UNL     1      24.332   6.266  50.839  1.00  0.00     0.171 C 
HETATM   21  S1  UNL     1      23.645   7.742  50.713  1.00  0.00    -0.041 SA
BRANCH  20  22
HETATM   22  N5  UNL     1      25.595   5.842  50.413  1.00  0.00    -0.363 N 
HETATM   23  H10 UNL     1      26.383   6.086  51.090  1.00  0.00     0.162 HD
BRANCH  22  24
HETATM   24  C10 UNL     1      26.004   5.145  49.233  1.00  0.00     0.160 C 
BRANCH  24  25
HETATM   25  C11 UNL     1      27.140   5.841  48.575  1.00  0.00    -0.041 A 
HETATM   26  C12 UNL     1      27.156   7.080  47.973  1.00  0.00     0.009 A 
HETATM   27  C13 UNL     1      28.290   7.590  47.390  1.00  0.00     0.001 A 
HETATM   28  C14 UNL     1      29.481   6.896  47.370  1.00  0.00     0.000 A 
HETATM   29  C15 UNL     1      29.533   5.649  47.955  1.00  0.00     0.001 A 
HETATM   30  C16 UNL     1      28.371   5.176  48.529  1.00  0.00     0.009 A 
ENDBRANCH  24  25
ENDBRANCH  22  24
ENDBRANCH  20  22
ENDBRANCH   4  20
TORSDOF 7
ENDMDL
MODEL 2
REMARK VINA RESULT:      -8.8      2.022      2.622
REMARK  7 active torsions:
REMARK  status: ('A' for Active; 'I' for Inactive)
REMARK    1  A    between atoms: O1_2  and  C2_3 
REMARK    2  A    between atoms: C6_9  and  N3_10 
REMARK    3  A    between atoms: N4_13  and  C9_14 
REMARK    4  A    between atoms: C9_14  and  N5_16 
REMARK    5  A    between atoms: N5_16  and  C10_17 
REMARK    6  A    between atoms: C10_17  and  C11_18 
REMARK    7  A    between atoms: C20_27  and  O2_28 
ROOT
HETATM    1  N3  UNL     1      21.721   1.277  51.917  1.00  0.00    -0.347 N 
HETATM    2  C7  UNL     1      21.254   0.540  50.719  1.00  0.00     0.146 C 
HETATM    3  C8  UNL     1      20.596   1.639  49.911  1.00  0.00     0.147 C 
HETATM    4  N4  UNL     1      21.615   2.664  50.029  1.00  0.00    -0.340 N 
HETATM    5  C17 UNL     1      21.592   2.629  51.481  1.00  0.00     0.253 C 
ENDROOT
BRANCH   1   6
HETATM    6  C6  UNL     1      22.134   0.475  53.005  1.00  0.00     0.141 A 
HETATM    7  N2  UNL     1      21.273  -0.099  53.862  1.00  0.00    -0.224 NA
HETATM    8  C5  UNL     1      21.608  -0.901  54.879  1.00  0.00     0.236 A 
HETATM    9  N1  UNL     1      22.899  -1.193  55.112  1.00  0.00    -0.241 NA
HETATM   10  C4  UNL     1      23.865  -0.681  54.326  1.00  0.00     0.075 A 
HETATM   11  C3  UNL     1      25.189  -0.968  54.569  1.00  0.00     0.072 A 
HETATM   12  C18 UNL     1      23.434   0.135  53.303  1.00  0.00     0.041 A 
HETATM   13  C2  UNL     1      26.180  -0.434  53.772  1.00  0.00     0.103 A 
HETATM   14  C20 UNL     1      25.804   0.390  52.733  1.00  0.00     0.102 A 
HETATM   15  C19 UNL     1      24.463   0.642  52.540  1.00  0.00     0.057 A 
BRANCH  13  16
HETATM   16  O1  UNL     1      27.517  -0.707  53.994  1.00  0.00    -0.353 OA
HETATM   17  C1  UNL     1      28.348   0.045  54.823  1.00  0.00     0.210 C 
ENDBRANCH  13  16
BRANCH  14  18
HETATM   18  O2  UNL     1      26.802   0.927  51.933  1.00  0.00    -0.353 OA
HETATM   19  C21 UNL     1      27.150   2.298  52.137  1.00  0.00     0.210 C 
ENDBRANCH  14  18
ENDBRANCH   1   6
BRANCH   4  20
HETATM   20  C9  UNL     1      22.331   3.392  49.040  1.00  0.00     0.171 C 
HETATM   21  S1  UNL     1      21.574   3.248  47.602  1.00  0.00    -0.041 SA
BRANCH  20  22
HETATM   22  N5  UNL     1      23.498   4.096  49.356  1.00  0.00    -0.363 N 
HETATM   23  H10 UNL     1      23.386   5.156  49.322  1.00  0.00     0.162 HD
BRANCH  22  24
HETATM   24  C10 UNL     1      24.806   3.636  49.713  1.00  0.00     0.160 C 
BRANCH  24  25
HETATM   25  C11 UNL     1      25.850   4.555  49.190  1.00  0.00    -0.041 A 
HETATM   26  C12 UNL     1      27.197   4.322  49.029  1.00  0.00     0.009 A 
HETATM   27  C13 UNL     1      28.048   5.283  48.541  1.00  0.00     0.001 A 
HETATM   28  C14 UNL     1      27.608   6.539  48.181  1.00  0.00     0.000 A 
HETATM   29  C15 UNL     1      26.269   6.838  48.318  1.00  0.00     0.001 A 
HETATM   30  C16 UNL     1      25.451   5.843  48.812  1.00  0.00     0.009 A 
ENDBRANCH  24  25
ENDBRANCH  22  24
ENDBRANCH  20  22
ENDBRANCH   4  20
TORSDOF 7
ENDMDL
MODEL 3
REMARK VINA RESULT:      -8.4      3.909      8.614
REMARK  7 active torsions:
REMARK  status: ('A' for Active; 'I' for Inactive)
REMARK    1  A    between atoms: O1_2  and  C2_3 
REMARK    2  A    between atoms: C6_9  and  N3_10 
REMARK    3  A    between atoms: N4_13  and  C9_14 
REMARK    4  A    between atoms: C9_14  and  N5_16 
REMARK    5  A    between atoms: N5_16  and  C10_17 
REMARK    6  A    between atoms: C10_17  and  C11_18 
REMARK    7  A    between atoms: C20_27  and  O2_28 
ROOT
HETATM    1  N3  UNL     1      22.900   1.867  51.305  1.00  0.00    -0.347 N 
HETATM    2  C7  UNL     1      22.107   2.829  52.105  1.00  0.00     0.146 C 
HETATM    3  C8  UNL     1      20.689   2.465  51.717  1.00  0.00     0.147 C 
HETATM    4  N4  UNL     1      20.775   1.022  51.823  1.00  0.00    -0.340 N 
HETATM    5  C17 UNL     1      21.892   0.944  50.899  1.00  0.00     0.253 C 
ENDROOT
BRANCH   1   6
HETATM    6  C6  UNL     1      24.286   2.133  51.229  1.00  0.00     0.141 A 
HETATM    7  N2  UNL     1      24.805   3.112  50.469  1.00  0.00    -0.224 NA
HETATM    8  C5  UNL     1      26.102   3.434  50.395  1.00  0.00     0.236 A 
HETATM    9  N1  UNL     1      27.008   2.756  51.119  1.00  0.00    -0.241 NA
HETATM   10  C4  UNL     1      26.620   1.749  51.923  1.00  0.00     0.075 A 
HETATM   11  C3  UNL     1      27.548   1.044  52.658  1.00  0.00     0.072 A 
HETATM   12  C18 UNL     1      25.269   1.482  51.940  1.00  0.00     0.041 A 
HETATM   13  C2  UNL     1      27.153   0.003  53.472  1.00  0.00     0.103 A 
HETATM   14  C20 UNL     1      25.811  -0.306  53.526  1.00  0.00     0.102 A 
HETATM   15  C19 UNL     1      24.930   0.435  52.767  1.00  0.00     0.057 A 
BRANCH  13  16
HETATM   16  O1  UNL     1      28.063  -0.719  54.221  1.00  0.00    -0.353 OA
HETATM   17  C1  UNL     1      29.401  -0.902  53.872  1.00  0.00     0.210 C 
ENDBRANCH  13  16
BRANCH  14  18
HETATM   18  O2  UNL     1      25.416  -1.354  54.346  1.00  0.00    -0.353 OA
HETATM   19  C21 UNL     1      24.792  -1.024  55.588  1.00  0.00     0.210 C 
ENDBRANCH  14  18
ENDBRANCH   1   6
BRANCH   4  20
HETATM   20  C9  UNL     1      20.011   0.091  52.577  1.00  0.00     0.171 C 
HETATM   21  S1  UNL     1      20.781  -0.238  53.978  1.00  0.00    -0.041 SA
BRANCH  20  22
HETATM   22  N5  UNL     1      18.793  -0.408  52.102  1.00  0.00    -0.363 N 
HETATM   23  H10 UNL     1      18.851  -0.829  51.123  1.00  0.00     0.162 HD
BRANCH  22  24
HETATM   24  C10 UNL     1      17.495  -0.446  52.702  1.00  0.00     0.160 C 
BRANCH  24  25
HETATM   25  C11 UNL     1      17.054  -1.849  52.918  1.00  0.00    -0.041 A 
HETATM   26  C12 UNL     1      17.698  -2.856  53.602  1.00  0.00     0.009 A 
HETATM   27  C13 UNL     1      17.167  -4.118  53.705  1.00  0.00     0.001 A 
HETATM   28  C14 UNL     1      15.958  -4.456  53.134  1.00  0.00     0.000 A 
HETATM   29  C15 UNL     1      15.263  -3.493  52.435  1.00  0.00     0.001 A 
HETATM   30  C16 UNL     1      15.833  -2.239  52.356  1.00  0.00     0.009 A 
ENDBRANCH  24  25
ENDBRANCH  22  24
ENDBRANCH  20  22
ENDBRANCH   4  20
TORSDOF 7
ENDMDL
MODEL 4
REMARK VINA RESULT:      -8.1      2.461      3.799
REMARK  7 active torsions:
REMARK  status: ('A' for Active; 'I' for Inactive)
REMARK    1  A    between atoms: O1_2  and  C2_3 
REMARK    2  A    between atoms: C6_9  and  N3_10 
REMARK    3  A    between atoms: N4_13  and  C9_14 
REMARK    4  A    between atoms: C9_14  and  N5_16 
REMARK    5  A    between atoms: N5_16  and  C10_17 
REMARK    6  A    between atoms: C10_17  and  C11_18 
REMARK    7  A    between atoms: C20_27  and  O2_28 
ROOT
HETATM    1  N3  UNL     1      25.391   3.661  50.948  1.00  0.00    -0.347 N 
HETATM    2  C7  UNL     1      25.964   3.822  49.591  1.00  0.00     0.146 C 
HETATM    3  C8  UNL     1      25.067   4.889  48.997  1.00  0.00     0.147 C 
HETATM    4  N4  UNL     1      25.038   5.822  50.107  1.00  0.00    -0.340 N 
HETATM    5  C17 UNL     1      24.559   4.816  51.039  1.00  0.00     0.253 C 
ENDROOT
BRANCH   1   6
HETATM    6  C6  UNL     1      25.833   2.528  51.666  1.00  0.00     0.141 A 
HETATM    7  N2  UNL     1      27.120   2.319  51.990  1.00  0.00    -0.224 NA
HETATM    8  C5  UNL     1      27.584   1.289  52.706  1.00  0.00     0.236 A 
HETATM    9  N1  UNL     1      26.739   0.350  53.166  1.00  0.00    -0.241 NA
HETATM   10  C4  UNL     1      25.420   0.440  52.912  1.00  0.00     0.075 A 
HETATM   11  C3  UNL     1      24.553  -0.525  53.372  1.00  0.00     0.072 A 
HETATM   12  C18 UNL     1      25.027   1.531  52.169  1.00  0.00     0.041 A 
HETATM   13  C2  UNL     1      23.203  -0.442  53.101  1.00  0.00     0.103 A 
HETATM   14  C20 UNL     1      22.755   0.631  52.360  1.00  0.00     0.102 A 
HETATM   15  C19 UNL     1      23.671   1.564  51.926  1.00  0.00     0.057 A 
BRANCH  13  16
HETATM   16  O1  UNL     1      22.311  -1.396  53.552  1.00  0.00    -0.353 OA
HETATM   17  C1  UNL     1      21.747  -1.407  54.827  1.00  0.00     0.210 C 
ENDBRANCH  13  16
BRANCH  14  18
HETATM   18  O2  UNL     1      21.397   0.713  52.088  1.00  0.00    -0.353 OA
HETATM   19  C21 UNL     1      20.988   0.625  50.722  1.00  0.00     0.210 C 
ENDBRANCH  14  18
ENDBRANCH   1   6
BRANCH   4  20
HETATM   20  C9  UNL     1      25.371   7.201  50.181  1.00  0.00     0.171 C 
HETATM   21  S1  UNL     1      24.018   8.076  50.441  1.00  0.00    -0.041 SA
BRANCH  20  22
HETATM   22  N5  UNL     1      26.692   7.640  50.040  1.00  0.00    -0.363 N 
HETATM   23  H10 UNL     1      27.281   7.531  50.923  1.00  0.00     0.162 HD
BRANCH  22  24
HETATM   24  C10 UNL     1      27.380   8.207  48.921  1.00  0.00     0.160 C 
BRANCH  24  25
HETATM   25  C11 UNL     1      28.541   7.365  48.532  1.00  0.00    -0.041 A 
HETATM   26  C12 UNL     1      28.579   6.007  48.303  1.00  0.00     0.009 A 
HETATM   27  C13 UNL     1      29.741   5.361  47.961  1.00  0.00     0.001 A 
HETATM   28  C14 UNL     1      30.940   6.027  47.825  1.00  0.00     0.000 A 
HETATM   29  C15 UNL     1      30.971   7.389  48.041  1.00  0.00     0.001 A 
HETATM   30  C16 UNL     1      29.781   7.997  48.382  1.00  0.00     0.009 A 
ENDBRANCH  24  25
ENDBRANCH  22  24
ENDBRANCH  20  22
ENDBRANCH   4  20
TORSDOF 7
ENDMDL
MODEL 5
REMARK VINA RESULT:      -8.1      2.652      3.922
REMARK  7 active torsions:
REMARK  status: ('A' for Active; 'I' for Inactive)
REMARK    1  A    between atoms: O1_2  and  C2_3 
REMARK    2  A    between atoms: C6_9  and  N3_10 
REMARK    3  A    between atoms: N4_13  and  C9_14 
REMARK    4  A    between atoms: C9_14  and  N5_16 
REMARK    5  A    between atoms: N5_16  and  C10_17 
REMARK    6  A    between atoms: C10_17  and  C11_18 
REMARK    7  A    between atoms: C20_27  and  O2_28 
ROOT
HETATM    1  N3  UNL     1      23.029   3.227  52.286  1.00  0.00    -0.347 N 
HETATM    2  C7  UNL     1      21.654   3.688  51.983  1.00  0.00     0.146 C 
HETATM    3  C8  UNL     1      21.822   5.194  51.981  1.00  0.00     0.147 C 
HETATM    4  N4  UNL     1      23.031   5.298  51.186  1.00  0.00    -0.340 N 
HETATM    5  C17 UNL     1      23.779   4.420  52.069  1.00  0.00     0.253 C 
ENDROOT
BRANCH   1   6
HETATM    6  C6  UNL     1      23.152   1.863  52.637  1.00  0.00     0.141 A 
HETATM    7  N2  UNL     1      22.176   0.963  52.436  1.00  0.00    -0.224 NA
HETATM    8  C5  UNL     1      22.256  -0.345  52.708  1.00  0.00     0.236 A 
HETATM    9  N1  UNL     1      23.385  -0.858  53.228  1.00  0.00    -0.241 NA
HETATM   10  C4  UNL     1      24.441  -0.063  53.478  1.00  0.00     0.075 A 
HETATM   11  C3  UNL     1      25.594  -0.583  54.021  1.00  0.00     0.072 A 
HETATM   12  C18 UNL     1      24.274   1.269  53.170  1.00  0.00     0.041 A 
HETATM   13  C2  UNL     1      26.673   0.233  54.291  1.00  0.00     0.103 A 
HETATM   14  C20 UNL     1      26.559   1.576  54.001  1.00  0.00     0.102 A 
HETATM   15  C19 UNL     1      25.379   2.038  53.459  1.00  0.00     0.057 A 
BRANCH  13  16
HETATM   16  O1  UNL     1      27.842  -0.264  54.834  1.00  0.00    -0.353 OA
HETATM   17  C1  UNL     1      28.892  -0.800  54.089  1.00  0.00     0.210 C 
ENDBRANCH  13  16
BRANCH  14  18
HETATM   18  O2  UNL     1      27.645   2.396  54.273  1.00  0.00    -0.353 OA
HETATM   19  C21 UNL     1      28.616   2.574  53.240  1.00  0.00     0.210 C 
ENDBRANCH  14  18
ENDBRANCH   1   6
BRANCH   4  20
HETATM   20  C9  UNL     1      23.308   6.015  49.991  1.00  0.00     0.171 C 
HETATM   21  S1  UNL     1      23.356   7.615  50.313  1.00  0.00    -0.041 SA
BRANCH  20  22
HETATM   22  N5  UNL     1      23.496   5.355  48.772  1.00  0.00    -0.363 N 
HETATM   23  H10 UNL     1      24.516   5.125  48.559  1.00  0.00     0.162 HD
BRANCH  22  24
HETATM   24  C10 UNL     1      22.559   4.942  47.773  1.00  0.00     0.160 C 
BRANCH  24  25
HETATM   25  C11 UNL     1      21.790   3.755  48.229  1.00  0.00    -0.041 A 
HETATM   26  C12 UNL     1      20.437   3.647  48.465  1.00  0.00     0.009 A 
HETATM   27  C13 UNL     1      19.867   2.476  48.902  1.00  0.00     0.001 A 
HETATM   28  C14 UNL     1      20.610   1.338  49.130  1.00  0.00     0.000 A 
HETATM   29  C15 UNL     1      21.971   1.379  48.912  1.00  0.00     0.001 A 
HETATM   30  C16 UNL     1      22.501   2.574  48.475  1.00  0.00     0.009 A 
ENDBRANCH  24  25
ENDBRANCH  22  24
ENDBRANCH  20  22
ENDBRANCH   4  20
TORSDOF 7
ENDMDL
MODEL 6
REMARK VINA RESULT:      -8.0      3.329      5.149
REMARK  7 active torsions:
REMARK  status: ('A' for Active; 'I' for Inactive)
REMARK    1  A    between atoms: O1_2  and  C2_3 
REMARK    2  A    between atoms: C6_9  and  N3_10 
REMARK    3  A    between atoms: N4_13  and  C9_14 
REMARK    4  A    between atoms: C9_14  and  N5_16 
REMARK    5  A    between atoms: N5_16  and  C10_17 
REMARK    6  A    between atoms: C10_17  and  C11_18 
REMARK    7  A    between atoms: C20_27  and  O2_28 
ROOT
HETATM    1  N3  UNL     1      23.939   0.922  52.593  1.00  0.00    -0.347 N 
HETATM    2  C7  UNL     1      25.058   1.489  53.383  1.00  0.00     0.146 C 
HETATM    3  C8  UNL     1      25.964   2.031  52.298  1.00  0.00     0.147 C 
HETATM    4  N4  UNL     1      24.978   2.703  51.475  1.00  0.00    -0.340 N 
HETATM    5  C17 UNL     1      24.182   1.500  51.312  1.00  0.00     0.253 C 
ENDROOT
BRANCH   1   6
HETATM    6  C6  UNL     1      23.051   0.085  53.305  1.00  0.00     0.141 A 
HETATM    7  N2  UNL     1      23.412  -0.604  54.401  1.00  0.00    -0.224 NA
HETATM    8  C5  UNL     1      22.602  -1.374  55.136  1.00  0.00     0.236 A 
HETATM    9  N1  UNL     1      21.307  -1.508  54.799  1.00  0.00    -0.241 NA
HETATM   10  C4  UNL     1      20.817  -0.870  53.720  1.00  0.00     0.075 A 
HETATM   11  C3  UNL     1      19.494  -1.014  53.365  1.00  0.00     0.072 A 
HETATM   12  C18 UNL     1      21.717  -0.099  53.019  1.00  0.00     0.041 A 
HETATM   13  C2  UNL     1      18.992  -0.371  52.253  1.00  0.00     0.103 A 
HETATM   14  C20 UNL     1      19.853   0.414  51.514  1.00  0.00     0.102 A 
HETATM   15  C19 UNL     1      21.166   0.518  51.919  1.00  0.00     0.057 A 
BRANCH  13  16
HETATM   16  O1  UNL     1      17.669  -0.498  51.876  1.00  0.00    -0.353 OA
HETATM   17  C1  UNL     1      16.720   0.519  51.976  1.00  0.00     0.210 C 
ENDBRANCH  13  16
BRANCH  14  18
HETATM   18  O2  UNL     1      19.346   1.060  50.395  1.00  0.00    -0.353 OA
HETATM   19  C21 UNL     1      20.259   1.371  49.340  1.00  0.00     0.210 C 
ENDBRANCH  14  18
ENDBRANCH   1   6
BRANCH   4  20
HETATM   20  C9  UNL     1      24.887   4.051  51.033  1.00  0.00     0.171 C 
HETATM   21  S1  UNL     1      23.442   4.672  51.467  1.00  0.00    -0.041 SA
BRANCH  20  22
HETATM   22  N5  UNL     1      25.937   4.662  50.338  1.00  0.00    -0.363 N 
HETATM   23  H10 UNL     1      26.139   5.661  50.652  1.00  0.00     0.162 HD
BRANCH  22  24
HETATM   24  C10 UNL     1      26.778   4.175  49.287  1.00  0.00     0.160 C 
BRANCH  24  25
HETATM   25  C11 UNL     1      27.495   5.295  48.624  1.00  0.00    -0.041 A 
HETATM   26  C12 UNL     1      28.818   5.365  48.249  1.00  0.00     0.009 A 
HETATM   27  C13 UNL     1      29.345   6.483  47.651  1.00  0.00     0.001 A 
HETATM   28  C14 UNL     1      28.585   7.603  47.388  1.00  0.00     0.000 A 
HETATM   29  C15 UNL     1      27.252   7.598  47.739  1.00  0.00     0.001 A 
HETATM   30  C16 UNL     1      26.765   6.455  48.337  1.00  0.00     0.009 A 
ENDBRANCH  24  25
ENDBRANCH  22  24
ENDBRANCH  20  22
ENDBRANCH   4  20
TORSDOF 7
ENDMDL
MODEL 7
REMARK VINA RESULT:      -7.7      3.155      7.471
REMARK  7 active torsions:
REMARK  status: ('A' for Active; 'I' for Inactive)
REMARK    1  A    between atoms: O1_2  and  C2_3 
REMARK    2  A    between atoms: C6_9  and  N3_10 
REMARK    3  A    between atoms: N4_13  and  C9_14 
REMARK    4  A    between atoms: C9_14  and  N5_16 
REMARK    5  A    between atoms: N5_16  and  C10_17 
REMARK    6  A    between atoms: C10_17  and  C11_18 
REMARK    7  A    between atoms: C20_27  and  O2_28 
ROOT
HETATM    1  N3  UNL     1      22.814   3.871  50.263  1.00  0.00    -0.347 N 
HETATM    2  C7  UNL     1      22.393   5.026  51.090  1.00  0.00     0.146 C 
HETATM    3  C8  UNL     1      20.963   5.231  50.635  1.00  0.00     0.147 C 
HETATM    4  N4  UNL     1      20.504   3.856  50.662  1.00  0.00    -0.340 N 
HETATM    5  C17 UNL     1      21.559   3.406  49.772  1.00  0.00     0.253 C 
ENDROOT
BRANCH   1   6
HETATM    6  C6  UNL     1      24.203   3.605  50.248  1.00  0.00     0.141 A 
HETATM    7  N2  UNL     1      25.065   4.250  49.444  1.00  0.00    -0.224 NA
HETATM    8  C5  UNL     1      26.390   4.070  49.421  1.00  0.00     0.236 A 
HETATM    9  N1  UNL     1      26.965   3.181  50.249  1.00  0.00    -0.241 NA
HETATM   10  C4  UNL     1      26.213   2.467  51.107  1.00  0.00     0.075 A 
HETATM   11  C3  UNL     1      26.797   1.547  51.949  1.00  0.00     0.072 A 
HETATM   12  C18 UNL     1      24.859   2.713  51.065  1.00  0.00     0.041 A 
HETATM   13  C2  UNL     1      26.027   0.805  52.820  1.00  0.00     0.103 A 
HETATM   14  C20 UNL     1      24.664   1.012  52.819  1.00  0.00     0.102 A 
HETATM   15  C19 UNL     1      24.138   1.946  51.953  1.00  0.00     0.057 A 
BRANCH  13  16
HETATM   16  O1  UNL     1      26.588  -0.123  53.676  1.00  0.00    -0.353 OA
HETATM   17  C1  UNL     1      27.656   0.140  54.533  1.00  0.00     0.210 C 
ENDBRANCH  13  16
BRANCH  14  18
HETATM   18  O2  UNL     1      23.891   0.264  53.696  1.00  0.00    -0.353 OA
HETATM   19  C21 UNL     1      22.971  -0.674  53.133  1.00  0.00     0.210 C 
ENDBRANCH  14  18
ENDBRANCH   1   6
BRANCH   4  20
HETATM   20  C9  UNL     1      19.412   3.246  51.337  1.00  0.00     0.171 C 
HETATM   21  S1  UNL     1      18.032   4.034  50.967  1.00  0.00    -0.041 SA
BRANCH  20  22
HETATM   22  N5  UNL     1      19.599   2.137  52.170  1.00  0.00    -0.363 N 
HETATM   23  H10 UNL     1      19.494   2.355  53.209  1.00  0.00     0.162 HD
BRANCH  22  24
HETATM   24  C10 UNL     1      19.906   0.773  51.864  1.00  0.00     0.160 C 
BRANCH  24  25
HETATM   25  C11 UNL     1      18.707  -0.089  52.035  1.00  0.00    -0.041 A 
HETATM   26  C12 UNL     1      17.564  -0.131  51.267  1.00  0.00     0.009 A 
HETATM   27  C13 UNL     1      16.525  -0.980  51.560  1.00  0.00     0.001 A 
HETATM   28  C14 UNL     1      16.559  -1.841  52.636  1.00  0.00     0.000 A 
HETATM   29  C15 UNL     1      17.675  -1.847  53.445  1.00  0.00     0.001 A 
HETATM   30  C16 UNL     1      18.695  -0.979  53.115  1.00  0.00     0.009 A 
ENDBRANCH  24  25
ENDBRANCH  22  24
ENDBRANCH  20  22
ENDBRANCH   4  20
TORSDOF 7
ENDMDL
MODEL 8
REMARK VINA RESULT:      -7.7      3.479      7.791
REMARK  7 active torsions:
REMARK  status: ('A' for Active; 'I' for Inactive)
REMARK    1  A    between atoms: O1_2  and  C2_3 
REMARK    2  A    between atoms: C6_9  and  N3_10 
REMARK    3  A    between atoms: N4_13  and  C9_14 
REMARK    4  A    between atoms: C9_14  and  N5_16 
REMARK    5  A    between atoms: N5_16  and  C10_17 
REMARK    6  A    between atoms: C10_17  and  C11_18 
REMARK    7  A    between atoms: C20_27  and  O2_28 
ROOT
HETATM    1  N3  UNL     1      22.941   1.807  51.501  1.00  0.00    -0.347 N 
HETATM    2  C7  UNL     1      22.333   1.091  50.355  1.00  0.00     0.146 C 
HETATM    3  C8  UNL     1      21.005   0.648  50.932  1.00  0.00     0.147 C 
HETATM    4  N4  UNL     1      20.599   1.882  51.574  1.00  0.00    -0.340 N 
HETATM    5  C17 UNL     1      21.816   1.963  52.362  1.00  0.00     0.253 C 
ENDROOT
BRANCH   1   6
HETATM    6  C6  UNL     1      24.317   2.105  51.374  1.00  0.00     0.141 A 
HETATM    7  N2  UNL     1      24.786   3.094  50.595  1.00  0.00    -0.224 NA
HETATM    8  C5  UNL     1      26.071   3.446  50.474  1.00  0.00     0.236 A 
HETATM    9  N1  UNL     1      27.019   2.790  51.165  1.00  0.00    -0.241 NA
HETATM   10  C4  UNL     1      26.683   1.775  51.984  1.00  0.00     0.075 A 
HETATM   11  C3  UNL     1      27.652   1.093  52.685  1.00  0.00     0.072 A 
HETATM   12  C18 UNL     1      25.340   1.478  52.050  1.00  0.00     0.041 A 
HETATM   13  C2  UNL     1      27.312   0.046  53.514  1.00  0.00     0.103 A 
HETATM   14  C20 UNL     1      25.980  -0.294  53.617  1.00  0.00     0.102 A 
HETATM   15  C19 UNL     1      25.056   0.424  52.890  1.00  0.00     0.057 A 
BRANCH  13  16
HETATM   16  O1  UNL     1      28.265  -0.654  54.230  1.00  0.00    -0.353 OA
HETATM   17  C1  UNL     1      29.596  -0.795  53.840  1.00  0.00     0.210 C 
ENDBRANCH  13  16
BRANCH  14  18
HETATM   18  O2  UNL     1      25.639  -1.349  54.451  1.00  0.00    -0.353 OA
HETATM   19  C21 UNL     1      24.786  -1.066  55.563  1.00  0.00     0.210 C 
ENDBRANCH  14  18
ENDBRANCH   1   6
BRANCH   4  20
HETATM   20  C9  UNL     1      19.424   2.670  51.433  1.00  0.00     0.171 C 
HETATM   21  S1  UNL     1      19.826   4.158  50.897  1.00  0.00    -0.041 SA
BRANCH  20  22
HETATM   22  N5  UNL     1      18.159   2.152  51.732  1.00  0.00    -0.363 N 
HETATM   23  H10 UNL     1      17.796   2.428  52.696  1.00  0.00     0.162 HD
BRANCH  22  24
HETATM   24  C10 UNL     1      17.280   1.320  50.969  1.00  0.00     0.160 C 
BRANCH  24  25
HETATM   25  C11 UNL     1      17.056   0.020  51.654  1.00  0.00    -0.041 A 
HETATM   26  C12 UNL     1      17.849  -0.605  52.591  1.00  0.00     0.009 A 
HETATM   27  C13 UNL     1      17.515  -1.823  53.129  1.00  0.00     0.001 A 
HETATM   28  C14 UNL     1      16.367  -2.496  52.768  1.00  0.00     0.000 A 
HETATM   29  C15 UNL     1      15.529  -1.924  51.834  1.00  0.00     0.001 A 
HETATM   30  C16 UNL     1      15.904  -0.701  51.319  1.00  0.00     0.009 A 
ENDBRANCH  24  25
ENDBRANCH  22  24
ENDBRANCH  20  22
ENDBRANCH   4  20
TORSDOF 7
ENDMDL
MODEL 9
REMARK VINA RESULT:      -7.5      3.893      8.623
REMARK  7 active torsions:
REMARK  status: ('A' for Active; 'I' for Inactive)
REMARK    1  A    between atoms: O1_2  and  C2_3 
REMARK    2  A    between atoms: C6_9  and  N3_10 
REMARK    3  A    between atoms: N4_13  and  C9_14 
REMARK    4  A    between atoms: C9_14  and  N5_16 
REMARK    5  A    between atoms: N5_16  and  C10_17 
REMARK    6  A    between atoms: C10_17  and  C11_18 
REMARK    7  A    between atoms: C20_27  and  O2_28 
ROOT
HETATM    1  N3  UNL     1      25.314   3.542  51.176  1.00  0.00    -0.347 N 
HETATM    2  C7  UNL     1      26.612   2.941  50.791  1.00  0.00     0.146 C 
HETATM    3  C8  UNL     1      27.014   2.221  52.062  1.00  0.00     0.147 C 
HETATM    4  N4  UNL     1      25.754   1.579  52.381  1.00  0.00    -0.340 N 
HETATM    5  C17 UNL     1      25.025   2.835  52.380  1.00  0.00     0.253 C 
ENDROOT
BRANCH   1   6
HETATM    6  C6  UNL     1      24.808   4.520  50.291  1.00  0.00     0.141 A 
HETATM    7  N2  UNL     1      25.204   5.804  50.309  1.00  0.00    -0.224 NA
HETATM    8  C5  UNL     1      24.791   6.757  49.467  1.00  0.00     0.236 A 
HETATM    9  N1  UNL     1      23.904   6.466  48.500  1.00  0.00    -0.241 NA
HETATM   10  C4  UNL     1      23.426   5.215  48.371  1.00  0.00     0.075 A 
HETATM   11  C3  UNL     1      22.509   4.916  47.388  1.00  0.00     0.072 A 
HETATM   12  C18 UNL     1      23.902   4.295  49.278  1.00  0.00     0.041 A 
HETATM   13  C2  UNL     1      22.008   3.637  47.262  1.00  0.00     0.103 A 
HETATM   14  C20 UNL     1      22.451   2.677  48.146  1.00  0.00     0.102 A 
HETATM   15  C19 UNL     1      23.369   3.036  49.109  1.00  0.00     0.057 A 
BRANCH  13  16
HETATM   16  O1  UNL     1      21.088   3.310  46.284  1.00  0.00    -0.353 OA
HETATM   17  C1  UNL     1      19.748   3.696  46.302  1.00  0.00     0.210 C 
ENDBRANCH  13  16
BRANCH  14  18
HETATM   18  O2  UNL     1      21.946   1.390  48.019  1.00  0.00    -0.353 OA
HETATM   19  C21 UNL     1      21.331   0.803  49.168  1.00  0.00     0.210 C 
ENDBRANCH  14  18
ENDBRANCH   1   6
BRANCH   4  20
HETATM   20  C9  UNL     1      25.427   0.213  52.599  1.00  0.00     0.171 C 
HETATM   21  S1  UNL     1      26.788  -0.687  52.558  1.00  0.00    -0.041 SA
BRANCH  20  22
HETATM   22  N5  UNL     1      24.105  -0.195  52.810  1.00  0.00    -0.363 N 
HETATM   23  H10 UNL     1      23.505  -0.188  51.928  1.00  0.00     0.162 HD
BRANCH  22  24
HETATM   24  C10 UNL     1      23.430  -0.615  54.000  1.00  0.00     0.160 C 
BRANCH  24  25
HETATM   25  C11 UNL     1      21.961  -0.682  53.777  1.00  0.00    -0.041 A 
HETATM   26  C12 UNL     1      21.063  -1.612  54.251  1.00  0.00     0.009 A 
HETATM   27  C13 UNL     1      19.725  -1.550  53.946  1.00  0.00     0.001 A 
HETATM   28  C14 UNL     1      19.198  -0.556  53.150  1.00  0.00     0.000 A 
HETATM   29  C15 UNL     1      20.045   0.407  52.644  1.00  0.00     0.001 A 
HETATM   30  C16 UNL     1      21.380   0.306  52.974  1.00  0.00     0.009 A 
ENDBRANCH  24  25
ENDBRANCH  22  24
ENDBRANCH  20  22
ENDBRANCH   4  20
TORSDOF 7
ENDMDL
