MODEL 1
REMARK VINA RESULT:      -7.7      0.000      0.000
REMARK  8 active torsions:
REMARK  status: ('A' for Active; 'I' for Inactive)
REMARK    1  A    between atoms: C2_2  and  C3_4 
REMARK    2  A    between atoms: C4_5  and  C5_6 
REMARK    3  A    between atoms: C5_6  and  C6_7 
REMARK    4  A    between atoms: C6_7  and  N1_8 
REMARK    5  A    between atoms: N4_23  and  C17_24 
REMARK    6  A    between atoms: C17_24  and  C18_25 
REMARK    7  A    between atoms: C18_25  and  C19_26 
REMARK    8  A    between atoms: C19_26  and  N5_27 
ROOT
HETATM    1  N1  UNL     1      25.149   3.583  51.440  1.00  0.00    -0.351 N 
HETATM    2  C7  UNL     1      23.854   3.601  51.828  1.00  0.00     0.128 C 
HETATM    3  C8  UNL     1      22.620   3.400  51.897  1.00  0.00     0.052 C 
HETATM    4  C9  UNL     1      21.234   3.244  52.083  1.00  0.00     0.034 C 
HETATM    5  C10 UNL     1      20.881   2.559  51.009  1.00  0.00     0.063 C 
HETATM    6  C11 UNL     1      22.019   2.273  50.066  1.00  0.00     0.317 C 
HETATM    7  O1  UNL     1      22.280   3.543  49.478  1.00  0.00    -0.308 OA
HETATM    8  C12 UNL     1      23.399   4.260  49.452  1.00  0.00     0.427 C 
HETATM    9  N2  UNL     1      24.256   5.080  49.901  1.00  0.00    -0.362 NA
HETATM   10  C13 UNL     1      24.207   5.821  51.186  1.00  0.00     0.200 C 
HETATM   11  N3  UNL     1      23.990   5.029  52.273  1.00  0.00    -0.227 NA
HETATM   12  O2  UNL     1      21.575   1.393  49.062  1.00  0.00    -0.353 OA
HETATM   13  C14 UNL     1      20.451   1.930  48.428  1.00  0.00     0.196 C 
HETATM   14  C15 UNL     1      19.218   1.951  49.279  1.00  0.00     0.104 C 
HETATM   15  C16 UNL     1      18.324   3.099  48.881  1.00  0.00     0.034 C 
HETATM   16  N4  UNL     1      19.620   2.020  50.663  1.00  0.00    -0.374 N 
HETATM   17  H7  UNL     1      25.854   4.102  50.913  1.00  0.00     0.166 HD
ENDROOT
BRANCH   1  18
HETATM   18  C6  UNL     1      26.216   2.718  51.600  1.00  0.00     0.090 C 
BRANCH  18  19
HETATM   19  C5  UNL     1      26.565   1.424  51.621  1.00  0.00     0.017 C 
BRANCH  19  20
HETATM   20  C4  UNL     1      26.698   0.006  52.002  1.00  0.00     0.004 C 
HETATM   21  C3  UNL     1      27.103  -0.597  53.146  1.00  0.00     0.037 C 
BRANCH  21  22
HETATM   22  C2  UNL     1      27.544  -0.054  54.378  1.00  0.00     0.094 C 
HETATM   23  C1  UNL     1      28.852  -0.251  54.141  1.00  0.00     0.077 C 
HETATM   24  F1  UNL     1      26.572   0.439  55.206  1.00  0.00    -0.211 F 
ENDBRANCH  21  22
ENDBRANCH  19  20
ENDBRANCH  18  19
ENDBRANCH   1  18
BRANCH  16  25
HETATM   25  C17 UNL     1      18.858   1.541  51.810  1.00  0.00     0.125 C 
BRANCH  25  26
HETATM   26  C18 UNL     1      19.211   0.071  51.902  1.00  0.00     0.050 C 
BRANCH  26  27
HETATM   27  C19 UNL     1      19.653  -0.407  53.236  1.00  0.00     0.274 C 
BRANCH  27  28
HETATM   28  N5  UNL     1      20.977   0.085  53.602  1.00  0.00     0.088 N 
HETATM   29  C20 UNL     1      21.411  -0.428  54.861  1.00  0.00     0.272 C 
HETATM   30  C21 UNL     1      22.794  -1.011  54.690  1.00  0.00     0.032 C 
HETATM   31  C22 UNL     1      23.231  -0.381  53.350  1.00  0.00     0.032 C 
HETATM   32  C23 UNL     1      21.892  -0.444  52.640  1.00  0.00     0.272 C 
ENDBRANCH  27  28
ENDBRANCH  26  27
ENDBRANCH  25  26
ENDBRANCH  16  25
TORSDOF 8
ENDMDL
MODEL 2
REMARK VINA RESULT:      -7.2      3.232      4.870
REMARK  8 active torsions:
REMARK  status: ('A' for Active; 'I' for Inactive)
REMARK    1  A    between atoms: C2_2  and  C3_4 
REMARK    2  A    between atoms: C4_5  and  C5_6 
REMARK    3  A    between atoms: C5_6  and  C6_7 
REMARK    4  A    between atoms: C6_7  and  N1_8 
REMARK    5  A    between atoms: N4_23  and  C17_24 
REMARK    6  A    between atoms: C17_24  and  C18_25 
REMARK    7  A    between atoms: C18_25  and  C19_26 
REMARK    8  A    between atoms: C19_26  and  N5_27 
ROOT
HETATM    1  N1  UNL     1      24.921   5.522  49.744  1.00  0.00    -0.351 N 
HETATM    2  C7  UNL     1      24.445   4.928  50.862  1.00  0.00     0.128 C 
HETATM    3  C8  UNL     1      23.909   4.122  51.657  1.00  0.00     0.052 C 
HETATM    4  C9  UNL     1      23.340   3.297  52.644  1.00  0.00     0.034 C 
HETATM    5  C10 UNL     1      22.797   2.330  51.925  1.00  0.00     0.063 C 
HETATM    6  C11 UNL     1      22.962   2.508  50.440  1.00  0.00     0.317 C 
HETATM    7  O1  UNL     1      22.068   3.574  50.139  1.00  0.00    -0.308 OA
HETATM    8  C12 UNL     1      22.303   4.753  49.571  1.00  0.00     0.427 C 
HETATM    9  N2  UNL     1      22.649   5.973  49.542  1.00  0.00    -0.362 NA
HETATM   10  C13 UNL     1      23.077   6.816  50.687  1.00  0.00     0.200 C 
HETATM   11  N3  UNL     1      24.074   6.266  51.435  1.00  0.00    -0.227 NA
HETATM   12  O2  UNL     1      22.515   1.346  49.784  1.00  0.00    -0.353 OA
HETATM   13  C14 UNL     1      21.200   1.066  50.167  1.00  0.00     0.196 C 
HETATM   14  C15 UNL     1      21.059   0.601  51.583  1.00  0.00     0.104 C 
HETATM   15  C16 UNL     1      19.711   0.993  52.134  1.00  0.00     0.034 C 
HETATM   16  N4  UNL     1      22.149   1.148  52.354  1.00  0.00    -0.374 N 
HETATM   17  H7  UNL     1      24.700   6.217  49.029  1.00  0.00     0.166 HD
ENDROOT
BRANCH   1  18
HETATM   18  C6  UNL     1      26.064   5.406  48.975  1.00  0.00     0.090 C 
BRANCH  18  19
HETATM   19  C5  UNL     1      27.185   6.039  48.601  1.00  0.00     0.017 C 
BRANCH  19  20
HETATM   20  C4  UNL     1      28.153   6.878  47.872  1.00  0.00     0.004 C 
HETATM   21  C3  UNL     1      29.484   6.751  47.648  1.00  0.00     0.037 C 
BRANCH  21  22
HETATM   22  C2  UNL     1      30.403   5.751  48.051  1.00  0.00     0.094 C 
HETATM   23  C1  UNL     1      31.120   6.557  48.853  1.00  0.00     0.077 C 
HETATM   24  F1  UNL     1      30.190   4.496  47.551  1.00  0.00    -0.211 F 
ENDBRANCH  21  22
ENDBRANCH  19  20
ENDBRANCH  18  19
ENDBRANCH   1  18
BRANCH  16  25
HETATM   25  C17 UNL     1      22.722   0.580  53.569  1.00  0.00     0.125 C 
BRANCH  25  26
HETATM   26  C18 UNL     1      23.861  -0.286  53.072  1.00  0.00     0.050 C 
BRANCH  26  27
HETATM   27  C19 UNL     1      24.998  -0.461  54.010  1.00  0.00     0.274 C 
BRANCH  27  28
HETATM   28  N5  UNL     1      26.243   0.105  53.500  1.00  0.00     0.088 N 
HETATM   29  C20 UNL     1      26.237   0.219  52.077  1.00  0.00     0.272 C 
HETATM   30  C21 UNL     1      26.635   1.628  51.707  1.00  0.00     0.032 C 
HETATM   31  C22 UNL     1      27.268   2.126  53.024  1.00  0.00     0.032 C 
HETATM   32  C23 UNL     1      26.314   1.447  53.988  1.00  0.00     0.272 C 
ENDBRANCH  27  28
ENDBRANCH  26  27
ENDBRANCH  25  26
ENDBRANCH  16  25
TORSDOF 8
ENDMDL
MODEL 3
REMARK VINA RESULT:      -6.9      3.646      4.633
REMARK  8 active torsions:
REMARK  status: ('A' for Active; 'I' for Inactive)
REMARK    1  A    between atoms: C2_2  and  C3_4 
REMARK    2  A    between atoms: C4_5  and  C5_6 
REMARK    3  A    between atoms: C5_6  and  C6_7 
REMARK    4  A    between atoms: C6_7  and  N1_8 
REMARK    5  A    between atoms: N4_23  and  C17_24 
REMARK    6  A    between atoms: C17_24  and  C18_25 
REMARK    7  A    between atoms: C18_25  and  C19_26 
REMARK    8  A    between atoms: C19_26  and  N5_27 
ROOT
HETATM    1  N1  UNL     1      26.270   5.632  49.076  1.00  0.00    -0.351 N 
HETATM    2  C7  UNL     1      25.361   5.307  50.023  1.00  0.00     0.128 C 
HETATM    3  C8  UNL     1      24.416   4.768  50.644  1.00  0.00     0.052 C 
HETATM    4  C9  UNL     1      23.386   4.237  51.442  1.00  0.00     0.034 C 
HETATM    5  C10 UNL     1      22.780   3.412  50.607  1.00  0.00     0.063 C 
HETATM    6  C11 UNL     1      23.372   3.400  49.223  1.00  0.00     0.317 C 
HETATM    7  O1  UNL     1      22.958   4.650  48.682  1.00  0.00    -0.308 OA
HETATM    8  C12 UNL     1      23.683   5.652  48.194  1.00  0.00     0.427 C 
HETATM    9  N2  UNL     1      24.380   6.709  48.254  1.00  0.00    -0.362 NA
HETATM   10  C13 UNL     1      24.732   7.489  49.467  1.00  0.00     0.200 C 
HETATM   11  N3  UNL     1      25.282   6.740  50.464  1.00  0.00    -0.227 NA
HETATM   12  O2  UNL     1      22.778   2.366  48.477  1.00  0.00    -0.353 OA
HETATM   13  C14 UNL     1      21.388   2.518  48.484  1.00  0.00     0.196 C 
HETATM   14  C15 UNL     1      20.747   2.244  49.810  1.00  0.00     0.104 C 
HETATM   15  C16 UNL     1      19.490   3.062  49.966  1.00  0.00     0.034 C 
HETATM   16  N4  UNL     1      21.712   2.515  50.848  1.00  0.00    -0.374 N 
HETATM   17  H7  UNL     1      26.467   6.295  48.324  1.00  0.00     0.166 HD
ENDROOT
BRANCH   1  18
HETATM   18  C6  UNL     1      27.481   5.118  48.652  1.00  0.00     0.090 C 
BRANCH  18  19
HETATM   19  C5  UNL     1      28.736   5.446  48.315  1.00  0.00     0.017 C 
BRANCH  19  20
HETATM   20  C4  UNL     1      29.916   6.171  47.809  1.00  0.00     0.004 C 
HETATM   21  C3  UNL     1      31.157   5.759  47.452  1.00  0.00     0.037 C 
BRANCH  21  22
HETATM   22  C2  UNL     1      31.743   4.469  47.448  1.00  0.00     0.094 C 
HETATM   23  C1  UNL     1      32.804   4.811  48.199  1.00  0.00     0.077 C 
HETATM   24  F1  UNL     1      31.048   3.490  46.791  1.00  0.00    -0.211 F 
ENDBRANCH  21  22
ENDBRANCH  19  20
ENDBRANCH  18  19
ENDBRANCH   1  18
BRANCH  16  25
HETATM   25  C17 UNL     1      21.747   1.915  52.176  1.00  0.00     0.125 C 
BRANCH  25  26
HETATM   26  C18 UNL     1      22.811   0.844  52.073  1.00  0.00     0.050 C 
BRANCH  26  27
HETATM   27  C19 UNL     1      23.429   0.418  53.354  1.00  0.00     0.274 C 
BRANCH  27  28
HETATM   28  N5  UNL     1      24.881   0.567  53.358  1.00  0.00     0.088 N 
HETATM   29  C20 UNL     1      25.548  -0.684  53.521  1.00  0.00     0.272 C 
HETATM   30  C21 UNL     1      26.586  -0.819  52.432  1.00  0.00     0.032 C 
HETATM   31  C22 UNL     1      26.711   0.640  51.942  1.00  0.00     0.032 C 
HETATM   32  C23 UNL     1      25.249   1.027  52.055  1.00  0.00     0.272 C 
ENDBRANCH  27  28
ENDBRANCH  26  27
ENDBRANCH  25  26
ENDBRANCH  16  25
TORSDOF 8
ENDMDL
MODEL 4
REMARK VINA RESULT:      -6.8      3.314      4.687
REMARK  8 active torsions:
REMARK  status: ('A' for Active; 'I' for Inactive)
REMARK    1  A    between atoms: C2_2  and  C3_4 
REMARK    2  A    between atoms: C4_5  and  C5_6 
REMARK    3  A    between atoms: C5_6  and  C6_7 
REMARK    4  A    between atoms: C6_7  and  N1_8 
REMARK    5  A    between atoms: N4_23  and  C17_24 
REMARK    6  A    between atoms: C17_24  and  C18_25 
REMARK    7  A    between atoms: C18_25  and  C19_26 
REMARK    8  A    between atoms: C19_26  and  N5_27 
ROOT
HETATM    1  N1  UNL     1      25.142   5.049  49.707  1.00  0.00    -0.351 N 
HETATM    2  C7  UNL     1      24.397   4.572  50.730  1.00  0.00     0.128 C 
HETATM    3  C8  UNL     1      23.614   3.883  51.424  1.00  0.00     0.052 C 
HETATM    4  C9  UNL     1      22.764   3.188  52.304  1.00  0.00     0.034 C 
HETATM    5  C10 UNL     1      22.201   2.298  51.506  1.00  0.00     0.063 C 
HETATM    6  C11 UNL     1      22.637   2.403  50.069  1.00  0.00     0.317 C 
HETATM    7  O1  UNL     1      21.988   3.588  49.619  1.00  0.00    -0.308 OA
HETATM    8  C12 UNL     1      22.501   4.697  49.096  1.00  0.00     0.427 C 
HETATM    9  N2  UNL     1      23.037   5.846  49.122  1.00  0.00    -0.362 NA
HETATM   10  C13 UNL     1      23.398   6.645  50.321  1.00  0.00     0.200 C 
HETATM   11  N3  UNL     1      24.156   5.967  51.228  1.00  0.00    -0.227 NA
HETATM   12  O2  UNL     1      22.125   1.307  49.350  1.00  0.00    -0.353 OA
HETATM   13  C14 UNL     1      20.737   1.249  49.506  1.00  0.00     0.196 C 
HETATM   14  C15 UNL     1      20.289   0.855  50.879  1.00  0.00     0.104 C 
HETATM   15  C16 UNL     1      18.949   1.471  51.193  1.00  0.00     0.034 C 
HETATM   16  N4  UNL     1      21.309   1.246  51.822  1.00  0.00    -0.374 N 
HETATM   17  H7  UNL     1      25.158   5.749  48.963  1.00  0.00     0.166 HD
ENDROOT
BRANCH   1  18
HETATM   18  C6  UNL     1      26.364   4.732  49.143  1.00  0.00     0.090 C 
BRANCH  18  19
HETATM   19  C5  UNL     1      27.493   5.254  48.646  1.00  0.00     0.017 C 
BRANCH  19  20
HETATM   20  C4  UNL     1      28.892   5.437  48.216  1.00  0.00     0.004 C 
HETATM   21  C3  UNL     1      29.607   6.539  47.884  1.00  0.00     0.037 C 
BRANCH  21  22
HETATM   22  C2  UNL     1      29.240   7.907  47.835  1.00  0.00     0.094 C 
HETATM   23  C1  UNL     1      29.007   7.927  46.512  1.00  0.00     0.077 C 
HETATM   24  F1  UNL     1      29.230   8.574  49.031  1.00  0.00    -0.211 F 
ENDBRANCH  21  22
ENDBRANCH  19  20
ENDBRANCH  18  19
ENDBRANCH   1  18
BRANCH  16  25
HETATM   25  C17 UNL     1      21.573   0.631  53.117  1.00  0.00     0.125 C 
BRANCH  25  26
HETATM   26  C18 UNL     1      22.758  -0.277  52.863  1.00  0.00     0.050 C 
BRANCH  26  27
HETATM   27  C19 UNL     1      23.715  -0.424  53.988  1.00  0.00     0.274 C 
BRANCH  27  28
HETATM   28  N5  UNL     1      25.014   0.178  53.706  1.00  0.00     0.088 N 
HETATM   29  C20 UNL     1      26.092  -0.706  54.010  1.00  0.00     0.272 C 
HETATM   30  C21 UNL     1      27.005  -0.778  52.809  1.00  0.00     0.032 C 
HETATM   31  C22 UNL     1      26.562   0.465  52.009  1.00  0.00     0.032 C 
HETATM   32  C23 UNL     1      25.074   0.380  52.293  1.00  0.00     0.272 C 
ENDBRANCH  27  28
ENDBRANCH  26  27
ENDBRANCH  25  26
ENDBRANCH  16  25
TORSDOF 8
ENDMDL
MODEL 5
REMARK VINA RESULT:      -6.8      3.336      6.914
REMARK  8 active torsions:
REMARK  status: ('A' for Active; 'I' for Inactive)
REMARK    1  A    between atoms: C2_2  and  C3_4 
REMARK    2  A    between atoms: C4_5  and  C5_6 
REMARK    3  A    between atoms: C5_6  and  C6_7 
REMARK    4  A    between atoms: C6_7  and  N1_8 
REMARK    5  A    between atoms: N4_23  and  C17_24 
REMARK    6  A    between atoms: C17_24  and  C18_25 
REMARK    7  A    between atoms: C18_25  and  C19_26 
REMARK    8  A    between atoms: C19_26  and  N5_27 
ROOT
HETATM    1  N1  UNL     1      23.766   1.891  51.928  1.00  0.00    -0.351 N 
HETATM    2  C7  UNL     1      23.753   2.578  50.764  1.00  0.00     0.128 C 
HETATM    3  C8  UNL     1      23.822   3.491  49.909  1.00  0.00     0.052 C 
HETATM    4  C9  UNL     1      23.878   4.426  48.859  1.00  0.00     0.034 C 
HETATM    5  C10 UNL     1      24.036   5.567  49.506  1.00  0.00     0.063 C 
HETATM    6  C11 UNL     1      24.055   5.422  51.004  1.00  0.00     0.317 C 
HETATM    7  O1  UNL     1      22.695   5.142  51.320  1.00  0.00    -0.308 OA
HETATM    8  C12 UNL     1      22.161   4.103  51.955  1.00  0.00     0.427 C 
HETATM    9  N2  UNL     1      21.690   2.930  52.059  1.00  0.00    -0.362 NA
HETATM   10  C13 UNL     1      21.517   1.930  50.976  1.00  0.00     0.200 C 
HETATM   11  N3  UNL     1      22.645   1.709  50.244  1.00  0.00    -0.227 NA
HETATM   12  O2  UNL     1      24.409   6.654  51.582  1.00  0.00    -0.353 OA
HETATM   13  C14 UNL     1      23.539   7.652  51.133  1.00  0.00     0.196 C 
HETATM   14  C15 UNL     1      23.714   8.015  49.690  1.00  0.00     0.104 C 
HETATM   15  C16 UNL     1      22.407   8.490  49.105  1.00  0.00     0.034 C 
HETATM   16  N4  UNL     1      24.245   6.869  48.993  1.00  0.00    -0.374 N 
HETATM   17  H7  UNL     1      23.166   1.521  52.667  1.00  0.00     0.166 HD
ENDROOT
BRANCH   1  18
HETATM   18  C6  UNL     1      24.741   1.336  52.736  1.00  0.00     0.090 C 
BRANCH  18  19
HETATM   19  C5  UNL     1      25.667   0.369  52.805  1.00  0.00     0.017 C 
BRANCH  19  20
HETATM   20  C4  UNL     1      26.716  -0.605  52.454  1.00  0.00     0.004 C 
HETATM   21  C3  UNL     1      27.926  -0.879  52.999  1.00  0.00     0.037 C 
BRANCH  21  22
HETATM   22  C2  UNL     1      28.598  -0.308  54.108  1.00  0.00     0.094 C 
HETATM   23  C1  UNL     1      29.834  -0.597  53.669  1.00  0.00     0.077 C 
HETATM   24  F1  UNL     1      27.807   0.284  55.056  1.00  0.00    -0.211 F 
ENDBRANCH  21  22
ENDBRANCH  19  20
ENDBRANCH  18  19
ENDBRANCH   1  18
BRANCH  16  25
HETATM   25  C17 UNL     1      25.048   6.891  47.776  1.00  0.00     0.125 C 
BRANCH  25  26
HETATM   26  C18 UNL     1      26.477   6.862  48.274  1.00  0.00     0.050 C 
BRANCH  26  27
HETATM   27  C19 UNL     1      27.425   7.766  47.575  1.00  0.00     0.274 C 
BRANCH  27  28
HETATM   28  N5  UNL     1      28.692   7.117  47.254  1.00  0.00     0.088 N 
HETATM   29  C20 UNL     1      29.814   7.930  47.598  1.00  0.00     0.272 C 
HETATM   30  C21 UNL     1      30.769   7.103  48.425  1.00  0.00     0.032 C 
HETATM   31  C22 UNL     1      30.274   5.671  48.130  1.00  0.00     0.032 C 
HETATM   32  C23 UNL     1      28.787   5.964  48.094  1.00  0.00     0.272 C 
ENDBRANCH  27  28
ENDBRANCH  26  27
ENDBRANCH  25  26
ENDBRANCH  16  25
TORSDOF 8
ENDMDL
MODEL 6
REMARK VINA RESULT:      -6.5      4.974      8.716
REMARK  8 active torsions:
REMARK  status: ('A' for Active; 'I' for Inactive)
REMARK    1  A    between atoms: C2_2  and  C3_4 
REMARK    2  A    between atoms: C4_5  and  C5_6 
REMARK    3  A    between atoms: C5_6  and  C6_7 
REMARK    4  A    between atoms: C6_7  and  N1_8 
REMARK    5  A    between atoms: N4_23  and  C17_24 
REMARK    6  A    between atoms: C17_24  and  C18_25 
REMARK    7  A    between atoms: C18_25  and  C19_26 
REMARK    8  A    between atoms: C19_26  and  N5_27 
ROOT
HETATM    1  N1  UNL     1      24.075   3.885  51.199  1.00  0.00    -0.351 N 
HETATM    2  C7  UNL     1      24.944   4.193  50.210  1.00  0.00     0.128 C 
HETATM    3  C8  UNL     1      25.750   4.800  49.467  1.00  0.00     0.052 C 
HETATM    4  C9  UNL     1      26.668   5.371  48.567  1.00  0.00     0.034 C 
HETATM    5  C10 UNL     1      26.702   6.631  48.961  1.00  0.00     0.063 C 
HETATM    6  C11 UNL     1      25.781   6.937  50.111  1.00  0.00     0.317 C 
HETATM    7  O1  UNL     1      24.490   6.897  49.512  1.00  0.00    -0.308 OA
HETATM    8  C12 UNL     1      23.431   6.151  49.812  1.00  0.00     0.427 C 
HETATM    9  N2  UNL     1      22.703   5.113  49.779  1.00  0.00    -0.362 NA
HETATM   10  C13 UNL     1      22.956   3.858  49.028  1.00  0.00     0.200 C 
HETATM   11  N3  UNL     1      24.188   3.321  49.250  1.00  0.00    -0.227 NA
HETATM   12  O2  UNL     1      26.028   8.245  50.566  1.00  0.00    -0.353 OA
HETATM   13  C14 UNL     1      25.904   9.144  49.502  1.00  0.00     0.196 C 
HETATM   14  C15 UNL     1      26.996   9.043  48.482  1.00  0.00     0.104 C 
HETATM   15  C16 UNL     1      26.485   9.447  47.122  1.00  0.00     0.034 C 
HETATM   16  N4  UNL     1      27.512   7.695  48.498  1.00  0.00    -0.374 N 
HETATM   17  H7  UNL     1      23.081   3.812  51.421  1.00  0.00     0.166 HD
ENDROOT
BRANCH   1  18
HETATM   18  C6  UNL     1      24.181   3.503  52.523  1.00  0.00     0.090 C 
BRANCH  18  19
HETATM   19  C5  UNL     1      24.878   2.740  53.376  1.00  0.00     0.017 C 
BRANCH  19  20
HETATM   20  C4  UNL     1      25.882   1.827  53.954  1.00  0.00     0.004 C 
HETATM   21  C3  UNL     1      26.650   0.853  53.409  1.00  0.00     0.037 C 
BRANCH  21  22
HETATM   22  C2  UNL     1      26.742   0.377  52.077  1.00  0.00     0.094 C 
HETATM   23  C1  UNL     1      26.731  -0.925  52.408  1.00  0.00     0.077 C 
HETATM   24  F1  UNL     1      26.760   1.329  51.094  1.00  0.00    -0.211 F 
ENDBRANCH  21  22
ENDBRANCH  19  20
ENDBRANCH  18  19
ENDBRANCH   1  18
BRANCH  16  25
HETATM   25  C17 UNL     1      28.853   7.277  48.109  1.00  0.00     0.125 C 
BRANCH  25  26
HETATM   26  C18 UNL     1      29.769   8.216  48.866  1.00  0.00     0.050 C 
BRANCH  26  27
HETATM   27  C19 UNL     1      31.013   8.616  48.161  1.00  0.00     0.274 C 
BRANCH  27  28
HETATM   28  N5  UNL     1      32.220   8.198  48.866  1.00  0.00     0.088 N 
HETATM   29  C20 UNL     1      32.185   6.815  49.217  1.00  0.00     0.272 C 
HETATM   30  C21 UNL     1      33.465   6.168  48.743  1.00  0.00     0.032 C 
HETATM   31  C22 UNL     1      34.363   7.401  48.499  1.00  0.00     0.032 C 
HETATM   32  C23 UNL     1      33.301   8.328  47.940  1.00  0.00     0.272 C 
ENDBRANCH  27  28
ENDBRANCH  26  27
ENDBRANCH  25  26
ENDBRANCH  16  25
TORSDOF 8
ENDMDL
MODEL 7
REMARK VINA RESULT:      -6.4      6.949     10.686
REMARK  8 active torsions:
REMARK  status: ('A' for Active; 'I' for Inactive)
REMARK    1  A    between atoms: C2_2  and  C3_4 
REMARK    2  A    between atoms: C4_5  and  C5_6 
REMARK    3  A    between atoms: C5_6  and  C6_7 
REMARK    4  A    between atoms: C6_7  and  N1_8 
REMARK    5  A    between atoms: N4_23  and  C17_24 
REMARK    6  A    between atoms: C17_24  and  C18_25 
REMARK    7  A    between atoms: C18_25  and  C19_26 
REMARK    8  A    between atoms: C19_26  and  N5_27 
ROOT
HETATM    1  N1  UNL     1      26.137   6.783  48.988  1.00  0.00    -0.351 N 
HETATM    2  C7  UNL     1      26.895   7.213  47.954  1.00  0.00     0.128 C 
HETATM    3  C8  UNL     1      27.864   7.570  47.244  1.00  0.00     0.052 C 
HETATM    4  C9  UNL     1      28.867   7.983  46.349  1.00  0.00     0.034 C 
HETATM    5  C10 UNL     1      29.936   8.027  47.124  1.00  0.00     0.063 C 
HETATM    6  C11 UNL     1      29.662   7.677  48.562  1.00  0.00     0.317 C 
HETATM    7  O1  UNL     1      28.956   8.816  49.044  1.00  0.00    -0.308 OA
HETATM    8  C12 UNL     1      27.749   8.904  49.595  1.00  0.00     0.427 C 
HETATM    9  N2  UNL     1      26.485   8.999  49.597  1.00  0.00    -0.362 NA
HETATM   10  C13 UNL     1      25.586   9.093  48.419  1.00  0.00     0.200 C 
HETATM   11  N3  UNL     1      25.786   8.114  47.493  1.00  0.00    -0.227 NA
HETATM   12  O2  UNL     1      30.883   7.577  49.253  1.00  0.00    -0.353 OA
HETATM   13  C14 UNL     1      31.610   8.761  49.099  1.00  0.00     0.196 C 
HETATM   14  C15 UNL     1      32.143   8.979  47.717  1.00  0.00     0.104 C 
HETATM   15  C16 UNL     1      32.256  10.453  47.422  1.00  0.00     0.034 C 
HETATM   16  N4  UNL     1      31.282   8.295  46.783  1.00  0.00    -0.374 N 
HETATM   17  H7  UNL     1      25.535   7.100  49.749  1.00  0.00     0.166 HD
ENDROOT
BRANCH   1  18
HETATM   18  C6  UNL     1      25.828   5.554  49.540  1.00  0.00     0.090 C 
BRANCH  18  19
HETATM   19  C5  UNL     1      26.292   4.313  49.748  1.00  0.00     0.017 C 
BRANCH  19  20
HETATM   20  C4  UNL     1      26.489   2.953  50.281  1.00  0.00     0.004 C 
HETATM   21  C3  UNL     1      25.813   2.228  51.205  1.00  0.00     0.037 C 
BRANCH  21  22
HETATM   22  C2  UNL     1      24.671   2.545  51.982  1.00  0.00     0.094 C 
HETATM   23  C1  UNL     1      23.784   2.012  51.125  1.00  0.00     0.077 C 
HETATM   24  F1  UNL     1      24.907   3.160  53.182  1.00  0.00    -0.211 F 
ENDBRANCH  21  22
ENDBRANCH  19  20
ENDBRANCH  18  19
ENDBRANCH   1  18
BRANCH  16  25
HETATM   25  C17 UNL     1      31.661   7.783  45.471  1.00  0.00     0.125 C 
BRANCH  25  26
HETATM   26  C18 UNL     1      32.220   6.405  45.758  1.00  0.00     0.050 C 
BRANCH  26  27
HETATM   27  C19 UNL     1      33.693   6.324  45.922  1.00  0.00     0.274 C 
BRANCH  27  28
HETATM   28  N5  UNL     1      34.092   5.437  47.010  1.00  0.00     0.088 N 
HETATM   29  C20 UNL     1      32.968   4.926  47.726  1.00  0.00     0.272 C 
HETATM   30  C21 UNL     1      33.098   3.425  47.815  1.00  0.00     0.032 C 
HETATM   31  C22 UNL     1      34.590   3.223  47.469  1.00  0.00     0.032 C 
HETATM   32  C23 UNL     1      34.707   4.297  46.405  1.00  0.00     0.272 C 
ENDBRANCH  27  28
ENDBRANCH  26  27
ENDBRANCH  25  26
ENDBRANCH  16  25
TORSDOF 8
ENDMDL
MODEL 8
REMARK VINA RESULT:      -6.4      6.907     10.715
REMARK  8 active torsions:
REMARK  status: ('A' for Active; 'I' for Inactive)
REMARK    1  A    between atoms: C2_2  and  C3_4 
REMARK    2  A    between atoms: C4_5  and  C5_6 
REMARK    3  A    between atoms: C5_6  and  C6_7 
REMARK    4  A    between atoms: C6_7  and  N1_8 
REMARK    5  A    between atoms: N4_23  and  C17_24 
REMARK    6  A    between atoms: C17_24  and  C18_25 
REMARK    7  A    between atoms: C18_25  and  C19_26 
REMARK    8  A    between atoms: C19_26  and  N5_27 
ROOT
HETATM    1  N1  UNL     1      26.588   5.903  49.060  1.00  0.00    -0.351 N 
HETATM    2  C7  UNL     1      26.952   6.795  48.112  1.00  0.00     0.128 C 
HETATM    3  C8  UNL     1      27.570   7.669  47.462  1.00  0.00     0.052 C 
HETATM    4  C9  UNL     1      28.174   8.639  46.640  1.00  0.00     0.034 C 
HETATM    5  C10 UNL     1      29.185   9.050  47.386  1.00  0.00     0.063 C 
HETATM    6  C11 UNL     1      29.257   8.388  48.735  1.00  0.00     0.317 C 
HETATM    7  O1  UNL     1      28.170   8.975  49.443  1.00  0.00    -0.308 OA
HETATM    8  C12 UNL     1      27.122   8.403  50.028  1.00  0.00     0.427 C 
HETATM    9  N2  UNL     1      25.959   7.897  50.076  1.00  0.00    -0.362 NA
HETATM   10  C13 UNL     1      24.993   7.750  48.959  1.00  0.00     0.200 C 
HETATM   11  N3  UNL     1      25.513   7.138  47.858  1.00  0.00    -0.227 NA
HETATM   12  O2  UNL     1      30.459   8.757  49.367  1.00  0.00    -0.353 OA
HETATM   13  C14 UNL     1      30.550  10.151  49.427  1.00  0.00     0.196 C 
HETATM   14  C15 UNL     1      30.773  10.809  48.101  1.00  0.00     0.104 C 
HETATM   15  C16 UNL     1      30.173  12.193  48.092  1.00  0.00     0.034 C 
HETATM   16  N4  UNL     1      30.219   9.963  47.072  1.00  0.00    -0.374 N 
HETATM   17  H7  UNL     1      25.994   5.778  49.882  1.00  0.00     0.166 HD
ENDROOT
BRANCH   1  18
HETATM   18  C6  UNL     1      26.930   4.600  49.373  1.00  0.00     0.090 C 
BRANCH  18  19
HETATM   19  C5  UNL     1      26.620   3.560  50.160  1.00  0.00     0.017 C 
BRANCH  19  20
HETATM   20  C4  UNL     1      26.465   2.196  50.697  1.00  0.00     0.004 C 
HETATM   21  C3  UNL     1      26.719   1.660  51.915  1.00  0.00     0.037 C 
BRANCH  21  22
HETATM   22  C2  UNL     1      27.231   2.245  53.100  1.00  0.00     0.094 C 
HETATM   23  C1  UNL     1      26.120   2.041  53.830  1.00  0.00     0.077 C 
HETATM   24  F1  UNL     1      28.522   2.694  53.045  1.00  0.00    -0.211 F 
ENDBRANCH  21  22
ENDBRANCH  19  20
ENDBRANCH  18  19
ENDBRANCH   1  18
BRANCH  16  25
HETATM   25  C17 UNL     1      30.643   9.903  45.678  1.00  0.00     0.125 C 
BRANCH  25  26
HETATM   26  C18 UNL     1      32.048   9.342  45.741  1.00  0.00     0.050 C 
BRANCH  26  27
HETATM   27  C19 UNL     1      32.151   7.870  45.900  1.00  0.00     0.274 C 
BRANCH  27  28
HETATM   28  N5  UNL     1      32.679   7.478  47.203  1.00  0.00     0.088 N 
HETATM   29  C20 UNL     1      33.304   6.196  47.166  1.00  0.00     0.272 C 
HETATM   30  C21 UNL     1      34.677   6.314  47.783  1.00  0.00     0.032 C 
HETATM   31  C22 UNL     1      34.562   7.656  48.538  1.00  0.00     0.032 C 
HETATM   32  C23 UNL     1      33.723   8.402  47.517  1.00  0.00     0.272 C 
ENDBRANCH  27  28
ENDBRANCH  26  27
ENDBRANCH  25  26
ENDBRANCH  16  25
TORSDOF 8
ENDMDL
MODEL 9
REMARK VINA RESULT:      -6.3      6.426      8.382
REMARK  8 active torsions:
REMARK  status: ('A' for Active; 'I' for Inactive)
REMARK    1  A    between atoms: C2_2  and  C3_4 
REMARK    2  A    between atoms: C4_5  and  C5_6 
REMARK    3  A    between atoms: C5_6  and  C6_7 
REMARK    4  A    between atoms: C6_7  and  N1_8 
REMARK    5  A    between atoms: N4_23  and  C17_24 
REMARK    6  A    between atoms: C17_24  and  C18_25 
REMARK    7  A    between atoms: C18_25  and  C19_26 
REMARK    8  A    between atoms: C19_26  and  N5_27 
ROOT
HETATM    1  N1  UNL     1      31.446   6.376  47.347  1.00  0.00    -0.351 N 
HETATM    2  C7  UNL     1      30.305   5.916  47.909  1.00  0.00     0.128 C 
HETATM    3  C8  UNL     1      29.112   5.788  48.270  1.00  0.00     0.052 C 
HETATM    4  C9  UNL     1      27.808   5.533  48.731  1.00  0.00     0.034 C 
HETATM    5  C10 UNL     1      27.158   6.619  48.352  1.00  0.00     0.063 C 
HETATM    6  C11 UNL     1      28.023   7.638  47.660  1.00  0.00     0.317 C 
HETATM    7  O1  UNL     1      28.806   8.173  48.721  1.00  0.00    -0.308 OA
HETATM    8  C12 UNL     1      30.126   8.225  48.868  1.00  0.00     0.427 C 
HETATM    9  N2  UNL     1      31.270   7.783  49.190  1.00  0.00    -0.362 NA
HETATM   10  C13 UNL     1      31.592   6.460  49.783  1.00  0.00     0.200 C 
HETATM   11  N3  UNL     1      31.075   5.406  49.093  1.00  0.00    -0.227 NA
HETATM   12  O2  UNL     1      27.206   8.659  47.141  1.00  0.00    -0.353 OA
HETATM   13  C14 UNL     1      26.422   9.200  48.164  1.00  0.00     0.196 C 
HETATM   14  C15 UNL     1      25.352   8.282  48.668  1.00  0.00     0.104 C 
HETATM   15  C16 UNL     1      25.052   8.569  50.118  1.00  0.00     0.034 C 
HETATM   16  N4  UNL     1      25.779   6.921  48.453  1.00  0.00    -0.374 N 
HETATM   17  H7  UNL     1      32.293   6.914  47.537  1.00  0.00     0.166 HD
ENDROOT
BRANCH   1  18
HETATM   18  C6  UNL     1      32.019   6.321  46.090  1.00  0.00     0.090 C 
BRANCH  18  19
HETATM   19  C5  UNL     1      33.002   5.758  45.374  1.00  0.00     0.017 C 
BRANCH  19  20
HETATM   20  C4  UNL     1      34.116   4.893  44.946  1.00  0.00     0.004 C 
HETATM   21  C3  UNL     1      34.643   3.758  45.467  1.00  0.00     0.037 C 
BRANCH  21  22
HETATM   22  C2  UNL     1      34.291   3.014  46.621  1.00  0.00     0.094 C 
HETATM   23  C1  UNL     1      35.072   3.712  47.463  1.00  0.00     0.077 C 
HETATM   24  F1  UNL     1      33.366   2.021  46.443  1.00  0.00    -0.211 F 
ENDBRANCH  21  22
ENDBRANCH  19  20
ENDBRANCH  18  19
ENDBRANCH   1  18
BRANCH  16  25
HETATM   25  C17 UNL     1      24.916   5.759  48.279  1.00  0.00     0.125 C 
BRANCH  25  26
HETATM   26  C18 UNL     1      24.657   5.274  49.691  1.00  0.00     0.050 C 
BRANCH  26  27
HETATM   27  C19 UNL     1      24.565   3.803  49.864  1.00  0.00     0.274 C 
BRANCH  27  28
HETATM   28  N5  UNL     1      25.191   3.339  51.098  1.00  0.00     0.088 N 
HETATM   29  C20 UNL     1      24.515   2.210  51.651  1.00  0.00     0.272 C 
HETATM   30  C21 UNL     1      25.534   1.132  51.930  1.00  0.00     0.032 C 
HETATM   31  C22 UNL     1      26.853   1.933  51.885  1.00  0.00     0.032 C 
HETATM   32  C23 UNL     1      26.493   2.868  50.746  1.00  0.00     0.272 C 
ENDBRANCH  27  28
ENDBRANCH  26  27
ENDBRANCH  25  26
ENDBRANCH  16  25
TORSDOF 8
ENDMDL
