MODEL 1
REMARK VINA RESULT:      -8.1      0.000      0.000
REMARK  4 active torsions:
REMARK  status: ('A' for Active; 'I' for Inactive)
REMARK    1  A    between atoms: C2_2  and  C3_3 
REMARK       I    between atoms: C3_3  and  N1_5 
REMARK    2  A    between atoms: N1_5  and  C4_6 
REMARK    3  A    between atoms: C9_13  and  N4_14 
REMARK    4  A    between atoms: N4_14  and  C10_15 
ROOT
HETATM    1  C4  UNL     1      25.859   0.568  52.708  1.00  0.00     0.036 A 
HETATM    2  C5  UNL     1      24.783  -0.199  53.154  1.00  0.00     0.032 A 
HETATM    3  C6  UNL     1      23.516   0.321  53.073  1.00  0.00     0.035 A 
HETATM    4  C7  UNL     1      23.286   1.566  52.567  1.00  0.00     0.072 A 
HETATM    5  N2  UNL     1      22.031   2.082  52.486  1.00  0.00    -0.241 NA
HETATM    6  C8  UNL     1      21.875   3.312  51.978  1.00  0.00     0.235 A 
HETATM    7  N3  UNL     1      22.924   4.054  51.545  1.00  0.00    -0.224 NA
HETATM    8  C9  UNL     1      24.187   3.595  51.602  1.00  0.00     0.138 A 
HETATM    9  C15 UNL     1      24.345   2.341  52.119  1.00  0.00     0.041 A 
HETATM   10  C16 UNL     1      25.623   1.828  52.197  1.00  0.00     0.047 A 
ENDROOT
BRANCH   8  11
HETATM   11  N4  UNL     1      25.230   4.428  51.130  1.00  0.00    -0.363 N 
HETATM   12  H8  UNL     1      25.846   5.047  51.672  1.00  0.00     0.162 HD
BRANCH  11  13
HETATM   13  C10 UNL     1      25.480   4.424  49.693  1.00  0.00     0.129 A 
HETATM   14  C11 UNL     1      26.770   3.829  49.330  1.00  0.00     0.002 A 
HETATM   15  C12 UNL     1      27.508   4.746  48.720  1.00  0.00    -0.002 A 
HETATM   16  C13 UNL     1      26.819   6.018  48.608  1.00  0.00    -0.002 A 
HETATM   17  C14 UNL     1      25.626   5.824  49.181  1.00  0.00     0.002 A 
ENDBRANCH  11  13
ENDBRANCH   8  11
BRANCH   1  18
HETATM   18  N1  UNL     1      27.125  -0.067  52.842  1.00  0.00    -0.324 N 
HETATM   19  C3  UNL     1      27.768   0.271  54.077  1.00  0.00     0.244 C 
HETATM   20  O1  UNL     1      27.143   1.053  54.838  1.00  0.00    -0.268 OA
HETATM   21  H4  UNL     1      27.713  -0.730  52.256  1.00  0.00     0.169 HD
BRANCH  19  22
HETATM   22  C2  UNL     1      29.077  -0.264  54.431  1.00  0.00     0.064 C 
HETATM   23  C1  UNL     1      29.469  -1.030  53.430  1.00  0.00     0.017 C 
ENDBRANCH  19  22
ENDBRANCH   1  18
TORSDOF 4
ENDMDL
MODEL 2
REMARK VINA RESULT:      -7.8      2.749      3.469
REMARK  4 active torsions:
REMARK  status: ('A' for Active; 'I' for Inactive)
REMARK    1  A    between atoms: C2_2  and  C3_3 
REMARK       I    between atoms: C3_3  and  N1_5 
REMARK    2  A    between atoms: N1_5  and  C4_6 
REMARK    3  A    between atoms: C9_13  and  N4_14 
REMARK    4  A    between atoms: N4_14  and  C10_15 
ROOT
HETATM    1  C4  UNL     1      25.173  -0.747  54.174  1.00  0.00     0.036 A 
HETATM    2  C5  UNL     1      24.554  -1.276  55.306  1.00  0.00     0.032 A 
HETATM    3  C6  UNL     1      23.193  -1.162  55.436  1.00  0.00     0.035 A 
HETATM    4  C7  UNL     1      22.434  -0.546  54.484  1.00  0.00     0.072 A 
HETATM    5  N2  UNL     1      21.086  -0.432  54.611  1.00  0.00    -0.241 NA
HETATM    6  C8  UNL     1      20.400   0.185  53.640  1.00  0.00     0.235 A 
HETATM    7  N3  UNL     1      21.006   0.697  52.540  1.00  0.00    -0.224 NA
HETATM    8  C9  UNL     1      22.336   0.615  52.363  1.00  0.00     0.138 A 
HETATM    9  C15 UNL     1      23.034  -0.015  53.353  1.00  0.00     0.041 A 
HETATM   10  C16 UNL     1      24.402  -0.124  53.213  1.00  0.00     0.047 A 
ENDROOT
BRANCH   8  11
HETATM   11  N4  UNL     1      22.897   1.173  51.188  1.00  0.00    -0.363 N 
HETATM   12  H8  UNL     1      23.876   1.157  50.879  1.00  0.00     0.162 HD
BRANCH  11  13
HETATM   13  C10 UNL     1      21.983   1.867  50.286  1.00  0.00     0.129 A 
HETATM   14  C11 UNL     1      21.651   1.092  49.087  1.00  0.00     0.002 A 
HETATM   15  C12 UNL     1      22.058   1.761  48.018  1.00  0.00    -0.002 A 
HETATM   16  C13 UNL     1      22.689   3.020  48.367  1.00  0.00    -0.002 A 
HETATM   17  C14 UNL     1      22.642   3.079  49.703  1.00  0.00     0.002 A 
ENDBRANCH  11  13
ENDBRANCH   8  11
BRANCH   1  18
HETATM   18  N1  UNL     1      26.584  -0.920  54.145  1.00  0.00    -0.324 N 
HETATM   19  C3  UNL     1      27.276   0.231  54.647  1.00  0.00     0.244 C 
HETATM   20  O1  UNL     1      26.562   1.193  55.028  1.00  0.00    -0.268 OA
HETATM   21  H4  UNL     1      27.255  -1.687  53.846  1.00  0.00     0.169 HD
BRANCH  19  22
HETATM   22  C2  UNL     1      28.732   0.281  54.714  1.00  0.00     0.064 C 
HETATM   23  C1  UNL     1      29.192  -0.600  53.845  1.00  0.00     0.017 C 
ENDBRANCH  19  22
ENDBRANCH   1  18
TORSDOF 4
ENDMDL
MODEL 3
REMARK VINA RESULT:      -7.4      1.769      4.989
REMARK  4 active torsions:
REMARK  status: ('A' for Active; 'I' for Inactive)
REMARK    1  A    between atoms: C2_2  and  C3_3 
REMARK       I    between atoms: C3_3  and  N1_5 
REMARK    2  A    between atoms: N1_5  and  C4_6 
REMARK    3  A    between atoms: C9_13  and  N4_14 
REMARK    4  A    between atoms: N4_14  and  C10_15 
ROOT
HETATM    1  C4  UNL     1      26.234   1.184  52.125  1.00  0.00     0.036 A 
HETATM    2  C5  UNL     1      26.734   2.026  51.132  1.00  0.00     0.032 A 
HETATM    3  C6  UNL     1      25.879   2.898  50.506  1.00  0.00     0.035 A 
HETATM    4  C7  UNL     1      24.557   2.961  50.834  1.00  0.00     0.072 A 
HETATM    5  N2  UNL     1      23.709   3.825  50.216  1.00  0.00    -0.241 NA
HETATM    6  C8  UNL     1      22.421   3.836  50.586  1.00  0.00     0.235 A 
HETATM    7  N3  UNL     1      21.941   3.016  51.553  1.00  0.00    -0.224 NA
HETATM    8  C9  UNL     1      22.733   2.141  52.197  1.00  0.00     0.138 A 
HETATM    9  C15 UNL     1      24.045   2.131  51.820  1.00  0.00     0.041 A 
HETATM   10  C16 UNL     1      24.896   1.250  52.454  1.00  0.00     0.047 A 
ENDROOT
BRANCH   8  11
HETATM   11  N4  UNL     1      22.158   1.318  53.197  1.00  0.00    -0.363 N 
HETATM   12  H8  UNL     1      22.058   1.509  54.201  1.00  0.00     0.162 HD
BRANCH  11  13
HETATM   13  C10 UNL     1      21.633   0.026  52.766  1.00  0.00     0.129 A 
HETATM   14  C11 UNL     1      20.184  -0.099  52.942  1.00  0.00     0.002 A 
HETATM   15  C12 UNL     1      19.938  -1.097  53.780  1.00  0.00    -0.002 A 
HETATM   16  C13 UNL     1      21.156  -1.733  54.246  1.00  0.00    -0.002 A 
HETATM   17  C14 UNL     1      22.151  -1.070  53.646  1.00  0.00     0.002 A 
ENDBRANCH  11  13
ENDBRANCH   8  11
BRANCH   1  18
HETATM   18  N1  UNL     1      27.206   0.321  52.703  1.00  0.00    -0.324 N 
HETATM   19  C3  UNL     1      27.839   0.912  53.844  1.00  0.00     0.244 C 
HETATM   20  O1  UNL     1      27.458   2.068  54.160  1.00  0.00    -0.268 OA
HETATM   21  H4  UNL     1      27.581  -0.653  52.501  1.00  0.00     0.169 HD
BRANCH  19  22
HETATM   22  C2  UNL     1      28.870   0.210  54.599  1.00  0.00     0.064 C 
HETATM   23  C1  UNL     1      29.639  -0.411  53.724  1.00  0.00     0.017 C 
ENDBRANCH  19  22
ENDBRANCH   1  18
TORSDOF 4
ENDMDL
MODEL 4
REMARK VINA RESULT:      -7.4      1.973      5.200
REMARK  4 active torsions:
REMARK  status: ('A' for Active; 'I' for Inactive)
REMARK    1  A    between atoms: C2_2  and  C3_3 
REMARK       I    between atoms: C3_3  and  N1_5 
REMARK    2  A    between atoms: N1_5  and  C4_6 
REMARK    3  A    between atoms: C9_13  and  N4_14 
REMARK    4  A    between atoms: N4_14  and  C10_15 
ROOT
HETATM    1  C4  UNL     1      22.917   1.475  52.457  1.00  0.00     0.036 A 
HETATM    2  C5  UNL     1      22.262   1.766  51.261  1.00  0.00     0.032 A 
HETATM    3  C6  UNL     1      22.966   2.361  50.244  1.00  0.00     0.035 A 
HETATM    4  C7  UNL     1      24.287   2.672  50.377  1.00  0.00     0.072 A 
HETATM    5  N2  UNL     1      24.986   3.260  49.370  1.00  0.00    -0.241 NA
HETATM    6  C8  UNL     1      26.281   3.539  49.566  1.00  0.00     0.235 A 
HETATM    7  N3  UNL     1      26.914   3.254  50.731  1.00  0.00    -0.224 NA
HETATM    8  C9  UNL     1      26.273   2.673  51.760  1.00  0.00     0.138 A 
HETATM    9  C15 UNL     1      24.953   2.388  51.560  1.00  0.00     0.041 A 
HETATM   10  C16 UNL     1      24.254   1.792  52.589  1.00  0.00     0.047 A 
ENDROOT
BRANCH   8  11
HETATM   11  N4  UNL     1      27.001   2.406  52.946  1.00  0.00    -0.363 N 
HETATM   12  H8  UNL     1      26.885   2.829  53.874  1.00  0.00     0.162 HD
BRANCH  11  13
HETATM   13  C10 UNL     1      28.060   1.406  52.859  1.00  0.00     0.129 A 
HETATM   14  C11 UNL     1      27.554   0.036  52.723  1.00  0.00     0.002 A 
HETATM   15  C12 UNL     1      27.964  -0.677  53.762  1.00  0.00    -0.002 A 
HETATM   16  C13 UNL     1      28.765   0.108  54.683  1.00  0.00    -0.002 A 
HETATM   17  C14 UNL     1      28.820   1.332  54.147  1.00  0.00     0.002 A 
ENDBRANCH  11  13
ENDBRANCH   8  11
BRANCH   1  18
HETATM   18  N1  UNL     1      22.092   0.863  53.442  1.00  0.00    -0.324 N 
HETATM   19  C3  UNL     1      22.535  -0.460  53.766  1.00  0.00     0.244 C 
HETATM   20  O1  UNL     1      23.553  -0.876  53.156  1.00  0.00    -0.268 OA
HETATM   21  H4  UNL     1      21.230   1.141  53.997  1.00  0.00     0.169 HD
BRANCH  19  22
HETATM   22  C2  UNL     1      21.841  -1.280  54.752  1.00  0.00     0.064 C 
HETATM   23  C1  UNL     1      20.650  -1.561  54.257  1.00  0.00     0.017 C 
ENDBRANCH  19  22
ENDBRANCH   1  18
TORSDOF 4
ENDMDL
MODEL 5
REMARK VINA RESULT:      -7.1      2.402      5.003
REMARK  4 active torsions:
REMARK  status: ('A' for Active; 'I' for Inactive)
REMARK    1  A    between atoms: C2_2  and  C3_3 
REMARK       I    between atoms: C3_3  and  N1_5 
REMARK    2  A    between atoms: N1_5  and  C4_6 
REMARK    3  A    between atoms: C9_13  and  N4_14 
REMARK    4  A    between atoms: N4_14  and  C10_15 
ROOT
HETATM    1  C4  UNL     1      22.314   0.945  53.084  1.00  0.00     0.036 A 
HETATM    2  C5  UNL     1      22.603  -0.294  53.655  1.00  0.00     0.032 A 
HETATM    3  C6  UNL     1      23.909  -0.710  53.719  1.00  0.00     0.035 A 
HETATM    4  C7  UNL     1      24.928   0.060  53.239  1.00  0.00     0.072 A 
HETATM    5  N2  UNL     1      26.222  -0.351  53.302  1.00  0.00    -0.241 NA
HETATM    6  C8  UNL     1      27.174   0.454  52.811  1.00  0.00     0.235 A 
HETATM    7  N3  UNL     1      26.888   1.658  52.257  1.00  0.00    -0.224 NA
HETATM    8  C9  UNL     1      25.627   2.114  52.167  1.00  0.00     0.138 A 
HETATM    9  C15 UNL     1      24.657   1.294  52.668  1.00  0.00     0.041 A 
HETATM   10  C16 UNL     1      23.347   1.721  52.598  1.00  0.00     0.047 A 
ENDROOT
BRANCH   8  11
HETATM   11  N4  UNL     1      25.408   3.382  51.576  1.00  0.00    -0.363 N 
HETATM   12  H8  UNL     1      25.210   4.277  52.040  1.00  0.00     0.162 HD
BRANCH  11  13
HETATM   13  C10 UNL     1      25.465   3.451  50.119  1.00  0.00     0.129 A 
HETATM   14  C11 UNL     1      26.782   3.838  49.608  1.00  0.00     0.002 A 
HETATM   15  C12 UNL     1      26.663   4.971  48.930  1.00  0.00    -0.002 A 
HETATM   16  C13 UNL     1      25.296   5.456  48.911  1.00  0.00    -0.002 A 
HETATM   17  C14 UNL     1      24.594   4.558  49.611  1.00  0.00     0.002 A 
ENDBRANCH  11  13
ENDBRANCH   8  11
BRANCH   1  18
HETATM   18  N1  UNL     1      20.930   1.273  53.068  1.00  0.00    -0.324 N 
HETATM   19  C3  UNL     1      20.270   0.762  51.903  1.00  0.00     0.244 C 
HETATM   20  O1  UNL     1      20.984   0.120  51.091  1.00  0.00    -0.268 OA
HETATM   21  H4  UNL     1      20.262   1.801  53.704  1.00  0.00     0.169 HD
BRANCH  19  22
HETATM   22  C2  UNL     1      18.847   0.976  51.673  1.00  0.00     0.064 C 
HETATM   23  C1  UNL     1      18.287  -0.214  51.557  1.00  0.00     0.017 C 
ENDBRANCH  19  22
ENDBRANCH   1  18
TORSDOF 4
ENDMDL
MODEL 6
REMARK VINA RESULT:      -6.9      6.074      8.921
REMARK  4 active torsions:
REMARK  status: ('A' for Active; 'I' for Inactive)
REMARK    1  A    between atoms: C2_2  and  C3_3 
REMARK       I    between atoms: C3_3  and  N1_5 
REMARK    2  A    between atoms: N1_5  and  C4_6 
REMARK    3  A    between atoms: C9_13  and  N4_14 
REMARK    4  A    between atoms: N4_14  and  C10_15 
ROOT
HETATM    1  C4  UNL     1      32.203   4.304  46.520  1.00  0.00     0.036 A 
HETATM    2  C5  UNL     1      33.322   4.879  45.921  1.00  0.00     0.032 A 
HETATM    3  C6  UNL     1      33.596   6.204  46.154  1.00  0.00     0.035 A 
HETATM    4  C7  UNL     1      32.800   6.966  46.957  1.00  0.00     0.072 A 
HETATM    5  N2  UNL     1      33.070   8.278  47.189  1.00  0.00    -0.241 NA
HETATM    6  C8  UNL     1      32.248   8.970  47.989  1.00  0.00     0.235 A 
HETATM    7  N3  UNL     1      31.161   8.406  48.570  1.00  0.00    -0.224 NA
HETATM    8  C9  UNL     1      30.845   7.113  48.376  1.00  0.00     0.138 A 
HETATM    9  C15 UNL     1      31.684   6.408  47.561  1.00  0.00     0.041 A 
HETATM   10  C16 UNL     1      31.399   5.078  47.333  1.00  0.00     0.047 A 
ENDROOT
BRANCH   8  11
HETATM   11  N4  UNL     1      29.693   6.595  49.018  1.00  0.00    -0.363 N 
HETATM   12  H8  UNL     1      29.564   6.373  50.012  1.00  0.00     0.162 HD
BRANCH  11  13
HETATM   13  C10 UNL     1      28.530   6.334  48.178  1.00  0.00     0.129 A 
HETATM   14  C11 UNL     1      27.425   7.269  48.410  1.00  0.00     0.002 A 
HETATM   15  C12 UNL     1      26.367   6.587  48.828  1.00  0.00    -0.002 A 
HETATM   16  C13 UNL     1      26.635   5.164  48.920  1.00  0.00    -0.002 A 
HETATM   17  C14 UNL     1      27.908   5.020  48.535  1.00  0.00     0.002 A 
ENDBRANCH  11  13
ENDBRANCH   8  11
BRANCH   1  18
HETATM   18  N1  UNL     1      32.014   2.929  46.208  1.00  0.00    -0.324 N 
HETATM   19  C3  UNL     1      32.610   2.069  47.188  1.00  0.00     0.244 C 
HETATM   20  O1  UNL     1      33.192   2.633  48.148  1.00  0.00    -0.268 OA
HETATM   21  H4  UNL     1      31.542   2.379  45.431  1.00  0.00     0.169 HD
BRANCH  19  22
HETATM   22  C2  UNL     1      32.542   0.617  47.075  1.00  0.00     0.064 C 
HETATM   23  C1  UNL     1      31.489   0.332  46.333  1.00  0.00     0.017 C 
ENDBRANCH  19  22
ENDBRANCH   1  18
TORSDOF 4
ENDMDL
MODEL 7
REMARK VINA RESULT:      -6.6      2.304      2.865
REMARK  4 active torsions:
REMARK  status: ('A' for Active; 'I' for Inactive)
REMARK    1  A    between atoms: C2_2  and  C3_3 
REMARK       I    between atoms: C3_3  and  N1_5 
REMARK    2  A    between atoms: N1_5  and  C4_6 
REMARK    3  A    between atoms: C9_13  and  N4_14 
REMARK    4  A    between atoms: N4_14  and  C10_15 
ROOT
HETATM    1  C4  UNL     1      25.189   0.646  53.671  1.00  0.00     0.036 A 
HETATM    2  C5  UNL     1      24.599  -0.518  54.162  1.00  0.00     0.032 A 
HETATM    3  C6  UNL     1      23.301  -0.802  53.820  1.00  0.00     0.035 A 
HETATM    4  C7  UNL     1      22.578   0.025  53.012  1.00  0.00     0.072 A 
HETATM    5  N2  UNL     1      21.293  -0.255  52.671  1.00  0.00    -0.241 NA
HETATM    6  C8  UNL     1      20.639   0.601  51.874  1.00  0.00     0.235 A 
HETATM    7  N3  UNL     1      21.218   1.731  51.398  1.00  0.00    -0.224 NA
HETATM    8  C9  UNL     1      22.486   2.059  51.703  1.00  0.00     0.138 A 
HETATM    9  C15 UNL     1      23.151   1.186  52.515  1.00  0.00     0.041 A 
HETATM   10  C16 UNL     1      24.455   1.481  52.854  1.00  0.00     0.047 A 
ENDROOT
BRANCH   8  11
HETATM   11  N4  UNL     1      23.021   3.256  51.167  1.00  0.00    -0.363 N 
HETATM   12  H8  UNL     1      23.623   3.372  50.344  1.00  0.00     0.162 HD
BRANCH  11  13
HETATM   13  C10 UNL     1      22.687   4.496  51.860  1.00  0.00     0.129 A 
HETATM   14  C11 UNL     1      21.561   5.213  51.255  1.00  0.00     0.002 A 
HETATM   15  C12 UNL     1      21.979   6.404  50.850  1.00  0.00    -0.002 A 
HETATM   16  C13 UNL     1      23.387   6.614  51.128  1.00  0.00    -0.002 A 
HETATM   17  C14 UNL     1      23.800   5.489  51.724  1.00  0.00     0.002 A 
ENDBRANCH  11  13
ENDBRANCH   8  11
BRANCH   1  18
HETATM   18  N1  UNL     1      26.534   0.841  54.092  1.00  0.00    -0.324 N 
HETATM   19  C3  UNL     1      27.469   0.195  53.219  1.00  0.00     0.244 C 
HETATM   20  O1  UNL     1      26.983  -0.430  52.241  1.00  0.00    -0.268 OA
HETATM   21  H4  UNL     1      27.020   1.347  54.890  1.00  0.00     0.169 HD
BRANCH  19  22
HETATM   22  C2  UNL     1      28.906   0.259  53.452  1.00  0.00     0.064 C 
HETATM   23  C1  UNL     1      29.361  -0.980  53.430  1.00  0.00     0.017 C 
ENDBRANCH  19  22
ENDBRANCH   1  18
TORSDOF 4
ENDMDL
MODEL 8
REMARK VINA RESULT:      -6.5      5.344      8.474
REMARK  4 active torsions:
REMARK  status: ('A' for Active; 'I' for Inactive)
REMARK    1  A    between atoms: C2_2  and  C3_3 
REMARK       I    between atoms: C3_3  and  N1_5 
REMARK    2  A    between atoms: N1_5  and  C4_6 
REMARK    3  A    between atoms: C9_13  and  N4_14 
REMARK    4  A    between atoms: N4_14  and  C10_15 
ROOT
HETATM    1  C4  UNL     1      31.932   6.215  48.298  1.00  0.00     0.036 A 
HETATM    2  C5  UNL     1      32.659   7.131  47.539  1.00  0.00     0.032 A 
HETATM    3  C6  UNL     1      32.040   8.276  47.105  1.00  0.00     0.035 A 
HETATM    4  C7  UNL     1      30.735   8.538  47.399  1.00  0.00     0.072 A 
HETATM    5  N2  UNL     1      30.121   9.672  46.971  1.00  0.00    -0.241 NA
HETATM    6  C8  UNL     1      28.835   9.867  47.295  1.00  0.00     0.235 A 
HETATM    7  N3  UNL     1      28.133   8.974  48.034  1.00  0.00    -0.224 NA
HETATM    8  C9  UNL     1      28.689   7.835  48.484  1.00  0.00     0.138 A 
HETATM    9  C15 UNL     1      29.998   7.637  48.154  1.00  0.00     0.041 A 
HETATM   10  C16 UNL     1      30.611   6.482  48.594  1.00  0.00     0.047 A 
ENDROOT
BRANCH   8  11
HETATM   11  N4  UNL     1      27.890   6.951  49.251  1.00  0.00    -0.363 N 
HETATM   12  H8  UNL     1      27.808   6.891  50.273  1.00  0.00     0.162 HD
BRANCH  11  13
HETATM   13  C10 UNL     1      27.073   5.992  48.515  1.00  0.00     0.129 A 
HETATM   14  C11 UNL     1      25.676   5.963  48.956  1.00  0.00     0.002 A 
HETATM   15  C12 UNL     1      25.395   4.750  49.411  1.00  0.00    -0.002 A 
HETATM   16  C13 UNL     1      26.537   3.857  49.330  1.00  0.00    -0.002 A 
HETATM   17  C14 UNL     1      27.521   4.592  48.801  1.00  0.00     0.002 A 
ENDBRANCH  11  13
ENDBRANCH   8  11
BRANCH   1  18
HETATM   18  N1  UNL     1      32.671   5.065  48.691  1.00  0.00    -0.324 N 
HETATM   19  C3  UNL     1      32.723   4.079  47.652  1.00  0.00     0.244 C 
HETATM   20  O1  UNL     1      32.130   4.362  46.581  1.00  0.00    -0.268 OA
HETATM   21  H4  UNL     1      33.195   4.753  49.561  1.00  0.00     0.169 HD
BRANCH  19  22
HETATM   22  C2  UNL     1      33.428   2.815  47.830  1.00  0.00     0.064 C 
HETATM   23  C1  UNL     1      34.454   2.820  46.999  1.00  0.00     0.017 C 
ENDBRANCH  19  22
ENDBRANCH   1  18
TORSDOF 4
ENDMDL
MODEL 9
REMARK VINA RESULT:      -6.5      2.670      5.428
REMARK  4 active torsions:
REMARK  status: ('A' for Active; 'I' for Inactive)
REMARK    1  A    between atoms: C2_2  and  C3_3 
REMARK       I    between atoms: C3_3  and  N1_5 
REMARK    2  A    between atoms: N1_5  and  C4_6 
REMARK    3  A    between atoms: C9_13  and  N4_14 
REMARK    4  A    between atoms: N4_14  and  C10_15 
ROOT
HETATM    1  C4  UNL     1      25.057   2.807  51.512  1.00  0.00     0.036 A 
HETATM    2  C5  UNL     1      25.396   3.733  50.526  1.00  0.00     0.032 A 
HETATM    3  C6  UNL     1      24.606   3.836  49.409  1.00  0.00     0.035 A 
HETATM    4  C7  UNL     1      23.500   3.055  49.242  1.00  0.00     0.072 A 
HETATM    5  N2  UNL     1      22.716   3.156  48.136  1.00  0.00    -0.241 NA
HETATM    6  C8  UNL     1      21.644   2.359  48.035  1.00  0.00     0.235 A 
HETATM    7  N3  UNL     1      21.318   1.461  48.997  1.00  0.00    -0.224 NA
HETATM    8  C9  UNL     1      22.057   1.317  50.111  1.00  0.00     0.138 A 
HETATM    9  C15 UNL     1      23.149   2.130  50.214  1.00  0.00     0.041 A 
HETATM   10  C16 UNL     1      23.937   2.019  51.340  1.00  0.00     0.047 A 
ENDROOT
BRANCH   8  11
HETATM   11  N4  UNL     1      21.652   0.357  51.071  1.00  0.00    -0.363 N 
HETATM   12  H8  UNL     1      21.909  -0.636  51.127  1.00  0.00     0.162 HD
BRANCH  11  13
HETATM   13  C10 UNL     1      20.754   0.815  52.125  1.00  0.00     0.129 A 
HETATM   14  C11 UNL     1      21.243   0.519  53.475  1.00  0.00     0.002 A 
HETATM   15  C12 UNL     1      20.372  -0.276  54.081  1.00  0.00    -0.002 A 
HETATM   16  C13 UNL     1      19.237  -0.592  53.234  1.00  0.00    -0.002 A 
HETATM   17  C14 UNL     1      19.465   0.053  52.085  1.00  0.00     0.002 A 
ENDBRANCH  11  13
ENDBRANCH   8  11
BRANCH   1  18
HETATM   18  N1  UNL     1      25.945   2.785  52.623  1.00  0.00    -0.324 N 
HETATM   19  C3  UNL     1      26.877   1.699  52.543  1.00  0.00     0.244 C 
HETATM   20  O1  UNL     1      26.780   0.950  51.538  1.00  0.00    -0.268 OA
HETATM   21  H4  UNL     1      26.092   3.371  53.497  1.00  0.00     0.169 HD
BRANCH  19  22
HETATM   22  C2  UNL     1      27.885   1.477  53.573  1.00  0.00     0.064 C 
HETATM   23  C1  UNL     1      27.409   0.560  54.394  1.00  0.00     0.017 C 
ENDBRANCH  19  22
ENDBRANCH   1  18
TORSDOF 4
ENDMDL
