MODEL 1
REMARK VINA RESULT:      -7.9      0.000      0.000
REMARK  0 active torsions:
REMARK  status: ('A' for Active; 'I' for Inactive)
ROOT
HETATM    1  C1  UNL     1      30.162   8.442  45.178  1.00  0.00     0.048 C 
HETATM    2  C2  UNL     1      31.390   8.632  44.504  1.00  0.00    -0.053 C 
HETATM    3  C3  UNL     1      32.307   8.910  45.396  1.00  0.00     0.003 C 
HETATM    4  C4  UNL     1      33.559   9.819  45.297  1.00  0.00     0.279 C 
HETATM    5  O1  UNL     1      33.724  10.240  46.541  1.00  0.00    -0.272 OA
HETATM    6  N1  UNL     1      32.782   9.619  47.384  1.00  0.00    -0.182 NA
HETATM    7  C5  UNL     1      31.768  10.560  47.572  1.00  0.00     0.145 C 
HETATM    8  C6  UNL     1      32.605   8.426  46.691  1.00  0.00     0.089 C 
HETATM    9  C7  UNL     1      32.086   7.264  47.301  1.00  0.00     0.059 C 
HETATM   10  C8  UNL     1      32.213   6.843  48.701  1.00  0.00     0.076 C 
HETATM   11  C9  UNL     1      31.242   7.568  49.672  1.00  0.00     0.032 C 
HETATM   12  N2  UNL     1      32.233   5.427  49.039  1.00  0.00    -0.404 N 
HETATM   13  C10 UNL     1      33.161   4.683  48.193  1.00  0.00     0.068 A 
HETATM   14  C11 UNL     1      32.137   4.175  47.350  1.00  0.00     0.005 A 
HETATM   15  C12 UNL     1      32.529   3.659  46.075  1.00  0.00    -0.005 A 
HETATM   16  C13 UNL     1      33.944   3.782  45.903  1.00  0.00    -0.012 A 
HETATM   17  C14 UNL     1      34.289   4.311  47.029  1.00  0.00     0.035 A 
HETATM   18  C15 UNL     1      34.578   4.828  48.146  1.00  0.00     0.027 A 
HETATM   19  C16 UNL     1      35.322   5.366  49.281  1.00  0.00     0.094 C 
HETATM   20  C17 UNL     1      35.447   6.667  48.421  1.00  0.00     0.139 C 
HETATM   21  O2  UNL     1      35.806   7.809  48.568  1.00  0.00    -0.297 OA
HETATM   22  C18 UNL     1      34.921   5.644  47.547  1.00  0.00     0.053 C 
HETATM   23  C19 UNL     1      34.466   6.814  46.810  1.00  0.00     0.036 C 
HETATM   24  C20 UNL     1      34.225   8.145  46.305  1.00  0.00     0.122 C 
HETATM   25  N3  UNL     1      34.280   8.538  44.982  1.00  0.00    -0.351 N 
HETATM   26  C21 UNL     1      34.689   7.986  43.744  1.00  0.00     0.089 C 
HETATM   27  C22 UNL     1      34.009   8.018  42.572  1.00  0.00     0.017 C 
HETATM   28  C23 UNL     1      32.589   8.307  42.184  1.00  0.00     0.002 C 
HETATM   29  C24 UNL     1      31.538   8.477  43.038  1.00  0.00     0.007 C 
HETATM   30  H14 UNL     1      31.678   4.938  49.766  1.00  0.00     0.154 HD
ENDROOT
TORSDOF 0
ENDMDL
MODEL 2
REMARK VINA RESULT:      -7.9     10.451     12.941
REMARK  0 active torsions:
REMARK  status: ('A' for Active; 'I' for Inactive)
ROOT
HETATM    1  C1  UNL     1      25.895   4.386  49.682  1.00  0.00     0.048 C 
HETATM    2  C2  UNL     1      25.731   3.500  50.772  1.00  0.00    -0.053 C 
HETATM    3  C3  UNL     1      24.675   3.876  51.449  1.00  0.00     0.003 C 
HETATM    4  C4  UNL     1      24.377   3.794  52.968  1.00  0.00     0.279 C 
HETATM    5  O1  UNL     1      23.568   4.823  53.171  1.00  0.00    -0.272 OA
HETATM    6  N1  UNL     1      23.274   5.449  51.944  1.00  0.00    -0.182 NA
HETATM    7  C5  UNL     1      24.108   6.567  51.884  1.00  0.00     0.145 C 
HETATM    8  C6  UNL     1      23.392   4.355  51.094  1.00  0.00     0.089 C 
HETATM    9  C7  UNL     1      22.801   4.321  49.813  1.00  0.00     0.059 C 
HETATM   10  C8  UNL     1      21.569   4.982  49.367  1.00  0.00     0.076 C 
HETATM   11  C9  UNL     1      21.737   6.493  49.053  1.00  0.00     0.032 C 
HETATM   12  N2  UNL     1      20.753   4.380  48.322  1.00  0.00    -0.404 N 
HETATM   13  C10 UNL     1      20.514   2.963  48.572  1.00  0.00     0.068 A 
HETATM   14  C11 UNL     1      21.505   2.533  47.652  1.00  0.00     0.005 A 
HETATM   15  C12 UNL     1      21.973   1.186  47.769  1.00  0.00    -0.005 A 
HETATM   16  C13 UNL     1      21.318   0.525  48.855  1.00  0.00    -0.012 A 
HETATM   17  C14 UNL     1      20.530   1.456  49.278  1.00  0.00     0.035 A 
HETATM   18  C15 UNL     1      19.778   2.400  49.655  1.00  0.00     0.027 A 
HETATM   19  C16 UNL     1      18.755   3.169  50.357  1.00  0.00     0.094 C 
HETATM   20  C17 UNL     1      19.809   3.282  51.508  1.00  0.00     0.139 C 
HETATM   21  O2  UNL     1      19.950   3.892  52.539  1.00  0.00    -0.297 OA
HETATM   22  C18 UNL     1      20.326   2.315  50.569  1.00  0.00     0.053 C 
HETATM   23  C19 UNL     1      21.579   2.688  51.209  1.00  0.00     0.036 C 
HETATM   24  C20 UNL     1      22.607   3.221  52.070  1.00  0.00     0.122 C 
HETATM   25  N3  UNL     1      23.668   2.519  52.607  1.00  0.00    -0.351 N 
HETATM   26  C21 UNL     1      24.085   1.168  52.704  1.00  0.00     0.089 C 
HETATM   27  C22 UNL     1      25.324   0.678  52.456  1.00  0.00     0.017 C 
HETATM   28  C23 UNL     1      26.542   1.197  51.751  1.00  0.00     0.002 C 
HETATM   29  C24 UNL     1      26.619   2.339  51.009  1.00  0.00     0.007 C 
HETATM   30  H14 UNL     1      20.369   4.836  47.473  1.00  0.00     0.154 HD
ENDROOT
TORSDOF 0
ENDMDL
MODEL 3
REMARK VINA RESULT:      -7.8      2.019      5.356
REMARK  0 active torsions:
REMARK  status: ('A' for Active; 'I' for Inactive)
ROOT
HETATM    1  C1  UNL     1      33.673   7.191  44.430  1.00  0.00     0.048 C 
HETATM    2  C2  UNL     1      33.329   6.303  45.475  1.00  0.00    -0.053 C 
HETATM    3  C3  UNL     1      33.287   6.983  46.592  1.00  0.00     0.003 C 
HETATM    4  C4  UNL     1      33.633   6.553  48.041  1.00  0.00     0.279 C 
HETATM    5  O1  UNL     1      34.035   7.683  48.601  1.00  0.00    -0.272 OA
HETATM    6  N1  UNL     1      33.882   8.748  47.692  1.00  0.00    -0.182 NA
HETATM    7  C5  UNL     1      35.152   8.971  47.157  1.00  0.00     0.145 C 
HETATM    8  C6  UNL     1      32.809   8.265  46.952  1.00  0.00     0.089 C 
HETATM    9  C7  UNL     1      31.979   9.106  46.179  1.00  0.00     0.059 C 
HETATM   10  C8  UNL     1      31.632  10.510  46.428  1.00  0.00     0.076 C 
HETATM   11  C9  UNL     1      32.736  11.520  46.014  1.00  0.00     0.032 C 
HETATM   12  N2  UNL     1      30.343  11.032  45.996  1.00  0.00    -0.404 N 
HETATM   13  C10 UNL     1      29.245  10.153  46.390  1.00  0.00     0.068 A 
HETATM   14  C11 UNL     1      29.121   9.570  45.102  1.00  0.00     0.005 A 
HETATM   15  C12 UNL     1      28.414   8.331  45.005  1.00  0.00    -0.005 A 
HETATM   16  C13 UNL     1      27.969   7.911  46.298  1.00  0.00    -0.012 A 
HETATM   17  C14 UNL     1      28.393   8.880  47.038  1.00  0.00     0.035 A 
HETATM   18  C15 UNL     1      28.828   9.852  47.719  1.00  0.00     0.027 A 
HETATM   19  C16 UNL     1      29.107  10.763  48.826  1.00  0.00     0.094 C 
HETATM   20  C17 UNL     1      30.201   9.723  49.240  1.00  0.00     0.139 C 
HETATM   21  O2  UNL     1      31.122   9.650  50.015  1.00  0.00    -0.297 OA
HETATM   22  C18 UNL     1      29.408   9.098  48.207  1.00  0.00     0.053 C 
HETATM   23  C19 UNL     1      30.613   8.293  48.072  1.00  0.00     0.036 C 
HETATM   24  C20 UNL     1      31.899   7.657  48.238  1.00  0.00     0.122 C 
HETATM   25  N3  UNL     1      32.155   6.302  48.159  1.00  0.00    -0.351 N 
HETATM   26  C21 UNL     1      31.410   5.101  48.073  1.00  0.00     0.089 C 
HETATM   27  C22 UNL     1      31.628   4.065  47.226  1.00  0.00     0.017 C 
HETATM   28  C23 UNL     1      32.419   3.883  45.964  1.00  0.00     0.002 C 
HETATM   29  C24 UNL     1      33.036   4.869  45.250  1.00  0.00     0.007 C 
HETATM   30  H14 UNL     1      30.154  11.901  45.463  1.00  0.00     0.154 HD
ENDROOT
TORSDOF 0
ENDMDL
MODEL 4
REMARK VINA RESULT:      -7.7      2.058      4.049
REMARK  0 active torsions:
REMARK  status: ('A' for Active; 'I' for Inactive)
ROOT
HETATM    1  C1  UNL     1      31.281   9.296  49.880  1.00  0.00     0.048 C 
HETATM    2  C2  UNL     1      30.287   9.144  48.886  1.00  0.00    -0.053 C 
HETATM    3  C3  UNL     1      30.848   9.322  47.716  1.00  0.00     0.003 C 
HETATM    4  C4  UNL     1      30.274   9.929  46.411  1.00  0.00     0.279 C 
HETATM    5  O1  UNL     1      31.342  10.446  45.824  1.00  0.00    -0.272 OA
HETATM    6  N1  UNL     1      32.494  10.138  46.574  1.00  0.00    -0.182 NA
HETATM    7  C5  UNL     1      32.779  11.288  47.313  1.00  0.00     0.145 C 
HETATM    8  C6  UNL     1      32.084   8.938  47.144  1.00  0.00     0.089 C 
HETATM    9  C7  UNL     1      32.995   7.990  47.655  1.00  0.00     0.059 C 
HETATM   10  C8  UNL     1      34.364   7.715  47.203  1.00  0.00     0.076 C 
HETATM   11  C9  UNL     1      35.418   8.735  47.712  1.00  0.00     0.032 C 
HETATM   12  N2  UNL     1      34.919   6.375  47.327  1.00  0.00    -0.404 N 
HETATM   13  C10 UNL     1      33.999   5.359  46.825  1.00  0.00     0.068 A 
HETATM   14  C11 UNL     1      33.551   4.986  48.120  1.00  0.00     0.005 A 
HETATM   15  C12 UNL     1      32.324   4.256  48.208  1.00  0.00    -0.005 A 
HETATM   16  C13 UNL     1      31.770   4.057  46.904  1.00  0.00    -0.012 A 
HETATM   17  C14 UNL     1      32.661   4.627  46.162  1.00  0.00     0.035 A 
HETATM   18  C15 UNL     1      33.560   5.196  45.480  1.00  0.00     0.027 A 
HETATM   19  C16 UNL     1      34.353   5.692  44.358  1.00  0.00     0.094 C 
HETATM   20  C17 UNL     1      33.282   6.829  44.267  1.00  0.00     0.139 C 
HETATM   21  O2  UNL     1      33.135   7.878  43.692  1.00  0.00    -0.297 OA
HETATM   22  C18 UNL     1      32.763   5.847  45.190  1.00  0.00     0.053 C 
HETATM   23  C19 UNL     1      31.983   6.994  45.632  1.00  0.00     0.036 C 
HETATM   24  C20 UNL     1      31.341   8.279  45.778  1.00  0.00     0.122 C 
HETATM   25  N3  UNL     1      30.003   8.497  46.042  1.00  0.00    -0.351 N 
HETATM   26  C21 UNL     1      28.812   7.733  46.108  1.00  0.00     0.089 C 
HETATM   27  C22 UNL     1      27.871   7.773  47.083  1.00  0.00     0.017 C 
HETATM   28  C23 UNL     1      27.825   8.309  48.483  1.00  0.00     0.002 C 
HETATM   29  C24 UNL     1      28.882   8.794  49.196  1.00  0.00     0.007 C 
HETATM   30  H14 UNL     1      35.838   6.101  47.724  1.00  0.00     0.154 HD
ENDROOT
TORSDOF 0
ENDMDL
MODEL 5
REMARK VINA RESULT:      -7.5      8.580     11.498
REMARK  0 active torsions:
REMARK  status: ('A' for Active; 'I' for Inactive)
ROOT
HETATM    1  C1  UNL     1      23.404   4.761  53.348  1.00  0.00     0.048 C 
HETATM    2  C2  UNL     1      24.017   3.833  52.476  1.00  0.00    -0.053 C 
HETATM    3  C3  UNL     1      23.361   3.842  51.342  1.00  0.00     0.003 C 
HETATM    4  C4  UNL     1      23.089   2.699  50.332  1.00  0.00     0.279 C 
HETATM    5  O1  UNL     1      21.934   3.049  49.787  1.00  0.00    -0.272 OA
HETATM    6  N1  UNL     1      21.534   4.305  50.281  1.00  0.00    -0.182 NA
HETATM    7  C5  UNL     1      20.585   4.036  51.269  1.00  0.00     0.145 C 
HETATM    8  C6  UNL     1      22.783   4.857  50.544  1.00  0.00     0.089 C 
HETATM    9  C7  UNL     1      22.989   6.248  50.663  1.00  0.00     0.059 C 
HETATM   10  C8  UNL     1      22.260   7.331  49.993  1.00  0.00     0.076 C 
HETATM   11  C9  UNL     1      20.885   7.662  50.634  1.00  0.00     0.032 C 
HETATM   12  N2  UNL     1      22.935   8.582  49.678  1.00  0.00    -0.404 N 
HETATM   13  C10 UNL     1      24.222   8.352  49.029  1.00  0.00     0.068 A 
HETATM   14  C11 UNL     1      24.970   8.577  50.214  1.00  0.00     0.005 A 
HETATM   15  C12 UNL     1      26.319   8.100  50.243  1.00  0.00    -0.005 A 
HETATM   16  C13 UNL     1      26.643   7.452  49.010  1.00  0.00    -0.012 A 
HETATM   17  C14 UNL     1      25.540   7.594  48.354  1.00  0.00     0.035 A 
HETATM   18  C15 UNL     1      24.441   7.757  47.752  1.00  0.00     0.027 A 
HETATM   19  C16 UNL     1      23.403   7.768  46.724  1.00  0.00     0.094 C 
HETATM   20  C17 UNL     1      23.214   6.256  47.077  1.00  0.00     0.139 C 
HETATM   21  O2  UNL     1      22.435   5.369  46.834  1.00  0.00    -0.297 OA
HETATM   22  C18 UNL     1      24.418   6.689  47.750  1.00  0.00     0.053 C 
HETATM   23  C19 UNL     1      24.109   5.533  48.579  1.00  0.00     0.036 C 
HETATM   24  C20 UNL     1      23.568   4.321  49.147  1.00  0.00     0.122 C 
HETATM   25  N3  UNL     1      24.294   3.245  49.618  1.00  0.00    -0.351 N 
HETATM   26  C21 UNL     1      25.643   2.812  49.613  1.00  0.00     0.089 C 
HETATM   27  C22 UNL     1      26.349   2.331  50.665  1.00  0.00     0.017 C 
HETATM   28  C23 UNL     1      26.167   2.350  52.155  1.00  0.00     0.002 C 
HETATM   29  C24 UNL     1      25.223   3.055  52.843  1.00  0.00     0.007 C 
HETATM   30  H14 UNL     1      22.610   9.547  49.872  1.00  0.00     0.154 HD
ENDROOT
TORSDOF 0
ENDMDL
MODEL 6
REMARK VINA RESULT:      -7.4      9.426     12.281
REMARK  0 active torsions:
REMARK  status: ('A' for Active; 'I' for Inactive)
ROOT
HETATM    1  C1  UNL     1      26.042   4.002  49.332  1.00  0.00     0.048 C 
HETATM    2  C2  UNL     1      25.165   3.768  50.417  1.00  0.00    -0.053 C 
HETATM    3  C3  UNL     1      24.482   4.864  50.634  1.00  0.00     0.003 C 
HETATM    4  C4  UNL     1      23.933   5.458  51.956  1.00  0.00     0.279 C 
HETATM    5  O1  UNL     1      23.932   6.761  51.722  1.00  0.00    -0.272 OA
HETATM    6  N1  UNL     1      24.323   7.008  50.392  1.00  0.00    -0.182 NA
HETATM    7  C5  UNL     1      25.668   7.377  50.458  1.00  0.00     0.145 C 
HETATM    8  C6  UNL     1      23.876   5.832  49.799  1.00  0.00     0.089 C 
HETATM    9  C7  UNL     1      23.637   5.724  48.412  1.00  0.00     0.059 C 
HETATM   10  C8  UNL     1      23.200   6.773  47.485  1.00  0.00     0.076 C 
HETATM   11  C9  UNL     1      24.334   7.732  47.032  1.00  0.00     0.032 C 
HETATM   12  N2  UNL     1      22.391   6.432  46.323  1.00  0.00    -0.404 N 
HETATM   13  C10 UNL     1      21.273   5.564  46.679  1.00  0.00     0.068 A 
HETATM   14  C11 UNL     1      21.917   4.385  46.221  1.00  0.00     0.005 A 
HETATM   15  C12 UNL     1      21.404   3.132  46.683  1.00  0.00    -0.005 A 
HETATM   16  C13 UNL     1      20.298   3.344  47.565  1.00  0.00    -0.012 A 
HETATM   17  C14 UNL     1      20.212   4.632  47.557  1.00  0.00     0.035 A 
HETATM   18  C15 UNL     1      20.169   5.895  47.516  1.00  0.00     0.027 A 
HETATM   19  C16 UNL     1      19.754   7.281  47.711  1.00  0.00     0.094 C 
HETATM   20  C17 UNL     1      20.416   7.149  49.122  1.00  0.00     0.139 C 
HETATM   21  O2  UNL     1      20.723   7.869  50.040  1.00  0.00    -0.297 OA
HETATM   22  C18 UNL     1      20.367   5.818  48.564  1.00  0.00     0.053 C 
HETATM   23  C19 UNL     1      21.435   5.609  49.531  1.00  0.00     0.036 C 
HETATM   24  C20 UNL     1      22.394   5.720  50.603  1.00  0.00     0.122 C 
HETATM   25  N3  UNL     1      22.659   4.763  51.564  1.00  0.00    -0.351 N 
HETATM   26  C21 UNL     1      22.107   3.530  51.990  1.00  0.00     0.089 C 
HETATM   27  C22 UNL     1      22.780   2.383  52.251  1.00  0.00     0.017 C 
HETATM   28  C23 UNL     1      24.155   1.871  51.935  1.00  0.00     0.002 C 
HETATM   29  C24 UNL     1      25.064   2.461  51.106  1.00  0.00     0.007 C 
HETATM   30  H14 UNL     1      22.539   6.722  45.338  1.00  0.00     0.154 HD
ENDROOT
TORSDOF 0
ENDMDL
MODEL 7
REMARK VINA RESULT:      -7.3      2.421      4.492
REMARK  0 active torsions:
REMARK  status: ('A' for Active; 'I' for Inactive)
ROOT
HETATM    1  C1  UNL     1      33.624  10.751  46.692  1.00  0.00     0.048 C 
HETATM    2  C2  UNL     1      33.530   9.810  45.640  1.00  0.00    -0.053 C 
HETATM    3  C3  UNL     1      33.378   8.622  46.167  1.00  0.00     0.003 C 
HETATM    4  C4  UNL     1      33.868   7.236  45.673  1.00  0.00     0.279 C 
HETATM    5  O1  UNL     1      34.025   6.555  46.798  1.00  0.00    -0.272 OA
HETATM    6  N1  UNL     1      33.600   7.334  47.891  1.00  0.00    -0.182 NA
HETATM    7  C5  UNL     1      34.765   7.856  48.457  1.00  0.00     0.145 C 
HETATM    8  C6  UNL     1      32.637   8.112  47.259  1.00  0.00     0.089 C 
HETATM    9  C7  UNL     1      31.609   8.772  47.966  1.00  0.00     0.059 C 
HETATM   10  C8  UNL     1      30.962   8.359  49.217  1.00  0.00     0.076 C 
HETATM   11  C9  UNL     1      31.792   8.669  50.492  1.00  0.00     0.032 C 
HETATM   12  N2  UNL     1      29.573   8.712  49.473  1.00  0.00    -0.404 N 
HETATM   13  C10 UNL     1      28.719   8.408  48.329  1.00  0.00     0.068 A 
HETATM   14  C11 UNL     1      28.680   9.753  47.877  1.00  0.00     0.005 A 
HETATM   15  C12 UNL     1      28.269   9.982  46.526  1.00  0.00    -0.005 A 
HETATM   16  C13 UNL     1      27.981   8.741  45.877  1.00  0.00    -0.012 A 
HETATM   17  C14 UNL     1      28.203   7.900  46.832  1.00  0.00     0.035 A 
HETATM   18  C15 UNL     1      28.433   7.118  47.797  1.00  0.00     0.027 A 
HETATM   19  C16 UNL     1      28.541   5.917  48.622  1.00  0.00     0.094 C 
HETATM   20  C17 UNL     1      29.856   5.639  47.822  1.00  0.00     0.139 C 
HETATM   21  O2  UNL     1      30.799   4.889  47.878  1.00  0.00    -0.297 OA
HETATM   22  C18 UNL     1      29.186   6.727  47.148  1.00  0.00     0.053 C 
HETATM   23  C19 UNL     1      30.537   6.968  46.661  1.00  0.00     0.036 C 
HETATM   24  C20 UNL     1      31.938   6.892  46.322  1.00  0.00     0.122 C 
HETATM   25  N3  UNL     1      32.491   7.129  45.079  1.00  0.00    -0.351 N 
HETATM   26  C21 UNL     1      32.035   7.343  43.755  1.00  0.00     0.089 C 
HETATM   27  C22 UNL     1      32.449   8.306  42.896  1.00  0.00     0.017 C 
HETATM   28  C23 UNL     1      33.211   9.590  43.038  1.00  0.00     0.002 C 
HETATM   29  C24 UNL     1      33.562  10.194  44.210  1.00  0.00     0.007 C 
HETATM   30  H14 UNL     1      29.173   9.140  50.329  1.00  0.00     0.154 HD
ENDROOT
TORSDOF 0
ENDMDL
MODEL 8
REMARK VINA RESULT:      -7.3      5.496      9.024
REMARK  0 active torsions:
REMARK  status: ('A' for Active; 'I' for Inactive)
ROOT
HETATM    1  C1  UNL     1      28.863   6.624  47.657  1.00  0.00     0.048 C 
HETATM    2  C2  UNL     1      27.686   6.605  48.441  1.00  0.00    -0.053 C 
HETATM    3  C3  UNL     1      27.407   7.835  48.790  1.00  0.00     0.003 C 
HETATM    4  C4  UNL     1      26.747   8.386  50.081  1.00  0.00     0.279 C 
HETATM    5  O1  UNL     1      27.279   9.593  50.197  1.00  0.00    -0.272 OA
HETATM    6  N1  UNL     1      28.099   9.863  49.085  1.00  0.00    -0.182 NA
HETATM    7  C5  UNL     1      29.406   9.631  49.518  1.00  0.00     0.145 C 
HETATM    8  C6  UNL     1      27.455   9.085  48.130  1.00  0.00     0.089 C 
HETATM    9  C7  UNL     1      27.606   9.305  46.744  1.00  0.00     0.059 C 
HETATM   10  C8  UNL     1      27.861  10.573  46.051  1.00  0.00     0.076 C 
HETATM   11  C9  UNL     1      29.341  11.039  46.104  1.00  0.00     0.032 C 
HETATM   12  N2  UNL     1      27.359  10.782  44.701  1.00  0.00    -0.404 N 
HETATM   13  C10 UNL     1      25.953  10.407  44.583  1.00  0.00     0.068 A 
HETATM   14  C11 UNL     1      26.238   9.155  43.977  1.00  0.00     0.005 A 
HETATM   15  C12 UNL     1      25.201   8.169  43.984  1.00  0.00    -0.005 A 
HETATM   16  C13 UNL     1      24.039   8.675  44.645  1.00  0.00    -0.012 A 
HETATM   17  C14 UNL     1      24.424   9.868  44.954  1.00  0.00     0.035 A 
HETATM   18  C15 UNL     1      24.847  11.026  45.234  1.00  0.00     0.027 A 
HETATM   19  C16 UNL     1      24.915  12.411  45.692  1.00  0.00     0.094 C 
HETATM   20  C17 UNL     1      25.048  11.798  47.126  1.00  0.00     0.139 C 
HETATM   21  O2  UNL     1      25.310  12.173  48.241  1.00  0.00    -0.297 OA
HETATM   22  C18 UNL     1      24.692  10.710  46.244  1.00  0.00     0.053 C 
HETATM   23  C19 UNL     1      25.286   9.931  47.320  1.00  0.00     0.036 C 
HETATM   24  C20 UNL     1      25.866   9.467  48.558  1.00  0.00     0.122 C 
HETATM   25  N3  UNL     1      25.482   8.348  49.270  1.00  0.00    -0.351 N 
HETATM   26  C21 UNL     1      24.429   7.401  49.240  1.00  0.00     0.089 C 
HETATM   27  C22 UNL     1      24.543   6.053  49.327  1.00  0.00     0.017 C 
HETATM   28  C23 UNL     1      25.673   5.078  49.176  1.00  0.00     0.002 C 
HETATM   29  C24 UNL     1      26.932   5.364  48.733  1.00  0.00     0.007 C 
HETATM   30  H14 UNL     1      27.878  11.137  43.876  1.00  0.00     0.154 HD
ENDROOT
TORSDOF 0
ENDMDL
MODEL 9
REMARK VINA RESULT:      -7.3      2.114      5.300
REMARK  0 active torsions:
REMARK  status: ('A' for Active; 'I' for Inactive)
ROOT
HETATM    1  C1  UNL     1      28.696   7.183  47.232  1.00  0.00     0.048 C 
HETATM    2  C2  UNL     1      28.992   8.359  47.961  1.00  0.00    -0.053 C 
HETATM    3  C3  UNL     1      30.263   8.338  48.271  1.00  0.00     0.003 C 
HETATM    4  C4  UNL     1      31.000   8.891  49.518  1.00  0.00     0.279 C 
HETATM    5  O1  UNL     1      32.042   8.083  49.634  1.00  0.00    -0.272 OA
HETATM    6  N1  UNL     1      32.066   7.177  48.556  1.00  0.00    -0.182 NA
HETATM    7  C5  UNL     1      31.533   5.987  49.053  1.00  0.00     0.145 C 
HETATM    8  C6  UNL     1      31.441   7.955  47.588  1.00  0.00     0.089 C 
HETATM    9  C7  UNL     1      31.573   7.698  46.206  1.00  0.00     0.059 C 
HETATM   10  C8  UNL     1      32.717   7.110  45.500  1.00  0.00     0.076 C 
HETATM   11  C9  UNL     1      32.805   5.564  45.612  1.00  0.00     0.032 C 
HETATM   12  N2  UNL     1      33.001   7.490  44.124  1.00  0.00    -0.404 N 
HETATM   13  C10 UNL     1      32.980   8.939  43.949  1.00  0.00     0.068 A 
HETATM   14  C11 UNL     1      31.679   8.950  43.383  1.00  0.00     0.005 A 
HETATM   15  C12 UNL     1      30.980  10.198  43.361  1.00  0.00    -0.005 A 
HETATM   16  C13 UNL     1      31.777  11.224  43.957  1.00  0.00    -0.012 A 
HETATM   17  C14 UNL     1      32.848  10.568  44.259  1.00  0.00     0.035 A 
HETATM   18  C15 UNL     1      33.873   9.883  44.535  1.00  0.00     0.027 A 
HETATM   19  C16 UNL     1      35.212   9.492  44.967  1.00  0.00     0.094 C 
HETATM   20  C17 UNL     1      34.631   9.573  46.417  1.00  0.00     0.139 C 
HETATM   21  O2  UNL     1      34.965   9.270  47.536  1.00  0.00    -0.297 OA
HETATM   22  C18 UNL     1      33.638  10.152  45.542  1.00  0.00     0.053 C 
HETATM   23  C19 UNL     1      32.771   9.812  46.661  1.00  0.00     0.036 C 
HETATM   24  C20 UNL     1      32.217   9.415  47.933  1.00  0.00     0.122 C 
HETATM   25  N3  UNL     1      31.250  10.093  48.650  1.00  0.00    -0.351 N 
HETATM   26  C21 UNL     1      30.591  11.346  48.591  1.00  0.00     0.089 C 
HETATM   27  C22 UNL     1      29.261  11.573  48.710  1.00  0.00     0.017 C 
HETATM   28  C23 UNL     1      28.032  10.715  48.632  1.00  0.00     0.002 C 
HETATM   29  C24 UNL     1      27.985   9.408  48.242  1.00  0.00     0.007 C 
HETATM   30  H14 UNL     1      33.190   6.866  43.317  1.00  0.00     0.154 HD
ENDROOT
TORSDOF 0
ENDMDL
