MODEL 1
REMARK VINA RESULT:      -5.7      0.000      0.000
REMARK  8 active torsions:
REMARK  status: ('A' for Active; 'I' for Inactive)
REMARK    1  A    between atoms: P1_2  and  C1_3 
REMARK    2  A    between atoms: C2_4  and  P2_5 
REMARK    3  A    between atoms: P2_5  and  C3_6 
REMARK    4  A    between atoms: C3_6  and  C4_7 
REMARK    5  A    between atoms: C4_7  and  C5_8 
REMARK    6  A    between atoms: C6_9  and  S1_10 
REMARK    7  A    between atoms: S1_10  and  N1_13 
REMARK    8  A    between atoms: N1_13  and  C7_14 
ROOT
HETATM    1  S1  UNL     1      27.169   0.538  54.001  1.00  0.00     0.249 S 
HETATM    2  O2  UNL     1      27.922  -0.532  54.743  1.00  0.00    -0.201 OA
HETATM    3  O3  UNL     1      27.890   1.840  54.310  1.00  0.00    -0.201 OA
ENDROOT
BRANCH   1   4
HETATM    4  C6  UNL     1      27.209   0.198  52.291  1.00  0.00     0.132 C 
HETATM    5  C5  UNL     1      26.632   1.109  51.516  1.00  0.00     0.021 C 
BRANCH   5   6
HETATM    6  C4  UNL     1      25.968   2.363  51.931  1.00  0.00     0.057 C 
BRANCH   6   7
HETATM    7  C3  UNL     1      24.846   2.586  51.263  1.00  0.00    -0.115 C 
BRANCH   7   8
HETATM    8  P2  UNL     1      23.760   3.108  50.118  1.00  0.00     0.023 P 
BRANCH   8   9
HETATM    9  C2  UNL     1      24.058   4.697  49.208  1.00  0.00     0.028 C 
HETATM   10  C1  UNL     1      25.319   5.150  49.140  1.00  0.00     0.047 C 
BRANCH  10  11
HETATM   11  P1  UNL     1      26.701   6.264  48.693  1.00  0.00     0.150 P 
HETATM   12  O1  UNL     1      26.486   7.397  47.666  1.00  0.00    -0.199 OA
ENDBRANCH  10  11
ENDBRANCH   8   9
ENDBRANCH   7   8
ENDBRANCH   6   7
ENDBRANCH   5   6
ENDBRANCH   1   4
BRANCH   1  13
HETATM   13  N1  UNL     1      25.566   0.564  54.614  1.00  0.00    -0.306 N 
HETATM   14  H6  UNL     1      25.102   1.470  54.531  1.00  0.00     0.173 HD
BRANCH  13  15
HETATM   15  C7  UNL     1      24.799  -0.603  54.322  1.00  0.00     0.137 A 
HETATM   16  C8  UNL     1      23.682  -0.179  53.416  1.00  0.00     0.021 A 
HETATM   17  C9  UNL     1      22.398  -0.395  53.570  1.00  0.00     0.026 A 
HETATM   18 BR1  UNL     1      21.053   0.203  52.331  1.00  0.00    -0.050 Br
HETATM   19  C10 UNL     1      22.033  -1.136  54.769  1.00  0.00     0.129 A 
HETATM   20  N2  UNL     1      22.907  -1.543  55.606  1.00  0.00    -0.298 NA
HETATM   21  C11 UNL     1      24.328  -1.353  55.519  1.00  0.00     0.178 A 
ENDBRANCH  13  15
ENDBRANCH   1  13
TORSDOF 8
ENDMDL
MODEL 2
REMARK VINA RESULT:      -5.5      2.211      2.527
REMARK  8 active torsions:
REMARK  status: ('A' for Active; 'I' for Inactive)
REMARK    1  A    between atoms: P1_2  and  C1_3 
REMARK    2  A    between atoms: C2_4  and  P2_5 
REMARK    3  A    between atoms: P2_5  and  C3_6 
REMARK    4  A    between atoms: C3_6  and  C4_7 
REMARK    5  A    between atoms: C4_7  and  C5_8 
REMARK    6  A    between atoms: C6_9  and  S1_10 
REMARK    7  A    between atoms: S1_10  and  N1_13 
REMARK    8  A    between atoms: N1_13  and  C7_14 
ROOT
HETATM    1  S1  UNL     1      25.754  -0.010  54.079  1.00  0.00     0.249 S 
HETATM    2  O2  UNL     1      25.718  -1.199  55.001  1.00  0.00    -0.201 OA
HETATM    3  O3  UNL     1      26.526   1.066  54.823  1.00  0.00    -0.201 OA
ENDROOT
BRANCH   1   4
HETATM    4  C6  UNL     1      26.567  -0.447  52.600  1.00  0.00     0.132 C 
HETATM    5  C5  UNL     1      26.980   0.573  51.855  1.00  0.00     0.021 C 
BRANCH   5   6
HETATM    6  C4  UNL     1      26.831   2.016  52.133  1.00  0.00     0.057 C 
BRANCH   6   7
HETATM    7  C3  UNL     1      26.300   2.675  51.113  1.00  0.00    -0.115 C 
BRANCH   7   8
HETATM    8  P2  UNL     1      26.125   3.579  49.729  1.00  0.00     0.023 P 
BRANCH   8   9
HETATM    9  C2  UNL     1      24.521   4.444  49.379  1.00  0.00     0.028 C 
HETATM   10  C1  UNL     1      23.737   4.752  50.423  1.00  0.00     0.047 C 
BRANCH  10  11
HETATM   11  P1  UNL     1      22.287   5.421  51.319  1.00  0.00     0.150 P 
HETATM   12  O1  UNL     1      20.875   4.864  51.038  1.00  0.00    -0.199 OA
ENDBRANCH  10  11
ENDBRANCH   8   9
ENDBRANCH   7   8
ENDBRANCH   6   7
ENDBRANCH   5   6
ENDBRANCH   1   4
BRANCH   1  13
HETATM   13  N1  UNL     1      24.132   0.479  53.801  1.00  0.00    -0.306 N 
HETATM   14  H6  UNL     1      24.042   1.315  53.221  1.00  0.00     0.173 HD
BRANCH  13  15
HETATM   15  C7  UNL     1      23.220  -0.593  53.564  1.00  0.00     0.137 A 
HETATM   16  C8  UNL     1      22.218  -0.104  52.562  1.00  0.00     0.021 A 
HETATM   17  C9  UNL     1      20.910  -0.126  52.659  1.00  0.00     0.026 A 
HETATM   18 BR1  UNL     1      19.723   0.534  51.297  1.00  0.00    -0.050 Br
HETATM   19  C10 UNL     1      20.389  -0.695  53.894  1.00  0.00     0.129 A 
HETATM   20  N2  UNL     1      21.156  -1.139  54.812  1.00  0.00    -0.298 NA
HETATM   21  C11 UNL     1      22.593  -1.156  54.792  1.00  0.00     0.178 A 
ENDBRANCH  13  15
ENDBRANCH   1  13
TORSDOF 8
ENDMDL
MODEL 3
REMARK VINA RESULT:      -5.5      4.005      6.205
REMARK  8 active torsions:
REMARK  status: ('A' for Active; 'I' for Inactive)
REMARK    1  A    between atoms: P1_2  and  C1_3 
REMARK    2  A    between atoms: C2_4  and  P2_5 
REMARK    3  A    between atoms: P2_5  and  C3_6 
REMARK    4  A    between atoms: C3_6  and  C4_7 
REMARK    5  A    between atoms: C4_7  and  C5_8 
REMARK    6  A    between atoms: C6_9  and  S1_10 
REMARK    7  A    between atoms: S1_10  and  N1_13 
REMARK    8  A    between atoms: N1_13  and  C7_14 
ROOT
HETATM    1  S1  UNL     1      25.678   3.606  50.468  1.00  0.00     0.249 S 
HETATM    2  O2  UNL     1      26.964   3.472  49.699  1.00  0.00    -0.201 OA
HETATM    3  O3  UNL     1      25.451   5.100  50.634  1.00  0.00    -0.201 OA
ENDROOT
BRANCH   1   4
HETATM    4  C6  UNL     1      24.380   2.879  49.561  1.00  0.00     0.132 C 
HETATM    5  C5  UNL     1      23.177   2.966  50.118  1.00  0.00     0.021 C 
BRANCH   5   6
HETATM    6  C4  UNL     1      22.818   3.601  51.403  1.00  0.00     0.057 C 
BRANCH   6   7
HETATM    7  C3  UNL     1      21.800   2.998  51.998  1.00  0.00    -0.115 C 
BRANCH   7   8
HETATM    8  P2  UNL     1      20.301   2.347  52.302  1.00  0.00     0.023 P 
BRANCH   8   9
HETATM    9  C2  UNL     1      20.096   0.509  52.450  1.00  0.00     0.028 C 
HETATM   10  C1  UNL     1      20.809  -0.124  53.394  1.00  0.00     0.047 C 
BRANCH  10  11
HETATM   11  P1  UNL     1      21.435  -1.521  54.398  1.00  0.00     0.150 P 
HETATM   12  O1  UNL     1      22.556  -1.294  55.435  1.00  0.00    -0.199 OA
ENDBRANCH  10  11
ENDBRANCH   8   9
ENDBRANCH   7   8
ENDBRANCH   6   7
ENDBRANCH   5   6
ENDBRANCH   1   4
BRANCH   1  13
HETATM   13  N1  UNL     1      25.903   2.847  51.992  1.00  0.00    -0.306 N 
HETATM   14  H6  UNL     1      25.067   2.388  52.356  1.00  0.00     0.173 HD
BRANCH  13  15
HETATM   15  C7  UNL     1      27.150   2.168  52.138  1.00  0.00     0.137 A 
HETATM   16  C8  UNL     1      26.877   0.705  51.960  1.00  0.00     0.021 A 
HETATM   17  C9  UNL     1      27.204  -0.277  52.766  1.00  0.00     0.026 A 
HETATM   18 BR1  UNL     1      26.796  -2.126  52.426  1.00  0.00    -0.050 Br
HETATM   19  C10 UNL     1      27.915   0.122  53.972  1.00  0.00     0.129 A 
HETATM   20  N2  UNL     1      28.197   1.342  54.221  1.00  0.00    -0.298 NA
HETATM   21  C11 UNL     1      27.880   2.478  53.399  1.00  0.00     0.178 A 
ENDBRANCH  13  15
ENDBRANCH   1  13
TORSDOF 8
ENDMDL
MODEL 4
REMARK VINA RESULT:      -5.3      4.077      5.422
REMARK  8 active torsions:
REMARK  status: ('A' for Active; 'I' for Inactive)
REMARK    1  A    between atoms: P1_2  and  C1_3 
REMARK    2  A    between atoms: C2_4  and  P2_5 
REMARK    3  A    between atoms: P2_5  and  C3_6 
REMARK    4  A    between atoms: C3_6  and  C4_7 
REMARK    5  A    between atoms: C4_7  and  C5_8 
REMARK    6  A    between atoms: C6_9  and  S1_10 
REMARK    7  A    between atoms: S1_10  and  N1_13 
REMARK    8  A    between atoms: N1_13  and  C7_14 
ROOT
HETATM    1  S1  UNL     1      24.056   5.168  50.662  1.00  0.00     0.249 S 
HETATM    2  O2  UNL     1      22.764   5.512  51.354  1.00  0.00    -0.201 OA
HETATM    3  O3  UNL     1      23.659   4.485  49.364  1.00  0.00    -0.201 OA
ENDROOT
BRANCH   1   4
HETATM    4  C6  UNL     1      24.953   6.629  50.346  1.00  0.00     0.132 C 
HETATM    5  C5  UNL     1      25.984   6.496  49.519  1.00  0.00     0.021 C 
BRANCH   5   6
HETATM    6  C4  UNL     1      26.452   5.267  48.845  1.00  0.00     0.057 C 
BRANCH   6   7
HETATM    7  C3  UNL     1      27.759   5.277  48.627  1.00  0.00    -0.115 C 
BRANCH   7   8
HETATM    8  P2  UNL     1      29.286   5.748  48.169  1.00  0.00     0.023 P 
BRANCH   8   9
HETATM    9  C2  UNL     1      29.781   7.532  48.276  1.00  0.00     0.028 C 
HETATM   10  C1  UNL     1      28.864   8.410  48.711  1.00  0.00     0.047 C 
BRANCH  10  11
HETATM   11  P1  UNL     1      28.156  10.029  49.189  1.00  0.00     0.150 P 
HETATM   12  O1  UNL     1      26.999  10.101  50.209  1.00  0.00    -0.199 OA
ENDBRANCH  10  11
ENDBRANCH   8   9
ENDBRANCH   7   8
ENDBRANCH   6   7
ENDBRANCH   5   6
ENDBRANCH   1   4
BRANCH   1  13
HETATM   13  N1  UNL     1      24.919   4.091  51.683  1.00  0.00    -0.306 N 
HETATM   14  H6  UNL     1      24.677   4.170  52.673  1.00  0.00     0.173 HD
BRANCH  13  15
HETATM   15  C7  UNL     1      25.098   2.781  51.148  1.00  0.00     0.137 A 
HETATM   16  C8  UNL     1      24.201   1.863  51.923  1.00  0.00     0.021 A 
HETATM   17  C9  UNL     1      24.527   0.748  52.533  1.00  0.00     0.026 A 
HETATM   18 BR1  UNL     1      23.278  -0.350  53.500  1.00  0.00    -0.050 Br
HETATM   19  C10 UNL     1      25.931   0.375  52.435  1.00  0.00     0.129 A 
HETATM   20  N2  UNL     1      26.779   1.087  51.800  1.00  0.00    -0.298 NA
HETATM   21  C11 UNL     1      26.513   2.317  51.105  1.00  0.00     0.178 A 
ENDBRANCH  13  15
ENDBRANCH   1  13
TORSDOF 8
ENDMDL
MODEL 5
REMARK VINA RESULT:      -5.3      4.001      5.113
REMARK  8 active torsions:
REMARK  status: ('A' for Active; 'I' for Inactive)
REMARK    1  A    between atoms: P1_2  and  C1_3 
REMARK    2  A    between atoms: C2_4  and  P2_5 
REMARK    3  A    between atoms: P2_5  and  C3_6 
REMARK    4  A    between atoms: C3_6  and  C4_7 
REMARK    5  A    between atoms: C4_7  and  C5_8 
REMARK    6  A    between atoms: C6_9  and  S1_10 
REMARK    7  A    between atoms: S1_10  and  N1_13 
REMARK    8  A    between atoms: N1_13  and  C7_14 
ROOT
HETATM    1  S1  UNL     1      24.904   3.232  50.393  1.00  0.00     0.249 S 
HETATM    2  O2  UNL     1      24.449   4.443  51.163  1.00  0.00    -0.201 OA
HETATM    3  O3  UNL     1      23.860   3.016  49.310  1.00  0.00    -0.201 OA
ENDROOT
BRANCH   1   4
HETATM    4  C6  UNL     1      26.469   3.544  49.691  1.00  0.00     0.132 C 
HETATM    5  C5  UNL     1      26.595   4.716  49.078  1.00  0.00     0.021 C 
BRANCH   5   6
HETATM    6  C4  UNL     1      25.573   5.772  48.924  1.00  0.00     0.057 C 
BRANCH   6   7
HETATM    7  C3  UNL     1      26.030   6.970  49.257  1.00  0.00    -0.115 C 
BRANCH   7   8
HETATM    8  P2  UNL     1      26.111   8.586  49.634  1.00  0.00     0.023 P 
BRANCH   8   9
HETATM    9  C2  UNL     1      27.737   9.357  50.088  1.00  0.00     0.028 C 
HETATM   10  C1  UNL     1      28.811   9.022  49.356  1.00  0.00     0.047 C 
BRANCH  10  11
HETATM   11  P1  UNL     1      30.560   9.010  48.816  1.00  0.00     0.150 P 
HETATM   12  O1  UNL     1      31.666   8.512  49.772  1.00  0.00    -0.199 OA
ENDBRANCH  10  11
ENDBRANCH   8   9
ENDBRANCH   7   8
ENDBRANCH   6   7
ENDBRANCH   5   6
ENDBRANCH   1   4
BRANCH   1  13
HETATM   13  N1  UNL     1      24.941   1.908  51.485  1.00  0.00    -0.306 N 
HETATM   14  H6  UNL     1      24.498   1.060  51.126  1.00  0.00     0.173 HD
BRANCH  13  15
HETATM   15  C7  UNL     1      26.165   1.764  52.203  1.00  0.00     0.137 A 
HETATM   16  C8  UNL     1      26.603   0.339  52.043  1.00  0.00     0.021 A 
HETATM   17  C9  UNL     1      26.923  -0.513  52.988  1.00  0.00     0.026 A 
HETATM   18 BR1  UNL     1      27.474  -2.326  52.655  1.00  0.00    -0.050 Br
HETATM   19  C10 UNL     1      26.834   0.005  54.346  1.00  0.00     0.129 A 
HETATM   20  N2  UNL     1      26.471   1.203  54.592  1.00  0.00    -0.298 NA
HETATM   21  C11 UNL     1      26.104   2.201  53.626  1.00  0.00     0.178 A 
ENDBRANCH  13  15
ENDBRANCH   1  13
TORSDOF 8
ENDMDL
MODEL 6
REMARK VINA RESULT:      -5.2      4.223      5.691
REMARK  8 active torsions:
REMARK  status: ('A' for Active; 'I' for Inactive)
REMARK    1  A    between atoms: P1_2  and  C1_3 
REMARK    2  A    between atoms: C2_4  and  P2_5 
REMARK    3  A    between atoms: P2_5  and  C3_6 
REMARK    4  A    between atoms: C3_6  and  C4_7 
REMARK    5  A    between atoms: C4_7  and  C5_8 
REMARK    6  A    between atoms: C6_9  and  S1_10 
REMARK    7  A    between atoms: S1_10  and  N1_13 
REMARK    8  A    between atoms: N1_13  and  C7_14 
ROOT
HETATM    1  S1  UNL     1      20.233   2.784  51.389  1.00  0.00     0.249 S 
HETATM    2  O2  UNL     1      18.951   2.856  52.174  1.00  0.00    -0.201 OA
HETATM    3  O3  UNL     1      19.828   2.892  49.928  1.00  0.00    -0.201 OA
ENDROOT
BRANCH   1   4
HETATM    4  C6  UNL     1      21.269   4.110  51.844  1.00  0.00     0.132 C 
HETATM    5  C5  UNL     1      22.428   4.176  51.199  1.00  0.00     0.021 C 
BRANCH   5   6
HETATM    6  C4  UNL     1      22.934   3.264  50.152  1.00  0.00     0.057 C 
BRANCH   6   7
HETATM    7  C3  UNL     1      24.221   2.991  50.299  1.00  0.00    -0.115 C 
BRANCH   7   8
HETATM    8  P2  UNL     1      25.799   3.022  50.822  1.00  0.00     0.023 P 
BRANCH   8   9
HETATM    9  C2  UNL     1      26.556   1.511  51.588  1.00  0.00     0.028 C 
HETATM   10  C1  UNL     1      27.512   1.692  52.512  1.00  0.00     0.047 C 
BRANCH  10  11
HETATM   11  P1  UNL     1      28.781   1.242  53.752  1.00  0.00     0.150 P 
HETATM   12  O1  UNL     1      28.360   0.801  55.171  1.00  0.00    -0.199 OA
ENDBRANCH  10  11
ENDBRANCH   8   9
ENDBRANCH   7   8
ENDBRANCH   6   7
ENDBRANCH   5   6
ENDBRANCH   1   4
BRANCH   1  13
HETATM   13  N1  UNL     1      20.956   1.262  51.715  1.00  0.00    -0.306 N 
HETATM   14  H6  UNL     1      21.720   1.019  51.083  1.00  0.00     0.173 HD
BRANCH  13  15
HETATM   15  C7  UNL     1      21.124   0.969  53.101  1.00  0.00     0.137 A 
HETATM   16  C8  UNL     1      22.576   0.663  53.313  1.00  0.00     0.021 A 
HETATM   17  C9  UNL     1      23.098  -0.395  53.886  1.00  0.00     0.026 A 
HETATM   18 BR1  UNL     1      24.990  -0.676  54.100  1.00  0.00    -0.050 Br
HETATM   19  C10 UNL     1      22.137  -1.378  54.367  1.00  0.00     0.129 A 
HETATM   20  N2  UNL     1      20.878  -1.214  54.237  1.00  0.00    -0.298 NA
HETATM   21  C11 UNL     1      20.220  -0.093  53.626  1.00  0.00     0.178 A 
ENDBRANCH  13  15
ENDBRANCH   1  13
TORSDOF 8
ENDMDL
MODEL 7
REMARK VINA RESULT:      -5.2      4.899      8.146
REMARK  8 active torsions:
REMARK  status: ('A' for Active; 'I' for Inactive)
REMARK    1  A    between atoms: P1_2  and  C1_3 
REMARK    2  A    between atoms: C2_4  and  P2_5 
REMARK    3  A    between atoms: P2_5  and  C3_6 
REMARK    4  A    between atoms: C3_6  and  C4_7 
REMARK    5  A    between atoms: C4_7  and  C5_8 
REMARK    6  A    between atoms: C6_9  and  S1_10 
REMARK    7  A    between atoms: S1_10  and  N1_13 
REMARK    8  A    between atoms: N1_13  and  C7_14 
ROOT
HETATM    1  S1  UNL     1      23.033   5.290  51.364  1.00  0.00     0.249 S 
HETATM    2  O2  UNL     1      21.932   6.280  51.091  1.00  0.00    -0.201 OA
HETATM    3  O3  UNL     1      22.784   4.774  52.771  1.00  0.00    -0.201 OA
ENDROOT
BRANCH   1   4
HETATM    4  C6  UNL     1      22.948   3.992  50.203  1.00  0.00     0.132 C 
HETATM    5  C5  UNL     1      23.884   3.058  50.324  1.00  0.00     0.021 C 
BRANCH   5   6
HETATM    6  C4  UNL     1      24.976   2.993  51.318  1.00  0.00     0.057 C 
BRANCH   6   7
HETATM    7  C3  UNL     1      24.775   2.052  52.228  1.00  0.00    -0.115 C 
BRANCH   7   8
HETATM    8  P2  UNL     1      24.320   0.636  52.970  1.00  0.00     0.023 P 
BRANCH   8   9
HETATM    9  C2  UNL     1      25.573  -0.380  53.887  1.00  0.00     0.028 C 
HETATM   10  C1  UNL     1      26.801   0.136  54.042  1.00  0.00     0.047 C 
BRANCH  10  11
HETATM   11  P1  UNL     1      28.549   0.227  54.580  1.00  0.00     0.150 P 
HETATM   12  O1  UNL     1      29.150   1.569  55.050  1.00  0.00    -0.199 OA
ENDBRANCH  10  11
ENDBRANCH   8   9
ENDBRANCH   7   8
ENDBRANCH   6   7
ENDBRANCH   5   6
ENDBRANCH   1   4
BRANCH   1  13
HETATM   13  N1  UNL     1      24.524   6.137  51.275  1.00  0.00    -0.306 N 
HETATM   14  H6  UNL     1      25.320   5.619  51.651  1.00  0.00     0.173 HD
BRANCH  13  15
HETATM   15  C7  UNL     1      24.720   6.868  50.066  1.00  0.00     0.137 A 
HETATM   16  C8  UNL     1      25.956   6.320  49.417  1.00  0.00     0.021 A 
HETATM   17  C9  UNL     1      27.008   6.985  49.004  1.00  0.00     0.026 A 
HETATM   18 BR1  UNL     1      28.542   6.165  48.181  1.00  0.00    -0.050 Br
HETATM   19  C10 UNL     1      26.951   8.426  49.211  1.00  0.00     0.129 A 
HETATM   20  N2  UNL     1      25.946   8.993  49.755  1.00  0.00    -0.298 NA
HETATM   21  C11 UNL     1      24.755   8.348  50.234  1.00  0.00     0.178 A 
ENDBRANCH  13  15
ENDBRANCH   1  13
TORSDOF 8
ENDMDL
MODEL 8
REMARK VINA RESULT:      -5.2      4.632      7.620
REMARK  8 active torsions:
REMARK  status: ('A' for Active; 'I' for Inactive)
REMARK    1  A    between atoms: P1_2  and  C1_3 
REMARK    2  A    between atoms: C2_4  and  P2_5 
REMARK    3  A    between atoms: P2_5  and  C3_6 
REMARK    4  A    between atoms: C3_6  and  C4_7 
REMARK    5  A    between atoms: C4_7  and  C5_8 
REMARK    6  A    between atoms: C6_9  and  S1_10 
REMARK    7  A    between atoms: S1_10  and  N1_13 
REMARK    8  A    between atoms: N1_13  and  C7_14 
ROOT
HETATM    1  S1  UNL     1      25.109   3.133  50.817  1.00  0.00     0.249 S 
HETATM    2  O2  UNL     1      25.770   1.801  51.049  1.00  0.00    -0.201 OA
HETATM    3  O3  UNL     1      24.157   2.923  49.651  1.00  0.00    -0.201 OA
ENDROOT
BRANCH   1   4
HETATM    4  C6  UNL     1      24.239   3.607  52.251  1.00  0.00     0.132 C 
HETATM    5  C5  UNL     1      23.214   2.828  52.579  1.00  0.00     0.021 C 
BRANCH   5   6
HETATM    6  C4  UNL     1      22.733   1.620  51.876  1.00  0.00     0.057 C 
BRANCH   6   7
HETATM    7  C3  UNL     1      23.035   0.505  52.524  1.00  0.00    -0.115 C 
BRANCH   7   8
HETATM    8  P2  UNL     1      23.264  -0.614  53.732  1.00  0.00     0.023 P 
BRANCH   8   9
HETATM    9  C2  UNL     1      24.911  -0.750  54.575  1.00  0.00     0.028 C 
HETATM   10  C1  UNL     1      25.897   0.054  54.151  1.00  0.00     0.047 C 
BRANCH  10  11
HETATM   11  P1  UNL     1      27.567   0.800  54.081  1.00  0.00     0.150 P 
HETATM   12  O1  UNL     1      27.732   2.330  53.962  1.00  0.00    -0.199 OA
ENDBRANCH  10  11
ENDBRANCH   8   9
ENDBRANCH   7   8
ENDBRANCH   6   7
ENDBRANCH   5   6
ENDBRANCH   1   4
BRANCH   1  13
HETATM   13  N1  UNL     1      26.340   4.258  50.409  1.00  0.00    -0.306 N 
HETATM   14  H6  UNL     1      27.249   3.832  50.224  1.00  0.00     0.173 HD
BRANCH  13  15
HETATM   15  C7  UNL     1      25.917   5.316  49.552  1.00  0.00     0.137 A 
HETATM   16  C8  UNL     1      27.084   5.668  48.679  1.00  0.00     0.021 A 
HETATM   17  C9  UNL     1      27.615   6.852  48.487  1.00  0.00     0.026 A 
HETATM   18 BR1  UNL     1      29.121   7.179  47.335  1.00  0.00    -0.050 Br
HETATM   19  C10 UNL     1      26.983   7.941  49.219  1.00  0.00     0.129 A 
HETATM   20  N2  UNL     1      25.984   7.749  49.989  1.00  0.00    -0.298 NA
HETATM   21  C11 UNL     1      25.339   6.494  50.258  1.00  0.00     0.178 A 
ENDBRANCH  13  15
ENDBRANCH   1  13
TORSDOF 8
ENDMDL
MODEL 9
REMARK VINA RESULT:      -5.2      4.862      8.159
REMARK  8 active torsions:
REMARK  status: ('A' for Active; 'I' for Inactive)
REMARK    1  A    between atoms: P1_2  and  C1_3 
REMARK    2  A    between atoms: C2_4  and  P2_5 
REMARK    3  A    between atoms: P2_5  and  C3_6 
REMARK    4  A    between atoms: C3_6  and  C4_7 
REMARK    5  A    between atoms: C4_7  and  C5_8 
REMARK    6  A    between atoms: C6_9  and  S1_10 
REMARK    7  A    between atoms: S1_10  and  N1_13 
REMARK    8  A    between atoms: N1_13  and  C7_14 
ROOT
HETATM    1  S1  UNL     1      23.383   4.766  51.753  1.00  0.00     0.249 S 
HETATM    2  O2  UNL     1      22.052   5.467  51.794  1.00  0.00    -0.201 OA
HETATM    3  O3  UNL     1      23.518   4.060  53.092  1.00  0.00    -0.201 OA
ENDROOT
BRANCH   1   4
HETATM    4  C6  UNL     1      23.396   3.617  50.443  1.00  0.00     0.132 C 
HETATM    5  C5  UNL     1      24.490   2.871  50.350  1.00  0.00     0.021 C 
BRANCH   5   6
HETATM    6  C4  UNL     1      25.684   2.902  51.220  1.00  0.00     0.057 C 
BRANCH   6   7
HETATM    7  C3  UNL     1      26.057   1.693  51.610  1.00  0.00    -0.115 C 
BRANCH   7   8
HETATM    8  P2  UNL     1      26.724   0.444  52.481  1.00  0.00     0.023 P 
BRANCH   8   9
HETATM    9  C2  UNL     1      25.628  -0.769  53.359  1.00  0.00     0.028 C 
HETATM   10  C1  UNL     1      24.321  -0.480  53.444  1.00  0.00     0.047 C 
BRANCH  10  11
HETATM   11  P1  UNL     1      22.560  -0.697  53.895  1.00  0.00     0.150 P 
HETATM   12  O1  UNL     1      22.176  -1.302  55.263  1.00  0.00    -0.199 OA
ENDBRANCH  10  11
ENDBRANCH   8   9
ENDBRANCH   7   8
ENDBRANCH   6   7
ENDBRANCH   5   6
ENDBRANCH   1   4
BRANCH   1  13
HETATM   13  N1  UNL     1      24.595   5.968  51.567  1.00  0.00    -0.306 N 
HETATM   14  H6  UNL     1      25.505   5.705  51.951  1.00  0.00     0.173 HD
BRANCH  13  15
HETATM   15  C7  UNL     1      24.575   6.642  50.310  1.00  0.00     0.137 A 
HETATM   16  C8  UNL     1      25.829   6.256  49.585  1.00  0.00     0.021 A 
HETATM   17  C9  UNL     1      26.723   7.052  49.048  1.00  0.00     0.026 A 
HETATM   18 BR1  UNL     1      28.301   6.434  48.138  1.00  0.00    -0.050 Br
HETATM   19  C10 UNL     1      26.448   8.475  49.186  1.00  0.00     0.129 A 
HETATM   20  N2  UNL     1      25.410   8.910  49.786  1.00  0.00    -0.298 NA
HETATM   21  C11 UNL     1      24.381   8.116  50.400  1.00  0.00     0.178 A 
ENDBRANCH  13  15
ENDBRANCH   1  13
TORSDOF 8
ENDMDL
