MODEL 1
REMARK VINA RESULT:      -7.6      0.000      0.000
REMARK  8 active torsions:
REMARK  status: ('A' for Active; 'I' for Inactive)
REMARK    1  A    between atoms: C5_5  and  N1_6 
REMARK    2  A    between atoms: N1_6  and  C6_7 
REMARK    3  A    between atoms: N4_11  and  C8_12 
REMARK    4  A    between atoms: C8_12  and  P1_13 
REMARK    5  A    between atoms: P1_13  and  C9_14 
REMARK    6  A    between atoms: C9_14  and  C10_15 
REMARK    7  A    between atoms: C10_15  and  N5_16 
REMARK    8  A    between atoms: C13_19  and  N6_20 
ROOT
HETATM    1  C6  UNL     1      26.301  -0.363  54.341  1.00  0.00     0.126 C 
HETATM    2  N2  UNL     1      27.441  -0.822  54.192  1.00  0.00    -0.225 NA
HETATM    3  C7  UNL     1      28.608  -0.376  53.585  1.00  0.00     0.257 C 
HETATM    4  N3  UNL     1      28.523   0.822  52.979  1.00  0.00    -0.158 NA
HETATM    5  N4  UNL     1      27.211   1.364  53.072  1.00  0.00    -0.226 N 
HETATM    6  C16 UNL     1      26.141   1.104  53.978  1.00  0.00     0.239 C 
ENDROOT
BRANCH   5   7
HETATM    7  C8  UNL     1      26.890   2.115  52.066  1.00  0.00    -0.022 C 
BRANCH   7   8
HETATM    8  P1  UNL     1      26.531   2.897  51.013  1.00  0.00    -0.033 P 
HETATM    9  H8  UNL     1      26.424   3.143  50.678  1.00  0.00     0.072 HD
BRANCH   8  10
HETATM   10  C9  UNL     1      25.855   4.290  49.172  1.00  0.00     0.065 C 
BRANCH  10  11
HETATM   11  C10 UNL     1      24.784   4.830  49.983  1.00  0.00     0.122 C 
BRANCH  11  12
HETATM   12  N5  UNL     1      23.452   4.626  49.586  1.00  0.00    -0.412 N 
HETATM   13  C11 UNL     1      23.106   3.382  49.000  1.00  0.00     0.119 C 
HETATM   14  C12 UNL     1      22.834   2.379  50.082  1.00  0.00     0.055 C 
HETATM   15  C13 UNL     1      21.733   2.882  50.951  1.00  0.00     0.221 C 
HETATM   16  C14 UNL     1      21.826   4.291  51.399  1.00  0.00     0.055 C 
HETATM   17  C15 UNL     1      22.436   5.225  50.389  1.00  0.00     0.119 C 
BRANCH  15  18
HETATM   18  N6  UNL     1      20.446   2.568  50.328  1.00  0.00     0.083 N 
HETATM   19  H18 UNL     1      20.359   3.124  49.449  1.00  0.00     0.313 HD
HETATM   20  H19 UNL     1      19.661   2.676  50.976  1.00  0.00     0.313 HD
ENDBRANCH  15  18
ENDBRANCH  11  12
ENDBRANCH  10  11
ENDBRANCH   8  10
ENDBRANCH   7   8
ENDBRANCH   5   7
BRANCH   1  21
HETATM   21  N1  UNL     1      25.181  -0.928  54.968  1.00  0.00    -0.343 N 
HETATM   22  H6  UNL     1      25.305  -1.446  55.860  1.00  0.00     0.167 HD
BRANCH  21  23
HETATM   23  C5  UNL     1      23.909  -0.783  54.380  1.00  0.00     0.033 A 
HETATM   24  C4  UNL     1      23.524  -0.356  53.155  1.00  0.00     0.030 A 
HETATM   25  C3  UNL     1      22.237  -0.252  52.705  1.00  0.00     0.009 A 
HETATM   26  C2  UNL     1      21.209  -0.606  53.548  1.00  0.00    -0.062 A 
HETATM   27  C1  UNL     1      19.791  -0.513  53.110  1.00  0.00     0.048 C 
HETATM   28  C18 UNL     1      21.508  -1.048  54.804  1.00  0.00     0.009 A 
HETATM   29  C17 UNL     1      22.825  -1.130  55.195  1.00  0.00     0.030 A 
ENDBRANCH  21  23
ENDBRANCH   1  21
TORSDOF 8
ENDMDL
MODEL 2
REMARK VINA RESULT:      -7.5      4.080      7.112
REMARK  8 active torsions:
REMARK  status: ('A' for Active; 'I' for Inactive)
REMARK    1  A    between atoms: C5_5  and  N1_6 
REMARK    2  A    between atoms: N1_6  and  C6_7 
REMARK    3  A    between atoms: N4_11  and  C8_12 
REMARK    4  A    between atoms: C8_12  and  P1_13 
REMARK    5  A    between atoms: P1_13  and  C9_14 
REMARK    6  A    between atoms: C9_14  and  C10_15 
REMARK    7  A    between atoms: C10_15  and  N5_16 
REMARK    8  A    between atoms: C13_19  and  N6_20 
ROOT
HETATM    1  C6  UNL     1      24.382   2.454  51.870  1.00  0.00     0.126 C 
HETATM    2  N2  UNL     1      23.859   3.174  52.731  1.00  0.00    -0.225 NA
HETATM    3  C7  UNL     1      23.465   4.504  52.792  1.00  0.00     0.257 C 
HETATM    4  N3  UNL     1      23.712   5.231  51.688  1.00  0.00    -0.158 NA
HETATM    5  N4  UNL     1      24.368   4.460  50.689  1.00  0.00    -0.226 N 
HETATM    6  C16 UNL     1      24.440   3.052  50.474  1.00  0.00     0.239 C 
ENDROOT
BRANCH   5   7
HETATM    7  C8  UNL     1      25.156   5.157  49.932  1.00  0.00    -0.022 C 
BRANCH   7   8
HETATM    8  P1  UNL     1      25.996   5.869  49.134  1.00  0.00    -0.033 P 
HETATM    9  H8  UNL     1      26.257   6.092  48.877  1.00  0.00     0.072 HD
BRANCH   8  10
HETATM   10  C9  UNL     1      27.512   7.133  47.759  1.00  0.00     0.065 C 
BRANCH  10  11
HETATM   11  C10 UNL     1      28.593   6.256  48.156  1.00  0.00     0.122 C 
BRANCH  11  12
HETATM   12  N5  UNL     1      29.897   6.529  47.714  1.00  0.00    -0.412 N 
HETATM   13  C11 UNL     1      30.324   7.880  47.664  1.00  0.00     0.119 C 
HETATM   14  C12 UNL     1      30.803   8.302  49.022  1.00  0.00     0.055 C 
HETATM   15  C13 UNL     1      31.916   7.409  49.449  1.00  0.00     0.221 C 
HETATM   16  C14 UNL     1      31.709   5.952  49.272  1.00  0.00     0.055 C 
HETATM   17  C15 UNL     1      30.910   5.582  48.052  1.00  0.00     0.119 C 
BRANCH  15  18
HETATM   18  N6  UNL     1      33.168   7.880  48.855  1.00  0.00     0.083 N 
HETATM   19  H18 UNL     1      33.955   7.614  49.487  1.00  0.00     0.313 HD
HETATM   20  H19 UNL     1      33.137   8.874  48.614  1.00  0.00     0.313 HD
ENDBRANCH  15  18
ENDBRANCH  11  12
ENDBRANCH  10  11
ENDBRANCH   8  10
ENDBRANCH   7   8
ENDBRANCH   5   7
BRANCH   1  21
HETATM   21  N1  UNL     1      24.757   1.104  51.936  1.00  0.00    -0.343 N 
HETATM   22  H6  UNL     1      24.082   0.374  51.634  1.00  0.00     0.167 HD
BRANCH  21  23
HETATM   23  C5  UNL     1      26.039   0.761  52.408  1.00  0.00     0.033 A 
HETATM   24  C4  UNL     1      27.093   1.519  52.787  1.00  0.00     0.030 A 
HETATM   25  C3  UNL     1      28.304   1.056  53.224  1.00  0.00     0.009 A 
HETATM   26  C2  UNL     1      28.507  -0.304  53.297  1.00  0.00    -0.062 A 
HETATM   27  C1  UNL     1      29.803  -0.861  53.765  1.00  0.00     0.048 C 
HETATM   28  C18 UNL     1      27.494  -1.142  52.933  1.00  0.00     0.009 A 
HETATM   29  C17 UNL     1      26.299  -0.611  52.503  1.00  0.00     0.030 A 
ENDBRANCH  21  23
ENDBRANCH   1  21
TORSDOF 8
ENDMDL
MODEL 3
REMARK VINA RESULT:      -7.5      5.103      7.705
REMARK  8 active torsions:
REMARK  status: ('A' for Active; 'I' for Inactive)
REMARK    1  A    between atoms: C5_5  and  N1_6 
REMARK    2  A    between atoms: N1_6  and  C6_7 
REMARK    3  A    between atoms: N4_11  and  C8_12 
REMARK    4  A    between atoms: C8_12  and  P1_13 
REMARK    5  A    between atoms: P1_13  and  C9_14 
REMARK    6  A    between atoms: C9_14  and  C10_15 
REMARK    7  A    between atoms: C10_15  and  N5_16 
REMARK    8  A    between atoms: C13_19  and  N6_20 
ROOT
HETATM    1  C6  UNL     1      25.622   3.556  50.988  1.00  0.00     0.126 C 
HETATM    2  N2  UNL     1      24.685   4.334  50.770  1.00  0.00    -0.225 NA
HETATM    3  C7  UNL     1      24.399   5.279  49.793  1.00  0.00     0.257 C 
HETATM    4  N3  UNL     1      25.346   5.441  48.852  1.00  0.00    -0.158 NA
HETATM    5  N4  UNL     1      26.473   4.607  49.093  1.00  0.00    -0.226 N 
HETATM    6  C16 UNL     1      26.619   3.408  49.850  1.00  0.00     0.239 C 
ENDROOT
BRANCH   5   7
HETATM    7  C8  UNL     1      27.590   5.112  48.670  1.00  0.00    -0.022 C 
BRANCH   7   8
HETATM    8  P1  UNL     1      28.752   5.664  48.230  1.00  0.00    -0.033 P 
HETATM    9  H8  UNL     1      29.115   5.840  48.086  1.00  0.00     0.072 HD
BRANCH   8  10
HETATM   10  C9  UNL     1      30.831   6.616  47.484  1.00  0.00     0.065 C 
BRANCH  10  11
HETATM   11  C10 UNL     1      31.480   5.336  47.681  1.00  0.00     0.122 C 
BRANCH  11  12
HETATM   12  N5  UNL     1      32.190   4.754  46.618  1.00  0.00    -0.412 N 
HETATM   13  C11 UNL     1      33.380   5.385  46.177  1.00  0.00     0.119 C 
HETATM   14  C12 UNL     1      34.525   4.955  47.047  1.00  0.00     0.055 C 
HETATM   15  C13 UNL     1      34.656   3.472  46.987  1.00  0.00     0.221 C 
HETATM   16  C14 UNL     1      33.410   2.685  47.140  1.00  0.00     0.055 C 
HETATM   17  C15 UNL     1      32.190   3.329  46.540  1.00  0.00     0.119 C 
BRANCH  15  18
HETATM   18  N6  UNL     1      35.417   3.103  45.792  1.00  0.00     0.083 N 
HETATM   19  H18 UNL     1      35.901   3.955  45.432  1.00  0.00     0.313 HD
HETATM   20  H19 UNL     1      34.845   2.617  45.098  1.00  0.00     0.313 HD
ENDBRANCH  15  18
ENDBRANCH  11  12
ENDBRANCH  10  11
ENDBRANCH   8  10
ENDBRANCH   7   8
ENDBRANCH   5   7
BRANCH   1  21
HETATM   21  N1  UNL     1      25.808   2.646  52.040  1.00  0.00    -0.343 N 
HETATM   22  H6  UNL     1      26.713   2.638  52.550  1.00  0.00     0.167 HD
BRANCH  21  23
HETATM   23  C5  UNL     1      24.768   1.764  52.387  1.00  0.00     0.033 A 
HETATM   24  C4  UNL     1      23.423   1.861  52.267  1.00  0.00     0.030 A 
HETATM   25  C3  UNL     1      22.508   0.922  52.657  1.00  0.00     0.009 A 
HETATM   26  C2  UNL     1      22.959  -0.245  53.231  1.00  0.00    -0.062 A 
HETATM   27  C1  UNL     1      22.008  -1.299  53.673  1.00  0.00     0.048 C 
HETATM   28  C18 UNL     1      24.302  -0.426  53.390  1.00  0.00     0.009 A 
HETATM   29  C17 UNL     1      25.170   0.558  52.975  1.00  0.00     0.030 A 
ENDBRANCH  21  23
ENDBRANCH   1  21
TORSDOF 8
ENDMDL
MODEL 4
REMARK VINA RESULT:      -7.5      4.483      7.271
REMARK  8 active torsions:
REMARK  status: ('A' for Active; 'I' for Inactive)
REMARK    1  A    between atoms: C5_5  and  N1_6 
REMARK    2  A    between atoms: N1_6  and  C6_7 
REMARK    3  A    between atoms: N4_11  and  C8_12 
REMARK    4  A    between atoms: C8_12  and  P1_13 
REMARK    5  A    between atoms: P1_13  and  C9_14 
REMARK    6  A    between atoms: C9_14  and  C10_15 
REMARK    7  A    between atoms: C10_15  and  N5_16 
REMARK    8  A    between atoms: C13_19  and  N6_20 
ROOT
HETATM    1  C6  UNL     1      25.290   2.837  51.818  1.00  0.00     0.126 C 
HETATM    2  N2  UNL     1      24.153   3.050  51.380  1.00  0.00    -0.225 NA
HETATM    3  C7  UNL     1      23.634   3.501  50.173  1.00  0.00     0.257 C 
HETATM    4  N3  UNL     1      24.544   3.818  49.235  1.00  0.00    -0.158 NA
HETATM    5  N4  UNL     1      25.872   3.645  49.714  1.00  0.00    -0.226 N 
HETATM    6  C16 UNL     1      26.400   2.858  50.780  1.00  0.00     0.239 C 
ENDROOT
BRANCH   5   7
HETATM    7  C8  UNL     1      26.725   4.461  49.179  1.00  0.00    -0.022 C 
BRANCH   7   8
HETATM    8  P1  UNL     1      27.619   5.305  48.597  1.00  0.00    -0.033 P 
HETATM    9  H8  UNL     1      27.899   5.576  48.419  1.00  0.00     0.072 HD
BRANCH   8  10
HETATM   10  C9  UNL     1      29.200   6.770  47.530  1.00  0.00     0.065 C 
BRANCH  10  11
HETATM   11  C10 UNL     1      28.442   7.914  47.993  1.00  0.00     0.122 C 
BRANCH  11  12
HETATM   12  N5  UNL     1      28.967   8.716  49.019  1.00  0.00    -0.412 N 
HETATM   13  C11 UNL     1      30.360   8.982  49.022  1.00  0.00     0.119 C 
HETATM   14  C12 UNL     1      30.650  10.135  48.107  1.00  0.00     0.055 C 
HETATM   15  C13 UNL     1      29.881  11.328  48.562  1.00  0.00     0.221 C 
HETATM   16  C14 UNL     1      28.450  11.116  48.884  1.00  0.00     0.055 C 
HETATM   17  C15 UNL     1      28.143   9.778  49.500  1.00  0.00     0.119 C 
BRANCH  15  18
HETATM   18  N6  UNL     1      30.613  11.992  49.641  1.00  0.00     0.083 N 
HETATM   19  H18 UNL     1      31.616  12.068  49.362  1.00  0.00     0.313 HD
HETATM   20  H19 UNL     1      30.459  11.548  50.550  1.00  0.00     0.313 HD
ENDBRANCH  15  18
ENDBRANCH  11  12
ENDBRANCH  10  11
ENDBRANCH   8  10
ENDBRANCH   7   8
ENDBRANCH   5   7
BRANCH   1  21
HETATM   21  N1  UNL     1      25.695   2.392  53.086  1.00  0.00    -0.343 N 
HETATM   22  H6  UNL     1      25.265   2.812  53.933  1.00  0.00     0.167 HD
BRANCH  21  23
HETATM   23  C5  UNL     1      26.674   1.386  53.189  1.00  0.00     0.033 A 
HETATM   24  C4  UNL     1      26.639   0.060  52.917  1.00  0.00     0.030 A 
HETATM   25  C3  UNL     1      27.672  -0.822  53.071  1.00  0.00     0.009 A 
HETATM   26  C2  UNL     1      28.878  -0.357  53.545  1.00  0.00    -0.062 A 
HETATM   27  C1  UNL     1      30.034  -1.273  53.731  1.00  0.00     0.048 C 
HETATM   28  C18 UNL     1      29.001   0.969  53.844  1.00  0.00     0.009 A 
HETATM   29  C17 UNL     1      27.922   1.804  53.666  1.00  0.00     0.030 A 
ENDBRANCH  21  23
ENDBRANCH   1  21
TORSDOF 8
ENDMDL
MODEL 5
REMARK VINA RESULT:      -7.4      4.695      7.840
REMARK  8 active torsions:
REMARK  status: ('A' for Active; 'I' for Inactive)
REMARK    1  A    between atoms: C5_5  and  N1_6 
REMARK    2  A    between atoms: N1_6  and  C6_7 
REMARK    3  A    between atoms: N4_11  and  C8_12 
REMARK    4  A    between atoms: C8_12  and  P1_13 
REMARK    5  A    between atoms: P1_13  and  C9_14 
REMARK    6  A    between atoms: C9_14  and  C10_15 
REMARK    7  A    between atoms: C10_15  and  N5_16 
REMARK    8  A    between atoms: C13_19  and  N6_20 
ROOT
HETATM    1  C6  UNL     1      25.272   2.908  51.762  1.00  0.00     0.126 C 
HETATM    2  N2  UNL     1      24.131   3.064  51.310  1.00  0.00    -0.225 NA
HETATM    3  C7  UNL     1      23.604   3.493  50.099  1.00  0.00     0.257 C 
HETATM    4  N3  UNL     1      24.508   3.860  49.173  1.00  0.00    -0.158 NA
HETATM    5  N4  UNL     1      25.837   3.754  49.668  1.00  0.00    -0.226 N 
HETATM    6  C16 UNL     1      26.391   2.990  50.737  1.00  0.00     0.239 C 
ENDROOT
BRANCH   5   7
HETATM    7  C8  UNL     1      26.653   4.615  49.146  1.00  0.00    -0.022 C 
BRANCH   7   8
HETATM    8  P1  UNL     1      27.506   5.507  48.577  1.00  0.00    -0.033 P 
HETATM    9  H8  UNL     1      27.778   5.790  48.404  1.00  0.00     0.072 HD
BRANCH   8  10
HETATM   10  C9  UNL     1      28.992   7.084  47.531  1.00  0.00     0.065 C 
BRANCH  10  11
HETATM   11  C10 UNL     1      30.126   6.317  48.002  1.00  0.00     0.122 C 
BRANCH  11  12
HETATM   12  N5  UNL     1      31.299   6.279  47.230  1.00  0.00    -0.412 N 
HETATM   13  C11 UNL     1      32.110   7.441  47.178  1.00  0.00     0.119 C 
HETATM   14  C12 UNL     1      33.016   7.471  48.374  1.00  0.00     0.055 C 
HETATM   15  C13 UNL     1      33.853   6.239  48.385  1.00  0.00     0.221 C 
HETATM   16  C14 UNL     1      33.154   4.954  48.149  1.00  0.00     0.055 C 
HETATM   17  C15 UNL     1      32.005   5.040  47.181  1.00  0.00     0.119 C 
BRANCH  15  18
HETATM   18  N6  UNL     1      35.004   6.429  47.501  1.00  0.00     0.083 N 
HETATM   19  H18 UNL     1      35.418   7.368  47.694  1.00  0.00     0.313 HD
HETATM   20  H19 UNL     1      34.774   6.262  46.518  1.00  0.00     0.313 HD
ENDBRANCH  15  18
ENDBRANCH  11  12
ENDBRANCH  10  11
ENDBRANCH   8  10
ENDBRANCH   7   8
ENDBRANCH   5   7
BRANCH   1  21
HETATM   21  N1  UNL     1      25.684   2.480  53.033  1.00  0.00    -0.343 N 
HETATM   22  H6  UNL     1      25.264   2.915  53.877  1.00  0.00     0.167 HD
BRANCH  21  23
HETATM   23  C5  UNL     1      26.658   1.468  53.143  1.00  0.00     0.033 A 
HETATM   24  C4  UNL     1      26.622   0.145  52.859  1.00  0.00     0.030 A 
HETATM   25  C3  UNL     1      27.648  -0.743  53.022  1.00  0.00     0.009 A 
HETATM   26  C2  UNL     1      28.847  -0.287  53.520  1.00  0.00    -0.062 A 
HETATM   27  C1  UNL     1      29.997  -1.209  53.717  1.00  0.00     0.048 C 
HETATM   28  C18 UNL     1      28.971   1.036  53.833  1.00  0.00     0.009 A 
HETATM   29  C17 UNL     1      27.899   1.877  53.645  1.00  0.00     0.030 A 
ENDBRANCH  21  23
ENDBRANCH   1  21
TORSDOF 8
ENDMDL
MODEL 6
REMARK VINA RESULT:      -7.4      2.981      5.854
REMARK  8 active torsions:
REMARK  status: ('A' for Active; 'I' for Inactive)
REMARK    1  A    between atoms: C5_5  and  N1_6 
REMARK    2  A    between atoms: N1_6  and  C6_7 
REMARK    3  A    between atoms: N4_11  and  C8_12 
REMARK    4  A    between atoms: C8_12  and  P1_13 
REMARK    5  A    between atoms: P1_13  and  C9_14 
REMARK    6  A    between atoms: C9_14  and  C10_15 
REMARK    7  A    between atoms: C10_15  and  N5_16 
REMARK    8  A    between atoms: C13_19  and  N6_20 
ROOT
HETATM    1  C6  UNL     1      23.493   0.232  53.131  1.00  0.00     0.126 C 
HETATM    2  N2  UNL     1      22.341  -0.040  52.769  1.00  0.00    -0.225 NA
HETATM    3  C7  UNL     1      21.449   0.492  51.847  1.00  0.00     0.257 C 
HETATM    4  N3  UNL     1      21.884   1.578  51.184  1.00  0.00    -0.158 NA
HETATM    5  N4  UNL     1      23.185   1.966  51.609  1.00  0.00    -0.226 N 
HETATM    6  C16 UNL     1      24.225   1.240  52.259  1.00  0.00     0.239 C 
ENDROOT
BRANCH   5   7
HETATM    7  C8  UNL     1      23.399   3.242  51.519  1.00  0.00    -0.022 C 
BRANCH   7   8
HETATM    8  P1  UNL     1      23.612   4.580  51.404  1.00  0.00    -0.033 P 
HETATM    9  H8  UNL     1      23.672   5.002  51.366  1.00  0.00     0.072 HD
BRANCH   8  10
HETATM   10  C9  UNL     1      24.035   6.939  51.202  1.00  0.00     0.065 C 
BRANCH  10  11
HETATM   11  C10 UNL     1      25.177   6.655  50.357  1.00  0.00     0.122 C 
BRANCH  11  12
HETATM   12  N5  UNL     1      25.518   7.558  49.337  1.00  0.00    -0.412 N 
HETATM   13  C11 UNL     1      25.729   8.917  49.682  1.00  0.00     0.119 C 
HETATM   14  C12 UNL     1      27.135   9.094  50.174  1.00  0.00     0.055 C 
HETATM   15  C13 UNL     1      28.085   8.662  49.111  1.00  0.00     0.221 C 
HETATM   16  C14 UNL     1      27.802   7.368  48.448  1.00  0.00     0.055 C 
HETATM   17  C15 UNL     1      26.338   7.063  48.279  1.00  0.00     0.119 C 
BRANCH  15  18
HETATM   18  N6  UNL     1      28.274   9.758  48.159  1.00  0.00     0.083 N 
HETATM   19  H18 UNL     1      29.296   9.862  47.973  1.00  0.00     0.313 HD
HETATM   20  H19 UNL     1      27.809  10.619  48.456  1.00  0.00     0.313 HD
ENDBRANCH  15  18
ENDBRANCH  11  12
ENDBRANCH  10  11
ENDBRANCH   8  10
ENDBRANCH   7   8
ENDBRANCH   5   7
BRANCH   1  21
HETATM   21  N1  UNL     1      24.297  -0.380  54.104  1.00  0.00    -0.343 N 
HETATM   22  H6  UNL     1      23.864  -0.701  54.992  1.00  0.00     0.167 HD
BRANCH  21  23
HETATM   23  C5  UNL     1      25.673  -0.550  53.862  1.00  0.00     0.033 A 
HETATM   24  C4  UNL     1      26.345  -1.290  52.949  1.00  0.00     0.030 A 
HETATM   25  C3  UNL     1      27.704  -1.376  52.822  1.00  0.00     0.009 A 
HETATM   26  C2  UNL     1      28.498  -0.658  53.688  1.00  0.00    -0.062 A 
HETATM   27  C1  UNL     1      29.980  -0.714  53.594  1.00  0.00     0.048 C 
HETATM   28  C18 UNL     1      27.902   0.117  54.640  1.00  0.00     0.009 A 
HETATM   29  C17 UNL     1      26.528   0.160  54.713  1.00  0.00     0.030 A 
ENDBRANCH  21  23
ENDBRANCH   1  21
TORSDOF 8
ENDMDL
MODEL 7
REMARK VINA RESULT:      -7.4      2.678      5.435
REMARK  8 active torsions:
REMARK  status: ('A' for Active; 'I' for Inactive)
REMARK    1  A    between atoms: C5_5  and  N1_6 
REMARK    2  A    between atoms: N1_6  and  C6_7 
REMARK    3  A    between atoms: N4_11  and  C8_12 
REMARK    4  A    between atoms: C8_12  and  P1_13 
REMARK    5  A    between atoms: P1_13  and  C9_14 
REMARK    6  A    between atoms: C9_14  and  C10_15 
REMARK    7  A    between atoms: C10_15  and  N5_16 
REMARK    8  A    between atoms: C13_19  and  N6_20 
ROOT
HETATM    1  C6  UNL     1      23.366   1.309  52.203  1.00  0.00     0.126 C 
HETATM    2  N2  UNL     1      22.338   0.619  52.162  1.00  0.00    -0.225 NA
HETATM    3  C7  UNL     1      21.374   0.350  51.200  1.00  0.00     0.257 C 
HETATM    4  N3  UNL     1      21.536   0.984  50.026  1.00  0.00    -0.158 NA
HETATM    5  N4  UNL     1      22.674   1.837  50.044  1.00  0.00    -0.226 N 
HETATM    6  C16 UNL     1      23.842   1.840  50.861  1.00  0.00     0.239 C 
ENDROOT
BRANCH   5   7
HETATM    7  C8  UNL     1      22.553   2.877  49.280  1.00  0.00    -0.022 C 
BRANCH   7   8
HETATM    8  P1  UNL     1      22.437   3.982  48.495  1.00  0.00    -0.033 P 
HETATM    9  H8  UNL     1      22.396   4.326  48.244  1.00  0.00     0.072 HD
BRANCH   8  10
HETATM   10  C9  UNL     1      22.268   5.954  47.130  1.00  0.00     0.065 C 
BRANCH  10  11
HETATM   11  C10 UNL     1      22.198   6.768  48.326  1.00  0.00     0.122 C 
BRANCH  11  12
HETATM   12  N5  UNL     1      23.280   7.600  48.655  1.00  0.00    -0.412 N 
HETATM   13  C11 UNL     1      23.391   8.067  49.989  1.00  0.00     0.119 C 
HETATM   14  C12 UNL     1      24.066   7.023  50.829  1.00  0.00     0.055 C 
HETATM   15  C13 UNL     1      25.409   6.727  50.257  1.00  0.00     0.221 C 
HETATM   16  C14 UNL     1      25.479   6.508  48.793  1.00  0.00     0.055 C 
HETATM   17  C15 UNL     1      24.520   7.347  47.993  1.00  0.00     0.119 C 
BRANCH  15  18
HETATM   18  N6  UNL     1      26.365   7.731  50.727  1.00  0.00     0.083 N 
HETATM   19  H18 UNL     1      27.025   7.948  49.948  1.00  0.00     0.313 HD
HETATM   20  H19 UNL     1      26.820   7.459  51.602  1.00  0.00     0.313 HD
ENDBRANCH  15  18
ENDBRANCH  11  12
ENDBRANCH  10  11
ENDBRANCH   8  10
ENDBRANCH   7   8
ENDBRANCH   5   7
BRANCH   1  21
HETATM   21  N1  UNL     1      24.264   1.520  53.259  1.00  0.00    -0.343 N 
HETATM   22  H6  UNL     1      24.010   2.182  54.018  1.00  0.00     0.167 HD
BRANCH  21  23
HETATM   23  C5  UNL     1      25.492   0.831  53.275  1.00  0.00     0.033 A 
HETATM   24  C4  UNL     1      25.817  -0.443  52.957  1.00  0.00     0.030 A 
HETATM   25  C3  UNL     1      27.064  -0.999  53.025  1.00  0.00     0.009 A 
HETATM   26  C2  UNL     1      28.115  -0.220  53.454  1.00  0.00    -0.062 A 
HETATM   27  C1  UNL     1      29.492  -0.773  53.546  1.00  0.00     0.048 C 
HETATM   28  C18 UNL     1      27.876   1.080  53.794  1.00  0.00     0.009 A 
HETATM   29  C17 UNL     1      26.597   1.577  53.702  1.00  0.00     0.030 A 
ENDBRANCH  21  23
ENDBRANCH   1  21
TORSDOF 8
ENDMDL
MODEL 8
REMARK VINA RESULT:      -7.1      6.608     10.666
REMARK  8 active torsions:
REMARK  status: ('A' for Active; 'I' for Inactive)
REMARK    1  A    between atoms: C5_5  and  N1_6 
REMARK    2  A    between atoms: N1_6  and  C6_7 
REMARK    3  A    between atoms: N4_11  and  C8_12 
REMARK    4  A    between atoms: C8_12  and  P1_13 
REMARK    5  A    between atoms: P1_13  and  C9_14 
REMARK    6  A    between atoms: C9_14  and  C10_15 
REMARK    7  A    between atoms: C10_15  and  N5_16 
REMARK    8  A    between atoms: C13_19  and  N6_20 
ROOT
HETATM    1  C6  UNL     1      27.455   9.170  47.744  1.00  0.00     0.126 C 
HETATM    2  N2  UNL     1      27.453  10.052  48.612  1.00  0.00    -0.225 NA
HETATM    3  C7  UNL     1      28.388  10.960  49.093  1.00  0.00     0.257 C 
HETATM    4  N3  UNL     1      29.607  10.885  48.530  1.00  0.00    -0.158 NA
HETATM    5  N4  UNL     1      29.676   9.844  47.564  1.00  0.00    -0.226 N 
HETATM    6  C16 UNL     1      28.661   9.174  46.819  1.00  0.00     0.239 C 
ENDROOT
BRANCH   5   7
HETATM    7  C8  UNL     1      30.855   9.316  47.457  1.00  0.00    -0.022 C 
BRANCH   7   8
HETATM    8  P1  UNL     1      32.083   8.745  47.329  1.00  0.00    -0.033 P 
HETATM    9  H8  UNL     1      32.469   8.566  47.282  1.00  0.00     0.072 HD
BRANCH   8  10
HETATM   10  C9  UNL     1      34.252   7.722  47.149  1.00  0.00     0.065 C 
BRANCH  10  11
HETATM   11  C10 UNL     1      33.621   6.438  46.926  1.00  0.00     0.122 C 
BRANCH  11  12
HETATM   12  N5  UNL     1      33.591   5.497  47.967  1.00  0.00    -0.412 N 
HETATM   13  C11 UNL     1      32.394   4.767  48.182  1.00  0.00     0.119 C 
HETATM   14  C12 UNL     1      32.354   3.591  47.251  1.00  0.00     0.055 C 
HETATM   15  C13 UNL     1      33.549   2.734  47.491  1.00  0.00     0.221 C 
HETATM   16  C14 UNL     1      34.857   3.425  47.587  1.00  0.00     0.055 C 
HETATM   17  C15 UNL     1      34.797   4.782  48.233  1.00  0.00     0.119 C 
BRANCH  15  18
HETATM   18  N6  UNL     1      33.290   1.850  48.628  1.00  0.00     0.083 N 
HETATM   19  H18 UNL     1      33.109   0.889  48.265  1.00  0.00     0.313 HD
HETATM   20  H19 UNL     1      32.559   2.213  49.247  1.00  0.00     0.313 HD
ENDBRANCH  15  18
ENDBRANCH  11  12
ENDBRANCH  10  11
ENDBRANCH   8  10
ENDBRANCH   7   8
ENDBRANCH   5   7
BRANCH   1  21
HETATM   21  N1  UNL     1      26.435   8.288  47.357  1.00  0.00    -0.343 N 
HETATM   22  H6  UNL     1      25.776   8.571  46.606  1.00  0.00     0.167 HD
BRANCH  21  23
HETATM   23  C5  UNL     1      26.322   7.036  47.992  1.00  0.00     0.033 A 
HETATM   24  C4  UNL     1      25.262   6.390  48.531  1.00  0.00     0.030 A 
HETATM   25  C3  UNL     1      25.287   5.163  49.135  1.00  0.00     0.009 A 
HETATM   26  C2  UNL     1      26.485   4.491  49.221  1.00  0.00    -0.062 A 
HETATM   27  C1  UNL     1      26.570   3.154  49.866  1.00  0.00     0.048 C 
HETATM   28  C18 UNL     1      27.606   5.070  48.701  1.00  0.00     0.009 A 
HETATM   29  C17 UNL     1      27.512   6.308  48.106  1.00  0.00     0.030 A 
ENDBRANCH  21  23
ENDBRANCH   1  21
TORSDOF 8
ENDMDL
MODEL 9
REMARK VINA RESULT:      -7.0      4.663      7.106
REMARK  8 active torsions:
REMARK  status: ('A' for Active; 'I' for Inactive)
REMARK    1  A    between atoms: C5_5  and  N1_6 
REMARK    2  A    between atoms: N1_6  and  C6_7 
REMARK    3  A    between atoms: N4_11  and  C8_12 
REMARK    4  A    between atoms: C8_12  and  P1_13 
REMARK    5  A    between atoms: P1_13  and  C9_14 
REMARK    6  A    between atoms: C9_14  and  C10_15 
REMARK    7  A    between atoms: C10_15  and  N5_16 
REMARK    8  A    between atoms: C13_19  and  N6_20 
ROOT
HETATM    1  C6  UNL     1      22.947   0.507  53.206  1.00  0.00     0.126 C 
HETATM    2  N2  UNL     1      22.617  -0.109  54.227  1.00  0.00    -0.225 NA
HETATM    3  C7  UNL     1      21.510  -0.856  54.609  1.00  0.00     0.257 C 
HETATM    4  N3  UNL     1      20.526  -0.938  53.696  1.00  0.00    -0.158 NA
HETATM    5  N4  UNL     1      20.835  -0.194  52.524  1.00  0.00    -0.226 N 
HETATM    6  C16 UNL     1      22.078   0.252  51.986  1.00  0.00     0.239 C 
ENDROOT
BRANCH   5   7
HETATM    7  C8  UNL     1      19.790   0.283  51.924  1.00  0.00    -0.022 C 
BRANCH   7   8
HETATM    8  P1  UNL     1      18.685   0.790  51.316  1.00  0.00    -0.033 P 
HETATM    9  H8  UNL     1      18.333   0.944  51.126  1.00  0.00     0.072 HD
BRANCH   8  10
HETATM   10  C9  UNL     1      16.756   1.720  50.220  1.00  0.00     0.065 C 
BRANCH  10  11
HETATM   11  C10 UNL     1      16.365   2.355  51.461  1.00  0.00     0.122 C 
BRANCH  11  12
HETATM   12  N5  UNL     1      15.565   3.508  51.421  1.00  0.00    -0.412 N 
HETATM   13  C11 UNL     1      14.339   3.454  50.710  1.00  0.00     0.119 C 
HETATM   14  C12 UNL     1      13.276   2.867  51.591  1.00  0.00     0.055 C 
HETATM   15  C13 UNL     1      13.141   3.700  52.819  1.00  0.00     0.221 C 
HETATM   16  C14 UNL     1      14.396   4.083  53.506  1.00  0.00     0.055 C 
HETATM   17  C15 UNL     1      15.558   4.335  52.584  1.00  0.00     0.119 C 
BRANCH  15  18
HETATM   18  N6  UNL     1      12.278   4.846  52.532  1.00  0.00     0.083 N 
HETATM   19  H18 UNL     1      11.290   4.576  52.734  1.00  0.00     0.313 HD
HETATM   20  H19 UNL     1      12.429   5.224  51.593  1.00  0.00     0.313 HD
ENDBRANCH  15  18
ENDBRANCH  11  12
ENDBRANCH  10  11
ENDBRANCH   8  10
ENDBRANCH   7   8
ENDBRANCH   5   7
BRANCH   1  21
HETATM   21  N1  UNL     1      24.106   1.254  52.944  1.00  0.00    -0.343 N 
HETATM   22  H6  UNL     1      24.015   2.250  52.662  1.00  0.00     0.167 HD
BRANCH  21  23
HETATM   23  C5  UNL     1      25.368   0.644  53.067  1.00  0.00     0.033 A 
HETATM   24  C4  UNL     1      25.898  -0.461  52.492  1.00  0.00     0.030 A 
HETATM   25  C3  UNL     1      27.153  -0.960  52.706  1.00  0.00     0.009 A 
HETATM   26  C2  UNL     1      27.986  -0.304  53.584  1.00  0.00    -0.062 A 
HETATM   27  C1  UNL     1      29.361  -0.802  53.854  1.00  0.00     0.048 C 
HETATM   28  C18 UNL     1      27.532   0.821  54.208  1.00  0.00     0.009 A 
HETATM   29  C17 UNL     1      26.258   1.271  53.948  1.00  0.00     0.030 A 
ENDBRANCH  21  23
ENDBRANCH   1  21
TORSDOF 8
ENDMDL
