MODEL 1
REMARK VINA RESULT:      -9.4      0.000      0.000
REMARK  5 active torsions:
REMARK  status: ('A' for Active; 'I' for Inactive)
REMARK    1  A    between atoms: C7_12  and  C8_13 
REMARK    2  A    between atoms: C8_13  and  C9_14 
REMARK    3  A    between atoms: C10_15  and  C12_17 
REMARK    4  A    between atoms: C12_17  and  O2_18 
REMARK    5  A    between atoms: C12_17  and  C13_19 
ROOT
HETATM    1  C1  UNL     1      21.442  -1.253  54.229  1.00  0.00     0.044 C 
HETATM    2  C2  UNL     1      22.779  -0.598  53.847  1.00  0.00    -0.077 C 
HETATM    3  C3  UNL     1      23.890  -0.867  54.592  1.00  0.00    -0.001 C 
HETATM    4  C4  UNL     1      25.209  -1.011  55.246  1.00  0.00     0.201 C 
HETATM    5  N1  UNL     1      26.254  -0.314  54.705  1.00  0.00    -0.193 NA
HETATM    6  N2  UNL     1      27.436  -0.104  54.949  1.00  0.00    -0.178 NA
HETATM    7  C5  UNL     1      28.230   0.764  54.037  1.00  0.00     0.299 C 
HETATM    8  N3  UNL     1      27.294   1.228  53.081  1.00  0.00    -0.323 N 
HETATM    9  C6  UNL     1      26.402   1.689  52.148  1.00  0.00     0.322 C 
HETATM   10  O1  UNL     1      26.847   2.407  51.332  1.00  0.00    -0.247 OA
HETATM   11  N4  UNL     1      25.119   1.710  51.669  1.00  0.00    -0.309 N 
HETATM   12  C7  UNL     1      23.815   1.732  51.180  1.00  0.00     0.033 C 
HETATM   13  C19 UNL     1      22.599   1.031  51.655  1.00  0.00     0.013 C 
HETATM   14  C20 UNL     1      23.010   0.318  52.735  1.00  0.00     0.050 C 
HETATM   15  H9  UNL     1      26.452   0.780  53.418  1.00  0.00     0.166 HD
HETATM   16  H10 UNL     1      24.788   1.091  52.394  1.00  0.00     0.170 HD
ENDROOT
BRANCH  12  17
HETATM   17  C8  UNL     1      23.823   2.509  50.164  1.00  0.00     0.029 C 
BRANCH  17  18
HETATM   18  C9  UNL     1      23.687   3.668  49.392  1.00  0.00     0.007 C 
HETATM   19  C10 UNL     1      23.965   4.909  49.150  1.00  0.00    -0.051 C 
HETATM   20  C11 UNL     1      23.380   5.608  47.987  1.00  0.00     0.046 C 
BRANCH  19  21
HETATM   21  C12 UNL     1      24.885   5.650  50.042  1.00  0.00     0.180 C 
BRANCH  21  22
HETATM   22  O2  UNL     1      25.116   4.955  51.211  1.00  0.00    -0.387 OA
HETATM   23  H17 UNL     1      25.877   4.343  51.062  1.00  0.00     0.210 HD
ENDBRANCH  21  22
BRANCH  21  24
HETATM   24  C13 UNL     1      26.183   5.842  49.317  1.00  0.00    -0.025 A 
HETATM   25  C14 UNL     1      27.069   4.796  49.046  1.00  0.00     0.010 A 
HETATM   26  C15 UNL     1      28.255   5.053  48.364  1.00  0.00     0.001 A 
HETATM   27  C16 UNL     1      28.593   6.321  47.939  1.00  0.00     0.000 A 
HETATM   28  C17 UNL     1      27.710   7.369  48.208  1.00  0.00     0.001 A 
HETATM   29  C18 UNL     1      26.545   7.093  48.883  1.00  0.00     0.010 A 
ENDBRANCH  21  24
ENDBRANCH  19  21
ENDBRANCH  17  18
ENDBRANCH  12  17
TORSDOF 5
ENDMDL
MODEL 2
REMARK VINA RESULT:      -9.1      1.525      2.547
REMARK  5 active torsions:
REMARK  status: ('A' for Active; 'I' for Inactive)
REMARK    1  A    between atoms: C7_12  and  C8_13 
REMARK    2  A    between atoms: C8_13  and  C9_14 
REMARK    3  A    between atoms: C10_15  and  C12_17 
REMARK    4  A    between atoms: C12_17  and  O2_18 
REMARK    5  A    between atoms: C12_17  and  C13_19 
ROOT
HETATM    1  C1  UNL     1      21.390  -0.146  52.689  1.00  0.00     0.044 C 
HETATM    2  C2  UNL     1      22.876   0.226  52.826  1.00  0.00    -0.077 C 
HETATM    3  C3  UNL     1      23.624  -0.368  53.800  1.00  0.00    -0.001 C 
HETATM    4  C4  UNL     1      24.618  -0.877  54.769  1.00  0.00     0.201 C 
HETATM    5  N1  UNL     1      25.890  -0.382  54.680  1.00  0.00    -0.193 NA
HETATM    6  N2  UNL     1      26.951  -0.474  55.284  1.00  0.00    -0.178 NA
HETATM    7  C5  UNL     1      28.137   0.285  54.803  1.00  0.00     0.299 C 
HETATM    8  N3  UNL     1      27.654   1.051  53.715  1.00  0.00    -0.323 N 
HETATM    9  C6  UNL     1      27.204   1.801  52.659  1.00  0.00     0.322 C 
HETATM   10  O1  UNL     1      28.008   2.484  52.143  1.00  0.00    -0.247 OA
HETATM   11  N4  UNL     1      26.166   2.165  51.844  1.00  0.00    -0.309 N 
HETATM   12  C7  UNL     1      25.110   2.536  51.013  1.00  0.00     0.033 C 
HETATM   13  C19 UNL     1      23.700   2.082  50.991  1.00  0.00     0.013 C 
HETATM   14  C20 UNL     1      23.610   1.181  52.002  1.00  0.00     0.050 C 
HETATM   15  H9  UNL     1      26.682   0.772  53.713  1.00  0.00     0.166 HD
HETATM   16  H10 UNL     1      25.514   1.562  52.326  1.00  0.00     0.170 HD
ENDROOT
BRANCH  12  17
HETATM   17  C8  UNL     1      25.582   3.396  50.192  1.00  0.00     0.029 C 
BRANCH  17  18
HETATM   18  C9  UNL     1      26.506   4.184  49.498  1.00  0.00     0.007 C 
HETATM   19  C10 UNL     1      26.941   5.336  49.098  1.00  0.00    -0.051 C 
HETATM   20  C11 UNL     1      28.159   5.445  48.269  1.00  0.00     0.046 C 
BRANCH  19  21
HETATM   21  C12 UNL     1      26.219   6.573  49.476  1.00  0.00     0.180 C 
BRANCH  21  22
HETATM   22  O2  UNL     1      27.098   7.599  49.757  1.00  0.00    -0.387 OA
HETATM   23  H17 UNL     1      27.444   7.467  50.673  1.00  0.00     0.210 HD
ENDBRANCH  21  22
BRANCH  21  24
HETATM   24  C13 UNL     1      25.346   6.972  48.325  1.00  0.00    -0.025 A 
HETATM   25  C14 UNL     1      24.048   6.484  48.146  1.00  0.00     0.010 A 
HETATM   26  C15 UNL     1      23.296   6.903  47.052  1.00  0.00     0.001 A 
HETATM   27  C16 UNL     1      23.792   7.796  46.125  1.00  0.00     0.000 A 
HETATM   28  C17 UNL     1      25.087   8.285  46.300  1.00  0.00     0.001 A 
HETATM   29  C18 UNL     1      25.812   7.858  47.386  1.00  0.00     0.010 A 
ENDBRANCH  21  24
ENDBRANCH  19  21
ENDBRANCH  17  18
ENDBRANCH  12  17
TORSDOF 5
ENDMDL
MODEL 3
REMARK VINA RESULT:      -8.8      1.647      3.252
REMARK  5 active torsions:
REMARK  status: ('A' for Active; 'I' for Inactive)
REMARK    1  A    between atoms: C7_12  and  C8_13 
REMARK    2  A    between atoms: C8_13  and  C9_14 
REMARK    3  A    between atoms: C10_15  and  C12_17 
REMARK    4  A    between atoms: C12_17  and  O2_18 
REMARK    5  A    between atoms: C12_17  and  C13_19 
ROOT
HETATM    1  C1  UNL     1      21.718  -0.139  52.516  1.00  0.00     0.044 C 
HETATM    2  C2  UNL     1      23.188   0.256  52.727  1.00  0.00    -0.077 C 
HETATM    3  C3  UNL     1      23.901  -0.339  53.726  1.00  0.00    -0.001 C 
HETATM    4  C4  UNL     1      24.858  -0.845  54.734  1.00  0.00     0.201 C 
HETATM    5  N1  UNL     1      26.124  -0.326  54.711  1.00  0.00    -0.193 NA
HETATM    6  N2  UNL     1      27.157  -0.409  55.363  1.00  0.00    -0.178 NA
HETATM    7  C5  UNL     1      28.351   0.378  54.948  1.00  0.00     0.299 C 
HETATM    8  N3  UNL     1      27.905   1.151  53.849  1.00  0.00    -0.323 N 
HETATM    9  C6  UNL     1      27.490   1.909  52.784  1.00  0.00     0.322 C 
HETATM   10  O1  UNL     1      28.305   2.612  52.315  1.00  0.00    -0.247 OA
HETATM   11  N4  UNL     1      26.485   2.266  51.926  1.00  0.00    -0.309 N 
HETATM   12  C7  UNL     1      25.463   2.631  51.053  1.00  0.00     0.033 C 
HETATM   13  C19 UNL     1      24.063   2.153  50.958  1.00  0.00     0.013 C 
HETATM   14  C20 UNL     1      23.943   1.236  51.952  1.00  0.00     0.050 C 
HETATM   15  H9  UNL     1      26.939   0.855  53.798  1.00  0.00     0.166 HD
HETATM   16  H10 UNL     1      25.823   1.645  52.369  1.00  0.00     0.170 HD
ENDROOT
BRANCH  12  17
HETATM   17  C8  UNL     1      25.956   3.511  50.266  1.00  0.00     0.029 C 
BRANCH  17  18
HETATM   18  C9  UNL     1      26.106   4.710  49.562  1.00  0.00     0.007 C 
HETATM   19  C10 UNL     1      25.895   5.980  49.425  1.00  0.00    -0.051 C 
HETATM   20  C11 UNL     1      26.429   6.721  48.263  1.00  0.00     0.046 C 
BRANCH  19  21
HETATM   21  C12 UNL     1      25.111   6.715  50.444  1.00  0.00     0.180 C 
BRANCH  21  22
HETATM   22  O2  UNL     1      25.016   8.056  50.131  1.00  0.00    -0.387 OA
HETATM   23  H17 UNL     1      25.788   8.522  50.534  1.00  0.00     0.210 HD
ENDBRANCH  21  22
BRANCH  21  24
HETATM   24  C13 UNL     1      23.736   6.120  50.492  1.00  0.00    -0.025 A 
HETATM   25  C14 UNL     1      22.910   6.013  49.370  1.00  0.00     0.010 A 
HETATM   26  C15 UNL     1      21.646   5.445  49.493  1.00  0.00     0.001 A 
HETATM   27  C16 UNL     1      21.170   4.977  50.700  1.00  0.00     0.000 A 
HETATM   28  C17 UNL     1      21.992   5.083  51.824  1.00  0.00     0.001 A 
HETATM   29  C18 UNL     1      23.236   5.647  51.680  1.00  0.00     0.010 A 
ENDBRANCH  21  24
ENDBRANCH  19  21
ENDBRANCH  17  18
ENDBRANCH  12  17
TORSDOF 5
ENDMDL
MODEL 4
REMARK VINA RESULT:      -8.7      3.912      6.385
REMARK  5 active torsions:
REMARK  status: ('A' for Active; 'I' for Inactive)
REMARK    1  A    between atoms: C7_12  and  C8_13 
REMARK    2  A    between atoms: C8_13  and  C9_14 
REMARK    3  A    between atoms: C10_15  and  C12_17 
REMARK    4  A    between atoms: C12_17  and  O2_18 
REMARK    5  A    between atoms: C12_17  and  C13_19 
ROOT
HETATM    1  C1  UNL     1      19.883   2.114  48.801  1.00  0.00     0.044 C 
HETATM    2  C2  UNL     1      19.853   1.198  50.035  1.00  0.00    -0.077 C 
HETATM    3  C3  UNL     1      18.690   0.570  50.373  1.00  0.00    -0.001 C 
HETATM    4  C4  UNL     1      17.556  -0.203  50.922  1.00  0.00     0.201 C 
HETATM    5  N1  UNL     1      17.793  -0.950  52.043  1.00  0.00    -0.193 NA
HETATM    6  N2  UNL     1      17.163  -1.653  52.823  1.00  0.00    -0.178 NA
HETATM    7  C5  UNL     1      17.869  -2.302  53.961  1.00  0.00     0.299 C 
HETATM    8  N3  UNL     1      19.198  -1.820  53.878  1.00  0.00    -0.323 N 
HETATM    9  C6  UNL     1      20.489  -1.364  53.814  1.00  0.00     0.322 C 
HETATM   10  O1  UNL     1      21.212  -1.766  54.647  1.00  0.00    -0.247 OA
HETATM   11  N4  UNL     1      21.424  -0.591  53.179  1.00  0.00    -0.309 N 
HETATM   12  C7  UNL     1      22.377   0.196  52.535  1.00  0.00     0.033 C 
HETATM   13  C19 UNL     1      22.264   1.040  51.322  1.00  0.00     0.013 C 
HETATM   14  C20 UNL     1      20.972   0.910  50.928  1.00  0.00     0.050 C 
HETATM   15  H9  UNL     1      19.123  -1.215  53.071  1.00  0.00     0.166 HD
HETATM   16  H10 UNL     1      20.761  -0.273  52.487  1.00  0.00     0.170 HD
ENDROOT
BRANCH  12  17
HETATM   17  C8  UNL     1      23.464   0.062  53.196  1.00  0.00     0.029 C 
BRANCH  17  18
HETATM   18  C9  UNL     1      24.831   0.049  53.493  1.00  0.00     0.007 C 
HETATM   19  C10 UNL     1      25.947   0.663  53.727  1.00  0.00    -0.051 C 
HETATM   20  C11 UNL     1      27.186  -0.090  54.007  1.00  0.00     0.046 C 
BRANCH  19  21
HETATM   21  C12 UNL     1      25.994   2.143  53.720  1.00  0.00     0.180 C 
BRANCH  21  22
HETATM   22  O2  UNL     1      27.212   2.606  54.174  1.00  0.00    -0.387 OA
HETATM   23  H17 UNL     1      27.095   2.928  55.100  1.00  0.00     0.210 HD
ENDBRANCH  21  22
BRANCH  21  24
HETATM   24  C13 UNL     1      25.781   2.610  52.312  1.00  0.00    -0.025 A 
HETATM   25  C14 UNL     1      26.654   2.301  51.264  1.00  0.00     0.010 A 
HETATM   26  C15 UNL     1      26.387   2.768  49.981  1.00  0.00     0.001 A 
HETATM   27  C16 UNL     1      25.276   3.537  49.700  1.00  0.00     0.000 A 
HETATM   28  C17 UNL     1      24.402   3.848  50.744  1.00  0.00     0.001 A 
HETATM   29  C18 UNL     1      24.685   3.376  52.003  1.00  0.00     0.010 A 
ENDBRANCH  21  24
ENDBRANCH  19  21
ENDBRANCH  17  18
ENDBRANCH  12  17
TORSDOF 5
ENDMDL
MODEL 5
REMARK VINA RESULT:      -8.6      2.034      3.291
REMARK  5 active torsions:
REMARK  status: ('A' for Active; 'I' for Inactive)
REMARK    1  A    between atoms: C7_12  and  C8_13 
REMARK    2  A    between atoms: C8_13  and  C9_14 
REMARK    3  A    between atoms: C10_15  and  C12_17 
REMARK    4  A    between atoms: C12_17  and  O2_18 
REMARK    5  A    between atoms: C12_17  and  C13_19 
ROOT
HETATM    1  C1  UNL     1      27.657   0.448  54.290  1.00  0.00     0.044 C 
HETATM    2  C2  UNL     1      26.161   0.316  53.962  1.00  0.00    -0.077 C 
HETATM    3  C3  UNL     1      25.379  -0.494  54.732  1.00  0.00    -0.001 C 
HETATM    4  C4  UNL     1      24.350  -1.304  55.420  1.00  0.00     0.201 C 
HETATM    5  N1  UNL     1      23.076  -1.247  54.927  1.00  0.00    -0.193 NA
HETATM    6  N2  UNL     1      21.990  -1.773  55.137  1.00  0.00    -0.178 NA
HETATM    7  C5  UNL     1      20.815  -1.385  54.311  1.00  0.00     0.299 C 
HETATM    8  N3  UNL     1      21.334  -0.482  53.352  1.00  0.00    -0.323 N 
HETATM    9  C6  UNL     1      21.820   0.393  52.415  1.00  0.00     0.322 C 
HETATM   10  O1  UNL     1      21.030   0.811  51.654  1.00  0.00    -0.247 OA
HETATM   11  N4  UNL     1      22.888   1.076  51.898  1.00  0.00    -0.309 N 
HETATM   12  C7  UNL     1      23.974   1.772  51.371  1.00  0.00     0.033 C 
HETATM   13  C19 UNL     1      25.391   1.811  51.802  1.00  0.00     0.013 C 
HETATM   14  C20 UNL     1      25.450   0.981  52.875  1.00  0.00     0.050 C 
HETATM   15  H9  UNL     1      22.310  -0.475  53.618  1.00  0.00     0.166 HD
HETATM   16  H10 UNL     1      23.526   0.684  52.575  1.00  0.00     0.170 HD
ENDROOT
BRANCH  12  17
HETATM   17  C8  UNL     1      23.526   2.440  50.376  1.00  0.00     0.029 C 
BRANCH  17  18
HETATM   18  C9  UNL     1      23.349   3.490  49.468  1.00  0.00     0.007 C 
HETATM   19  C10 UNL     1      23.553   4.712  49.093  1.00  0.00    -0.051 C 
HETATM   20  C11 UNL     1      22.978   5.229  47.834  1.00  0.00     0.046 C 
BRANCH  19  21
HETATM   21  C12 UNL     1      24.378   5.616  49.927  1.00  0.00     0.180 C 
BRANCH  21  22
HETATM   22  O2  UNL     1      24.453   5.164  51.229  1.00  0.00    -0.387 OA
HETATM   23  H17 UNL     1      25.161   5.674  51.692  1.00  0.00     0.210 HD
ENDBRANCH  21  22
BRANCH  21  24
HETATM   24  C13 UNL     1      25.756   5.664  49.339  1.00  0.00    -0.025 A 
HETATM   25  C14 UNL     1      26.577   4.539  49.225  1.00  0.00     0.010 A 
HETATM   26  C15 UNL     1      27.845   4.662  48.664  1.00  0.00     0.001 A 
HETATM   27  C16 UNL     1      28.328   5.872  48.211  1.00  0.00     0.000 A 
HETATM   28  C17 UNL     1      27.511   6.999  48.324  1.00  0.00     0.001 A 
HETATM   29  C18 UNL     1      26.263   6.854  48.881  1.00  0.00     0.010 A 
ENDBRANCH  21  24
ENDBRANCH  19  21
ENDBRANCH  17  18
ENDBRANCH  12  17
TORSDOF 5
ENDMDL
MODEL 6
REMARK VINA RESULT:      -8.5      1.374      2.425
REMARK  5 active torsions:
REMARK  status: ('A' for Active; 'I' for Inactive)
REMARK    1  A    between atoms: C7_12  and  C8_13 
REMARK    2  A    between atoms: C8_13  and  C9_14 
REMARK    3  A    between atoms: C10_15  and  C12_17 
REMARK    4  A    between atoms: C12_17  and  O2_18 
REMARK    5  A    between atoms: C12_17  and  C13_19 
ROOT
HETATM    1  C1  UNL     1      21.154   0.179  52.187  1.00  0.00     0.044 C 
HETATM    2  C2  UNL     1      22.645   0.471  52.424  1.00  0.00    -0.077 C 
HETATM    3  C3  UNL     1      23.293  -0.159  53.445  1.00  0.00    -0.001 C 
HETATM    4  C4  UNL     1      24.190  -0.718  54.480  1.00  0.00     0.201 C 
HETATM    5  N1  UNL     1      25.490  -0.292  54.476  1.00  0.00    -0.193 NA
HETATM    6  N2  UNL     1      26.502  -0.439  55.151  1.00  0.00    -0.178 NA
HETATM    7  C5  UNL     1      27.757   0.254  54.751  1.00  0.00     0.299 C 
HETATM    8  N3  UNL     1      27.390   1.041  53.633  1.00  0.00    -0.323 N 
HETATM    9  C6  UNL     1      27.053   1.811  52.550  1.00  0.00     0.322 C 
HETATM   10  O1  UNL     1      27.925   2.448  52.089  1.00  0.00    -0.247 OA
HETATM   11  N4  UNL     1      26.093   2.227  51.667  1.00  0.00    -0.309 N 
HETATM   12  C7  UNL     1      25.117   2.652  50.767  1.00  0.00     0.033 C 
HETATM   13  C19 UNL     1      23.690   2.274  50.649  1.00  0.00     0.013 C 
HETATM   14  C20 UNL     1      23.483   1.382  51.652  1.00  0.00     0.050 C 
HETATM   15  H9  UNL     1      26.407   0.815  53.566  1.00  0.00     0.166 HD
HETATM   16  H10 UNL     1      25.379   1.662  52.103  1.00  0.00     0.170 HD
ENDROOT
BRANCH  12  17
HETATM   17  C8  UNL     1      25.689   3.483  49.980  1.00  0.00     0.029 C 
BRANCH  17  18
HETATM   18  C9  UNL     1      26.697   4.226  49.358  1.00  0.00     0.007 C 
HETATM   19  C10 UNL     1      27.179   5.349  48.928  1.00  0.00    -0.051 C 
HETATM   20  C11 UNL     1      28.501   5.409  48.271  1.00  0.00     0.046 C 
BRANCH  19  21
HETATM   21  C12 UNL     1      26.406   6.600  49.097  1.00  0.00     0.180 C 
BRANCH  21  22
HETATM   22  O2  UNL     1      26.228   6.902  50.432  1.00  0.00    -0.387 OA
HETATM   23  H17 UNL     1      25.264   7.043  50.591  1.00  0.00     0.210 HD
ENDBRANCH  21  22
BRANCH  21  24
HETATM   24  C13 UNL     1      27.166   7.710  48.436  1.00  0.00    -0.025 A 
HETATM   25  C14 UNL     1      28.018   8.572  49.132  1.00  0.00     0.010 A 
HETATM   26  C15 UNL     1      28.694   9.579  48.448  1.00  0.00     0.001 A 
HETATM   27  C16 UNL     1      28.550   9.760  47.088  1.00  0.00     0.000 A 
HETATM   28  C17 UNL     1      27.699   8.901  46.389  1.00  0.00     0.001 A 
HETATM   29  C18 UNL     1      27.042   7.914  47.084  1.00  0.00     0.010 A 
ENDBRANCH  21  24
ENDBRANCH  19  21
ENDBRANCH  17  18
ENDBRANCH  12  17
TORSDOF 5
ENDMDL
MODEL 7
REMARK VINA RESULT:      -8.1      3.839      6.372
REMARK  5 active torsions:
REMARK  status: ('A' for Active; 'I' for Inactive)
REMARK    1  A    between atoms: C7_12  and  C8_13 
REMARK    2  A    between atoms: C8_13  and  C9_14 
REMARK    3  A    between atoms: C10_15  and  C12_17 
REMARK    4  A    between atoms: C12_17  and  O2_18 
REMARK    5  A    between atoms: C12_17  and  C13_19 
ROOT
HETATM    1  C1  UNL     1      17.490  -3.192  53.757  1.00  0.00     0.044 C 
HETATM    2  C2  UNL     1      17.980  -1.796  53.338  1.00  0.00    -0.077 C 
HETATM    3  C3  UNL     1      17.090  -0.907  52.811  1.00  0.00    -0.001 C 
HETATM    4  C4  UNL     1      16.313   0.207  52.225  1.00  0.00     0.201 C 
HETATM    5  N1  UNL     1      16.992   1.360  51.939  1.00  0.00    -0.193 NA
HETATM    6  N2  UNL     1      16.770   2.446  51.419  1.00  0.00    -0.178 NA
HETATM    7  C5  UNL     1      17.866   3.448  51.316  1.00  0.00     0.299 C 
HETATM    8  N3  UNL     1      19.007   2.782  51.824  1.00  0.00    -0.323 N 
HETATM    9  C6  UNL     1      20.124   2.153  52.312  1.00  0.00     0.322 C 
HETATM   10  O1  UNL     1      21.109   2.792  52.307  1.00  0.00    -0.247 OA
HETATM   11  N4  UNL     1      20.687   1.030  52.855  1.00  0.00    -0.309 N 
HETATM   12  C7  UNL     1      21.263  -0.113  53.407  1.00  0.00     0.033 C 
HETATM   13  C19 UNL     1      20.656  -1.414  53.772  1.00  0.00     0.013 C 
HETATM   14  C20 UNL     1      19.345  -1.290  53.440  1.00  0.00     0.050 C 
HETATM   15  H9  UNL     1      18.608   1.879  52.046  1.00  0.00     0.166 HD
HETATM   16  H10 UNL     1      19.814   0.524  52.834  1.00  0.00     0.170 HD
ENDROOT
BRANCH  12  17
HETATM   17  C8  UNL     1      22.503   0.153  53.577  1.00  0.00     0.029 C 
BRANCH  17  18
HETATM   18  C9  UNL     1      23.893   0.096  53.433  1.00  0.00     0.007 C 
HETATM   19  C10 UNL     1      25.047   0.673  53.323  1.00  0.00    -0.051 C 
HETATM   20  C11 UNL     1      26.286  -0.121  53.185  1.00  0.00     0.046 C 
BRANCH  19  21
HETATM   21  C12 UNL     1      25.142   2.151  53.338  1.00  0.00     0.180 C 
BRANCH  21  22
HETATM   22  O2  UNL     1      26.229   2.574  54.075  1.00  0.00    -0.387 OA
HETATM   23  H17 UNL     1      26.261   3.560  54.039  1.00  0.00     0.210 HD
ENDBRANCH  21  22
BRANCH  21  24
HETATM   24  C13 UNL     1      25.289   2.623  51.923  1.00  0.00    -0.025 A 
HETATM   25  C14 UNL     1      26.526   2.901  51.335  1.00  0.00     0.010 A 
HETATM   26  C15 UNL     1      26.582   3.333  50.013  1.00  0.00     0.001 A 
HETATM   27  C16 UNL     1      25.444   3.499  49.251  1.00  0.00     0.000 A 
HETATM   28  C17 UNL     1      24.207   3.222  49.835  1.00  0.00     0.001 A 
HETATM   29  C18 UNL     1      24.174   2.797  51.141  1.00  0.00     0.010 A 
ENDBRANCH  21  24
ENDBRANCH  19  21
ENDBRANCH  17  18
ENDBRANCH  12  17
TORSDOF 5
ENDMDL
MODEL 8
REMARK VINA RESULT:      -8.1      3.151      8.456
REMARK  5 active torsions:
REMARK  status: ('A' for Active; 'I' for Inactive)
REMARK    1  A    between atoms: C7_12  and  C8_13 
REMARK    2  A    between atoms: C8_13  and  C9_14 
REMARK    3  A    between atoms: C10_15  and  C12_17 
REMARK    4  A    between atoms: C12_17  and  O2_18 
REMARK    5  A    between atoms: C12_17  and  C13_19 
ROOT
HETATM    1  C1  UNL     1      30.049   7.470  46.847  1.00  0.00     0.044 C 
HETATM    2  C2  UNL     1      28.622   7.356  47.408  1.00  0.00    -0.077 C 
HETATM    3  C3  UNL     1      27.772   8.416  47.288  1.00  0.00    -0.001 C 
HETATM    4  C4  UNL     1      26.689   9.424  47.274  1.00  0.00     0.201 C 
HETATM    5  N1  UNL     1      25.498   9.071  47.845  1.00  0.00    -0.193 NA
HETATM    6  N2  UNL     1      24.416   9.587  48.095  1.00  0.00    -0.178 NA
HETATM    7  C5  UNL     1      23.356   8.782  48.762  1.00  0.00     0.299 C 
HETATM    8  N3  UNL     1      23.970   7.535  49.031  1.00  0.00    -0.323 N 
HETATM    9  C6  UNL     1      24.549   6.321  49.300  1.00  0.00     0.322 C 
HETATM   10  O1  UNL     1      23.859   5.540  49.840  1.00  0.00    -0.247 OA
HETATM   11  N4  UNL     1      25.651   5.512  49.230  1.00  0.00    -0.309 N 
HETATM   12  C7  UNL     1      26.771   4.687  49.159  1.00  0.00     0.033 C 
HETATM   13  C19 UNL     1      28.109   4.931  48.570  1.00  0.00     0.013 C 
HETATM   14  C20 UNL     1      28.047   6.198  48.084  1.00  0.00     0.050 C 
HETATM   15  H9  UNL     1      24.896   7.704  48.661  1.00  0.00     0.166 HD
HETATM   16  H10 UNL     1      26.201   6.222  48.768  1.00  0.00     0.170 HD
ENDROOT
BRANCH  12  17
HETATM   17  C8  UNL     1      26.444   3.584  49.719  1.00  0.00     0.029 C 
BRANCH  17  18
HETATM   18  C9  UNL     1      26.474   2.490  50.591  1.00  0.00     0.007 C 
HETATM   19  C10 UNL     1      26.015   1.839  51.611  1.00  0.00    -0.051 C 
HETATM   20  C11 UNL     1      26.620   0.560  52.034  1.00  0.00     0.046 C 
BRANCH  19  21
HETATM   21  C12 UNL     1      24.861   2.373  52.372  1.00  0.00     0.180 C 
BRANCH  21  22
HETATM   22  O2  UNL     1      24.687   3.721  52.135  1.00  0.00    -0.387 OA
HETATM   23  H17 UNL     1      24.481   4.161  52.995  1.00  0.00     0.210 HD
ENDBRANCH  21  22
BRANCH  21  24
HETATM   24  C13 UNL     1      23.633   1.631  51.936  1.00  0.00    -0.025 A 
HETATM   25  C14 UNL     1      23.002   0.667  52.727  1.00  0.00     0.010 A 
HETATM   26  C15 UNL     1      21.863   0.022  52.254  1.00  0.00     0.001 A 
HETATM   27  C16 UNL     1      21.326   0.304  51.015  1.00  0.00     0.000 A 
HETATM   28  C17 UNL     1      21.954   1.266  50.222  1.00  0.00     0.001 A 
HETATM   29  C18 UNL     1      23.078   1.890  50.708  1.00  0.00     0.010 A 
ENDBRANCH  21  24
ENDBRANCH  19  21
ENDBRANCH  17  18
ENDBRANCH  12  17
TORSDOF 5
ENDMDL
MODEL 9
REMARK VINA RESULT:      -8.1      2.098      4.355
REMARK  5 active torsions:
REMARK  status: ('A' for Active; 'I' for Inactive)
REMARK    1  A    between atoms: C7_12  and  C8_13 
REMARK    2  A    between atoms: C8_13  and  C9_14 
REMARK    3  A    between atoms: C10_15  and  C12_17 
REMARK    4  A    between atoms: C12_17  and  O2_18 
REMARK    5  A    between atoms: C12_17  and  C13_19 
ROOT
HETATM    1  C1  UNL     1      28.335   0.256  54.814  1.00  0.00     0.044 C 
HETATM    2  C2  UNL     1      27.028   0.463  54.031  1.00  0.00    -0.077 C 
HETATM    3  C3  UNL     1      25.919  -0.247  54.386  1.00  0.00    -0.001 C 
HETATM    4  C4  UNL     1      24.607  -0.899  54.589  1.00  0.00     0.201 C 
HETATM    5  N1  UNL     1      23.590  -0.535  53.749  1.00  0.00    -0.193 NA
HETATM    6  N2  UNL     1      22.427  -0.849  53.533  1.00  0.00    -0.178 NA
HETATM    7  C5  UNL     1      21.664  -0.148  52.464  1.00  0.00     0.299 C 
HETATM    8  N3  UNL     1      22.605   0.725  51.868  1.00  0.00    -0.323 N 
HETATM    9  C6  UNL     1      23.504   1.577  51.277  1.00  0.00     0.322 C 
HETATM   10  O1  UNL     1      23.083   2.223  50.392  1.00  0.00    -0.247 OA
HETATM   11  N4  UNL     1      24.776   2.080  51.227  1.00  0.00    -0.309 N 
HETATM   12  C7  UNL     1      26.071   2.592  51.173  1.00  0.00     0.033 C 
HETATM   13  C19 UNL     1      27.255   2.299  52.014  1.00  0.00     0.013 C 
HETATM   14  C20 UNL     1      26.827   1.368  52.904  1.00  0.00     0.050 C 
HETATM   15  H9  UNL     1      23.428   0.508  52.415  1.00  0.00     0.166 HD
HETATM   16  H10 UNL     1      25.087   1.499  51.992  1.00  0.00     0.170 HD
ENDROOT
BRANCH  12  17
HETATM   17  C8  UNL     1      26.085   3.437  50.212  1.00  0.00     0.029 C 
BRANCH  17  18
HETATM   18  C9  UNL     1      26.076   4.661  49.536  1.00  0.00     0.007 C 
HETATM   19  C10 UNL     1      25.824   5.930  49.490  1.00  0.00    -0.051 C 
HETATM   20  C11 UNL     1      26.108   6.720  48.274  1.00  0.00     0.046 C 
BRANCH  19  21
HETATM   21  C12 UNL     1      25.245   6.614  50.669  1.00  0.00     0.180 C 
BRANCH  21  22
HETATM   22  O2  UNL     1      25.191   7.980  50.479  1.00  0.00    -0.387 OA
HETATM   23  H17 UNL     1      24.426   8.179  49.887  1.00  0.00     0.210 HD
ENDBRANCH  21  22
BRANCH  21  24
HETATM   24  C13 UNL     1      23.857   6.088  50.878  1.00  0.00    -0.025 A 
HETATM   25  C14 UNL     1      23.467   5.396  52.027  1.00  0.00     0.010 A 
HETATM   26  C15 UNL     1      22.158   4.940  52.150  1.00  0.00     0.001 A 
HETATM   27  C16 UNL     1      21.216   5.150  51.164  1.00  0.00     0.000 A 
HETATM   28  C17 UNL     1      21.602   5.841  50.013  1.00  0.00     0.001 A 
HETATM   29  C18 UNL     1      22.900   6.282  49.913  1.00  0.00     0.010 A 
ENDBRANCH  21  24
ENDBRANCH  19  21
ENDBRANCH  17  18
ENDBRANCH  12  17
TORSDOF 5
ENDMDL
