MODEL 1
REMARK VINA RESULT:      -8.9      0.000      0.000
REMARK  6 active torsions:
REMARK  status: ('A' for Active; 'I' for Inactive)
REMARK    1  A    between atoms: C4_4  and  N1_5 
REMARK    2  A    between atoms: N1_5  and  C5_6 
REMARK       I    between atoms: N3_11  and  C9_12 
REMARK    3  A    between atoms: C9_12  and  C10_14 
REMARK    4  A    between atoms: C10_14  and  N4_15 
REMARK       I    between atoms: N4_15  and  C11_16 
REMARK    5  A    between atoms: C11_16  and  O3_18 
REMARK    6  A    between atoms: O3_18  and  C12_19 
ROOT
HETATM    1  C5  UNL     1      27.495   1.236  52.607  1.00  0.00     0.126 C 
HETATM    2  N2  UNL     1      28.115   2.363  53.133  1.00  0.00    -0.270 NA
HETATM    3  C6  UNL     1      29.138   2.071  54.317  1.00  0.00     0.191 C 
HETATM    4  C7  UNL     1      28.858   0.585  54.381  1.00  0.00    -0.023 C 
HETATM    5  C8  UNL     1      27.741   0.131  55.014  1.00  0.00     0.104 C 
HETATM    6  N3  UNL     1      26.597  -0.296  54.232  1.00  0.00    -0.310 N 
HETATM    7  C9  UNL     1      25.238  -0.703  54.270  1.00  0.00     0.242 C 
HETATM    8  O1  UNL     1      24.706  -0.967  53.126  1.00  0.00    -0.271 OA
HETATM    9  C17 UNL     1      27.237  -0.246  52.894  1.00  0.00     0.184 C 
HETATM   10  C18 UNL     1      28.599  -0.955  53.182  1.00  0.00     0.007 C 
HETATM   11  C19 UNL     1      29.606  -0.026  53.188  1.00  0.00     0.008 C 
ENDROOT
BRANCH   7  12
HETATM   12  C10 UNL     1      24.132  -0.952  55.174  1.00  0.00     0.228 C 
BRANCH  12  13
HETATM   13  N4  UNL     1      22.866  -0.361  54.797  1.00  0.00    -0.328 N 
HETATM   14  C11 UNL     1      21.611  -0.960  54.674  1.00  0.00     0.366 C 
HETATM   15  O2  UNL     1      21.550  -2.212  54.925  1.00  0.00    -0.238 OA
HETATM   16  H11 UNL     1      22.852   0.677  54.576  1.00  0.00     0.165 HD
BRANCH  14  17
HETATM   17  O3  UNL     1      20.462  -0.278  54.301  1.00  0.00    -0.266 OA
BRANCH  17  18
HETATM   18  C12 UNL     1      20.176  -0.007  52.984  1.00  0.00     0.062 A 
HETATM   19  C13 UNL     1      18.931  -0.170  52.554  1.00  0.00     0.033 A 
HETATM   20  C14 UNL     1      18.898   0.179  51.156  1.00  0.00    -0.001 A 
HETATM   21  C15 UNL     1      20.099   0.545  50.751  1.00  0.00    -0.020 A 
HETATM   22  C16 UNL     1      21.042   0.460  51.900  1.00  0.00     0.092 A 
ENDBRANCH  17  18
ENDBRANCH  14  17
ENDBRANCH  12  13
ENDBRANCH   7  12
BRANCH   1  23
HETATM   23  N1  UNL     1      26.867   1.652  51.338  1.00  0.00    -0.342 N 
HETATM   24  H5  UNL     1      27.310   1.252  50.477  1.00  0.00     0.167 HD
BRANCH  23  25
HETATM   25  C4  UNL     1      25.749   2.528  51.315  1.00  0.00     0.047 A 
HETATM   26  C3  UNL     1      24.557   2.403  52.147  1.00  0.00     0.033 A 
HETATM   27  C2  UNL     1      23.803   3.420  51.786  1.00  0.00    -0.077 A 
HETATM   28  C1  UNL     1      22.477   3.736  52.343  1.00  0.00     0.044 C 
HETATM   29  C21 UNL     1      24.421   4.265  50.722  1.00  0.00     0.082 A 
HETATM   30  C20 UNL     1      25.713   3.566  50.496  1.00  0.00     0.019 A 
HETATM   31 BR1  UNL     1      27.009   4.159  49.221  1.00  0.00    -0.053 Br
ENDBRANCH  23  25
ENDBRANCH   1  23
TORSDOF 6
ENDMDL
MODEL 2
REMARK VINA RESULT:      -8.5      5.132      9.366
REMARK  6 active torsions:
REMARK  status: ('A' for Active; 'I' for Inactive)
REMARK    1  A    between atoms: C4_4  and  N1_5 
REMARK    2  A    between atoms: N1_5  and  C5_6 
REMARK       I    between atoms: N3_11  and  C9_12 
REMARK    3  A    between atoms: C9_12  and  C10_14 
REMARK    4  A    between atoms: C10_14  and  N4_15 
REMARK       I    between atoms: N4_15  and  C11_16 
REMARK    5  A    between atoms: C11_16  and  O3_18 
REMARK    6  A    between atoms: O3_18  and  C12_19 
ROOT
HETATM    1  C5  UNL     1      23.977   4.176  51.310  1.00  0.00     0.126 C 
HETATM    2  N2  UNL     1      23.046   5.094  51.781  1.00  0.00    -0.270 NA
HETATM    3  C6  UNL     1      22.017   5.622  50.688  1.00  0.00     0.191 C 
HETATM    4  C7  UNL     1      22.651   4.884  49.529  1.00  0.00    -0.023 C 
HETATM    5  C8  UNL     1      23.778   5.378  48.945  1.00  0.00     0.104 C 
HETATM    6  N3  UNL     1      25.064   4.781  49.248  1.00  0.00    -0.310 N 
HETATM    7  C9  UNL     1      26.471   4.889  49.098  1.00  0.00     0.242 C 
HETATM    8  O1  UNL     1      27.162   3.960  49.664  1.00  0.00    -0.271 OA
HETATM    9  C17 UNL     1      24.567   3.611  50.015  1.00  0.00     0.184 C 
HETATM   10  C18 UNL     1      23.404   3.117  49.096  1.00  0.00     0.007 C 
HETATM   11  C19 UNL     1      22.201   3.424  49.676  1.00  0.00     0.008 C 
ENDROOT
BRANCH   7  12
HETATM   12  C10 UNL     1      27.509   5.711  48.506  1.00  0.00     0.228 C 
BRANCH  12  13
HETATM   13  N4  UNL     1      28.867   5.369  48.871  1.00  0.00    -0.328 N 
HETATM   14  C11 UNL     1      30.068   5.765  48.281  1.00  0.00     0.366 C 
HETATM   15  O2  UNL     1      29.978   6.543  47.272  1.00  0.00    -0.238 OA
HETATM   16  H11 UNL     1      29.007   4.726  49.704  1.00  0.00     0.165 HD
BRANCH  14  17
HETATM   17  O3  UNL     1      31.318   5.364  48.729  1.00  0.00    -0.266 OA
BRANCH  17  18
HETATM   18  C12 UNL     1      32.185   4.665  47.925  1.00  0.00     0.062 A 
HETATM   19  C13 UNL     1      33.487   4.905  48.027  1.00  0.00     0.033 A 
HETATM   20  C14 UNL     1      34.169   4.051  47.088  1.00  0.00    -0.001 A 
HETATM   21  C15 UNL     1      33.296   3.310  46.431  1.00  0.00    -0.020 A 
HETATM   22  C16 UNL     1      31.926   3.638  46.913  1.00  0.00     0.092 A 
ENDBRANCH  17  18
ENDBRANCH  14  17
ENDBRANCH  12  13
ENDBRANCH   7  12
BRANCH   1  23
HETATM   23  N1  UNL     1      24.603   3.562  52.496  1.00  0.00    -0.342 N 
HETATM   24  H5  UNL     1      25.145   4.225  53.099  1.00  0.00     0.167 HD
BRANCH  23  25
HETATM   25  C4  UNL     1      24.467   2.175  52.774  1.00  0.00     0.047 A 
HETATM   26  C3  UNL     1      23.205   1.446  52.851  1.00  0.00     0.033 A 
HETATM   27  C2  UNL     1      23.562   0.210  53.128  1.00  0.00    -0.077 A 
HETATM   28  C1  UNL     1      22.638  -0.923  53.308  1.00  0.00     0.044 C 
HETATM   29  C21 UNL     1      25.039   0.036  53.251  1.00  0.00     0.082 A 
HETATM   30  C20 UNL     1      25.527   1.416  52.994  1.00  0.00     0.019 A 
HETATM   31 BR1  UNL     1      27.381   1.885  53.004  1.00  0.00    -0.053 Br
ENDBRANCH  23  25
ENDBRANCH   1  23
TORSDOF 6
ENDMDL
MODEL 3
REMARK VINA RESULT:      -8.1      5.157      9.180
REMARK  6 active torsions:
REMARK  status: ('A' for Active; 'I' for Inactive)
REMARK    1  A    between atoms: C4_4  and  N1_5 
REMARK    2  A    between atoms: N1_5  and  C5_6 
REMARK       I    between atoms: N3_11  and  C9_12 
REMARK    3  A    between atoms: C9_12  and  C10_14 
REMARK    4  A    between atoms: C10_14  and  N4_15 
REMARK       I    between atoms: N4_15  and  C11_16 
REMARK    5  A    between atoms: C11_16  and  O3_18 
REMARK    6  A    between atoms: O3_18  and  C12_19 
ROOT
HETATM    1  C5  UNL     1      24.001   4.182  51.393  1.00  0.00     0.126 C 
HETATM    2  N2  UNL     1      23.182   5.244  51.756  1.00  0.00    -0.270 NA
HETATM    3  C6  UNL     1      22.252   5.799  50.590  1.00  0.00     0.191 C 
HETATM    4  C7  UNL     1      22.815   4.893  49.517  1.00  0.00    -0.023 C 
HETATM    5  C8  UNL     1      24.007   5.193  48.932  1.00  0.00     0.104 C 
HETATM    6  N3  UNL     1      25.201   4.470  49.326  1.00  0.00    -0.310 N 
HETATM    7  C9  UNL     1      26.614   4.391  49.213  1.00  0.00     0.242 C 
HETATM    8  O1  UNL     1      27.171   3.437  49.876  1.00  0.00    -0.271 OA
HETATM    9  C17 UNL     1      24.545   3.440  50.169  1.00  0.00     0.184 C 
HETATM   10  C18 UNL     1      23.350   3.016  49.255  1.00  0.00     0.007 C 
HETATM   11  C19 UNL     1      22.182   3.517  49.768  1.00  0.00     0.008 C 
ENDROOT
BRANCH   7  12
HETATM   12  C10 UNL     1      27.760   5.026  48.592  1.00  0.00     0.228 C 
BRANCH  12  13
HETATM   13  N4  UNL     1      28.054   6.371  49.037  1.00  0.00    -0.328 N 
HETATM   14  C11 UNL     1      27.458   7.577  48.665  1.00  0.00     0.366 C 
HETATM   15  O2  UNL     1      26.513   7.505  47.807  1.00  0.00    -0.238 OA
HETATM   16  H11 UNL     1      28.830   6.496  49.751  1.00  0.00     0.165 HD
BRANCH  14  17
HETATM   17  O3  UNL     1      27.834   8.813  49.169  1.00  0.00    -0.266 OA
BRANCH  17  18
HETATM   18  C12 UNL     1      28.988   9.439  48.764  1.00  0.00     0.062 A 
HETATM   19  C13 UNL     1      29.011  10.030  47.575  1.00  0.00     0.033 A 
HETATM   20  C14 UNL     1      30.320  10.605  47.394  1.00  0.00    -0.001 A 
HETATM   21  C15 UNL     1      31.072  10.367  48.452  1.00  0.00    -0.020 A 
HETATM   22  C16 UNL     1      30.278   9.587  49.441  1.00  0.00     0.092 A 
ENDBRANCH  17  18
ENDBRANCH  14  17
ENDBRANCH  12  13
ENDBRANCH   7  12
BRANCH   1  23
HETATM   23  N1  UNL     1      24.518   3.598  52.645  1.00  0.00    -0.342 N 
HETATM   24  H5  UNL     1      24.975   4.284  53.292  1.00  0.00     0.167 HD
BRANCH  23  25
HETATM   25  C4  UNL     1      24.394   2.211  52.926  1.00  0.00     0.047 A 
HETATM   26  C3  UNL     1      23.146   1.456  52.929  1.00  0.00     0.033 A 
HETATM   27  C2  UNL     1      23.511   0.229  53.239  1.00  0.00    -0.077 A 
HETATM   28  C1  UNL     1      22.602  -0.922  53.369  1.00  0.00     0.044 C 
HETATM   29  C21 UNL     1      24.981   0.088  53.456  1.00  0.00     0.082 A 
HETATM   30  C20 UNL     1      25.454   1.477  53.219  1.00  0.00     0.019 A 
HETATM   31 BR1  UNL     1      27.294   1.987  53.344  1.00  0.00    -0.053 Br
ENDBRANCH  23  25
ENDBRANCH   1  23
TORSDOF 6
ENDMDL
MODEL 4
REMARK VINA RESULT:      -7.8      5.262      9.313
REMARK  6 active torsions:
REMARK  status: ('A' for Active; 'I' for Inactive)
REMARK    1  A    between atoms: C4_4  and  N1_5 
REMARK    2  A    between atoms: N1_5  and  C5_6 
REMARK       I    between atoms: N3_11  and  C9_12 
REMARK    3  A    between atoms: C9_12  and  C10_14 
REMARK    4  A    between atoms: C10_14  and  N4_15 
REMARK       I    between atoms: N4_15  and  C11_16 
REMARK    5  A    between atoms: C11_16  and  O3_18 
REMARK    6  A    between atoms: O3_18  and  C12_19 
ROOT
HETATM    1  C5  UNL     1      23.973   3.953  51.469  1.00  0.00     0.126 C 
HETATM    2  N2  UNL     1      23.071   4.925  51.884  1.00  0.00    -0.270 NA
HETATM    3  C6  UNL     1      22.060   5.422  50.761  1.00  0.00     0.191 C 
HETATM    4  C7  UNL     1      22.672   4.599  49.647  1.00  0.00    -0.023 C 
HETATM    5  C8  UNL     1      23.814   5.024  49.039  1.00  0.00     0.104 C 
HETATM    6  N3  UNL     1      25.080   4.405  49.380  1.00  0.00    -0.310 N 
HETATM    7  C9  UNL     1      26.491   4.460  49.227  1.00  0.00     0.242 C 
HETATM    8  O1  UNL     1      27.152   3.545  49.847  1.00  0.00    -0.271 OA
HETATM    9  C17 UNL     1      24.547   3.297  50.210  1.00  0.00     0.184 C 
HETATM   10  C18 UNL     1      23.370   2.788  49.318  1.00  0.00     0.007 C 
HETATM   11  C19 UNL     1      22.176   3.165  49.876  1.00  0.00     0.008 C 
ENDROOT
BRANCH   7  12
HETATM   12  C10 UNL     1      27.554   5.214  48.592  1.00  0.00     0.228 C 
BRANCH  12  13
HETATM   13  N4  UNL     1      27.836   6.512  49.168  1.00  0.00    -0.328 N 
HETATM   14  C11 UNL     1      27.527   7.782  48.680  1.00  0.00     0.366 C 
HETATM   15  O2  UNL     1      26.905   7.829  47.565  1.00  0.00    -0.238 OA
HETATM   16  H11 UNL     1      28.352   6.539  50.096  1.00  0.00     0.165 HD
BRANCH  14  17
HETATM   17  O3  UNL     1      27.856   8.962  49.332  1.00  0.00    -0.266 OA
BRANCH  17  18
HETATM   18  C12 UNL     1      29.024   9.635  49.066  1.00  0.00     0.062 A 
HETATM   19  C13 UNL     1      30.152   8.941  48.966  1.00  0.00     0.033 A 
HETATM   20  C14 UNL     1      31.218   9.870  48.686  1.00  0.00    -0.001 A 
HETATM   21  C15 UNL     1      30.743  11.099  48.617  1.00  0.00    -0.020 A 
HETATM   22  C16 UNL     1      29.273  11.062  48.857  1.00  0.00     0.092 A 
ENDBRANCH  17  18
ENDBRANCH  14  17
ENDBRANCH  12  13
ENDBRANCH   7  12
BRANCH   1  23
HETATM   23  N1  UNL     1      24.579   3.388  52.690  1.00  0.00    -0.342 N 
HETATM   24  H5  UNL     1      24.681   4.065  53.483  1.00  0.00     0.167 HD
BRANCH  23  25
HETATM   25  C4  UNL     1      24.985   2.028  52.758  1.00  0.00     0.047 A 
HETATM   26  C3  UNL     1      26.362   1.551  52.684  1.00  0.00     0.033 A 
HETATM   27  C2  UNL     1      26.256   0.242  52.787  1.00  0.00    -0.077 A 
HETATM   28  C1  UNL     1      27.382  -0.707  52.768  1.00  0.00     0.044 C 
HETATM   29  C21 UNL     1      24.846  -0.226  52.933  1.00  0.00     0.082 A 
HETATM   30  C20 UNL     1      24.098   1.058  52.898  1.00  0.00     0.019 A 
HETATM   31 BR1  UNL     1      22.194   1.158  53.042  1.00  0.00    -0.053 Br
ENDBRANCH  23  25
ENDBRANCH   1  23
TORSDOF 6
ENDMDL
MODEL 5
REMARK VINA RESULT:      -7.7      4.910      9.270
REMARK  6 active torsions:
REMARK  status: ('A' for Active; 'I' for Inactive)
REMARK    1  A    between atoms: C4_4  and  N1_5 
REMARK    2  A    between atoms: N1_5  and  C5_6 
REMARK       I    between atoms: N3_11  and  C9_12 
REMARK    3  A    between atoms: C9_12  and  C10_14 
REMARK    4  A    between atoms: C10_14  and  N4_15 
REMARK       I    between atoms: N4_15  and  C11_16 
REMARK    5  A    between atoms: C11_16  and  O3_18 
REMARK    6  A    between atoms: O3_18  and  C12_19 
ROOT
HETATM    1  C5  UNL     1      22.995   3.275  51.512  1.00  0.00     0.126 C 
HETATM    2  N2  UNL     1      21.901   4.006  51.957  1.00  0.00    -0.270 NA
HETATM    3  C6  UNL     1      20.879   4.439  50.817  1.00  0.00     0.191 C 
HETATM    4  C7  UNL     1      21.701   3.885  49.674  1.00  0.00    -0.023 C 
HETATM    5  C8  UNL     1      22.772   4.584  49.207  1.00  0.00     0.104 C 
HETATM    6  N3  UNL     1      24.113   4.173  49.578  1.00  0.00    -0.310 N 
HETATM    7  C9  UNL     1      25.492   4.507  49.544  1.00  0.00     0.242 C 
HETATM    8  O1  UNL     1      26.281   3.661  50.112  1.00  0.00    -0.271 OA
HETATM    9  C17 UNL     1      23.756   2.893  50.239  1.00  0.00     0.184 C 
HETATM   10  C18 UNL     1      22.752   2.287  49.207  1.00  0.00     0.007 C 
HETATM   11  C19 UNL     1      21.478   2.367  49.706  1.00  0.00     0.008 C 
ENDROOT
BRANCH   7  12
HETATM   12  C10 UNL     1      26.425   5.515  49.081  1.00  0.00     0.228 C 
BRANCH  12  13
HETATM   13  N4  UNL     1      27.811   5.106  49.010  1.00  0.00    -0.328 N 
HETATM   14  C11 UNL     1      28.861   5.660  48.277  1.00  0.00     0.366 C 
HETATM   15  O2  UNL     1      28.579   6.678  47.558  1.00  0.00    -0.238 OA
HETATM   16  H11 UNL     1      28.108   4.265  49.587  1.00  0.00     0.165 HD
BRANCH  14  17
HETATM   17  O3  UNL     1      30.159   5.170  48.293  1.00  0.00    -0.266 OA
BRANCH  17  18
HETATM   18  C12 UNL     1      31.248   6.006  48.365  1.00  0.00     0.062 A 
HETATM   19  C13 UNL     1      32.083   6.057  47.334  1.00  0.00     0.033 A 
HETATM   20  C14 UNL     1      33.126   6.997  47.658  1.00  0.00    -0.001 A 
HETATM   21  C15 UNL     1      32.924   7.503  48.860  1.00  0.00    -0.020 A 
HETATM   22  C16 UNL     1      31.686   6.907  49.432  1.00  0.00     0.092 A 
ENDBRANCH  17  18
ENDBRANCH  14  17
ENDBRANCH  12  13
ENDBRANCH   7  12
BRANCH   1  23
HETATM   23  N1  UNL     1      23.628   2.688  52.709  1.00  0.00    -0.342 N 
HETATM   24  H5  UNL     1      24.221   3.352  53.262  1.00  0.00     0.167 HD
BRANCH  23  25
HETATM   25  C4  UNL     1      23.432   1.326  53.061  1.00  0.00     0.047 A 
HETATM   26  C3  UNL     1      22.168   0.735  53.488  1.00  0.00     0.033 A 
HETATM   27  C2  UNL     1      22.461  -0.530  53.706  1.00  0.00    -0.077 A 
HETATM   28  C1  UNL     1      21.508  -1.558  54.159  1.00  0.00     0.044 C 
HETATM   29  C21 UNL     1      23.893  -0.858  53.447  1.00  0.00     0.082 A 
HETATM   30  C20 UNL     1      24.431   0.461  53.024  1.00  0.00     0.019 A 
HETATM   31 BR1  UNL     1      26.261   0.733  52.537  1.00  0.00    -0.053 Br
ENDBRANCH  23  25
ENDBRANCH   1  23
TORSDOF 6
ENDMDL
MODEL 6
REMARK VINA RESULT:      -7.5      5.777      9.981
REMARK  6 active torsions:
REMARK  status: ('A' for Active; 'I' for Inactive)
REMARK    1  A    between atoms: C4_4  and  N1_5 
REMARK    2  A    between atoms: N1_5  and  C5_6 
REMARK       I    between atoms: N3_11  and  C9_12 
REMARK    3  A    between atoms: C9_12  and  C10_14 
REMARK    4  A    between atoms: C10_14  and  N4_15 
REMARK       I    between atoms: N4_15  and  C11_16 
REMARK    5  A    between atoms: C11_16  and  O3_18 
REMARK    6  A    between atoms: O3_18  and  C12_19 
ROOT
HETATM    1  C5  UNL     1      24.547   5.653  50.712  1.00  0.00     0.126 C 
HETATM    2  N2  UNL     1      24.214   6.850  51.333  1.00  0.00    -0.270 NA
HETATM    3  C6  UNL     1      23.754   8.010  50.345  1.00  0.00     0.191 C 
HETATM    4  C7  UNL     1      24.010   7.223  49.077  1.00  0.00    -0.023 C 
HETATM    5  C8  UNL     1      25.279   7.097  48.601  1.00  0.00     0.104 C 
HETATM    6  N3  UNL     1      26.000   5.855  48.803  1.00  0.00    -0.310 N 
HETATM    7  C9  UNL     1      27.250   5.193  48.686  1.00  0.00     0.242 C 
HETATM    8  O1  UNL     1      27.267   3.966  49.081  1.00  0.00    -0.271 OA
HETATM    9  C17 UNL     1      24.873   5.053  49.341  1.00  0.00     0.184 C 
HETATM   10  C18 UNL     1      23.732   5.419  48.338  1.00  0.00     0.007 C 
HETATM   11  C19 UNL     1      22.831   6.248  48.955  1.00  0.00     0.008 C 
ENDROOT
BRANCH   7  12
HETATM   12  C10 UNL     1      28.623   5.385  48.261  1.00  0.00     0.228 C 
BRANCH  12  13
HETATM   13  N4  UNL     1      29.338   6.463  48.911  1.00  0.00    -0.328 N 
HETATM   14  C11 UNL     1      30.660   6.875  48.743  1.00  0.00     0.366 C 
HETATM   15  O2  UNL     1      31.359   6.219  47.898  1.00  0.00    -0.238 OA
HETATM   16  H11 UNL     1      28.810   7.046  49.625  1.00  0.00     0.165 HD
BRANCH  14  17
HETATM   17  O3  UNL     1      31.234   7.933  49.434  1.00  0.00    -0.266 OA
BRANCH  17  18
HETATM   18  C12 UNL     1      31.269   9.204  48.912  1.00  0.00     0.062 A 
HETATM   19  C13 UNL     1      30.566  10.159  49.509  1.00  0.00     0.033 A 
HETATM   20  C14 UNL     1      30.773  11.382  48.775  1.00  0.00    -0.001 A 
HETATM   21  C15 UNL     1      31.582  11.169  47.755  1.00  0.00    -0.020 A 
HETATM   22  C16 UNL     1      31.982   9.735  47.748  1.00  0.00     0.092 A 
ENDBRANCH  17  18
ENDBRANCH  14  17
ENDBRANCH  12  13
ENDBRANCH   7  12
BRANCH   1  23
HETATM   23  N1  UNL     1      24.614   4.630  51.773  1.00  0.00    -0.342 N 
HETATM   24  H5  UNL     1      25.275   4.850  52.554  1.00  0.00     0.167 HD
BRANCH  23  25
HETATM   25  C4  UNL     1      23.831   3.445  51.714  1.00  0.00     0.047 A 
HETATM   26  C3  UNL     1      22.374   3.395  51.663  1.00  0.00     0.033 A 
HETATM   27  C2  UNL     1      22.097   2.108  51.619  1.00  0.00    -0.077 A 
HETATM   28  C1  UNL     1      20.743   1.531  51.557  1.00  0.00     0.044 C 
HETATM   29  C21 UNL     1      23.312   1.242  51.637  1.00  0.00     0.082 A 
HETATM   30  C20 UNL     1      24.400   2.252  51.702  1.00  0.00     0.019 A 
HETATM   31 BR1  UNL     1      26.254   1.784  51.751  1.00  0.00    -0.053 Br
ENDBRANCH  23  25
ENDBRANCH   1  23
TORSDOF 6
ENDMDL
MODEL 7
REMARK VINA RESULT:      -7.4      2.993      5.740
REMARK  6 active torsions:
REMARK  status: ('A' for Active; 'I' for Inactive)
REMARK    1  A    between atoms: C4_4  and  N1_5 
REMARK    2  A    between atoms: N1_5  and  C5_6 
REMARK       I    between atoms: N3_11  and  C9_12 
REMARK    3  A    between atoms: C9_12  and  C10_14 
REMARK    4  A    between atoms: C10_14  and  N4_15 
REMARK       I    between atoms: N4_15  and  C11_16 
REMARK    5  A    between atoms: C11_16  and  O3_18 
REMARK    6  A    between atoms: O3_18  and  C12_19 
ROOT
HETATM    1  C5  UNL     1      23.524   4.381  49.843  1.00  0.00     0.126 C 
HETATM    2  N2  UNL     1      22.271   3.879  49.509  1.00  0.00    -0.270 NA
HETATM    3  C6  UNL     1      21.330   3.555  50.750  1.00  0.00     0.191 C 
HETATM    4  C7  UNL     1      22.366   3.885  51.803  1.00  0.00    -0.023 C 
HETATM    5  C8  UNL     1      23.343   2.983  52.100  1.00  0.00     0.104 C 
HETATM    6  N3  UNL     1      24.682   3.181  51.579  1.00  0.00    -0.310 N 
HETATM    7  C9  UNL     1      25.974   2.615  51.423  1.00  0.00     0.242 C 
HETATM    8  O1  UNL     1      26.829   3.347  50.796  1.00  0.00    -0.271 OA
HETATM    9  C17 UNL     1      24.484   4.543  51.024  1.00  0.00     0.184 C 
HETATM   10  C18 UNL     1      23.733   5.244  52.201  1.00  0.00     0.007 C 
HETATM   11  C19 UNL     1      22.416   5.417  51.864  1.00  0.00     0.008 C 
ENDROOT
BRANCH   7  12
HETATM   12  C10 UNL     1      26.760   1.433  51.720  1.00  0.00     0.228 C 
BRANCH  12  13
HETATM   13  N4  UNL     1      26.084   0.400  52.473  1.00  0.00    -0.328 N 
HETATM   14  C11 UNL     1      25.822   0.330  53.842  1.00  0.00     0.366 C 
HETATM   15  O2  UNL     1      26.230   1.311  54.551  1.00  0.00    -0.238 OA
HETATM   16  H11 UNL     1      25.720  -0.443  51.939  1.00  0.00     0.165 HD
BRANCH  14  17
HETATM   17  O3  UNL     1      25.158  -0.726  54.450  1.00  0.00    -0.266 OA
BRANCH  17  18
HETATM   18  C12 UNL     1      23.800  -0.896  54.324  1.00  0.00     0.062 A 
HETATM   19  C13 UNL     1      23.116  -1.363  55.362  1.00  0.00     0.033 A 
HETATM   20  C14 UNL     1      21.730  -1.446  54.975  1.00  0.00    -0.001 A 
HETATM   21  C15 UNL     1      21.581  -1.039  53.729  1.00  0.00    -0.020 A 
HETATM   22  C16 UNL     1      22.911  -0.643  53.189  1.00  0.00     0.092 A 
ENDBRANCH  17  18
ENDBRANCH  14  17
ENDBRANCH  12  13
ENDBRANCH   7  12
BRANCH   1  23
HETATM   23  N1  UNL     1      24.106   4.927  48.602  1.00  0.00    -0.342 N 
HETATM   24  H5  UNL     1      23.820   4.427  47.727  1.00  0.00     0.167 HD
BRANCH  23  25
HETATM   25  C4  UNL     1      24.983   6.044  48.621  1.00  0.00     0.047 A 
HETATM   26  C3  UNL     1      26.438   5.979  48.533  1.00  0.00     0.033 A 
HETATM   27  C2  UNL     1      26.821   7.238  48.590  1.00  0.00    -0.077 A 
HETATM   28  C1  UNL     1      28.217   7.706  48.539  1.00  0.00     0.044 C 
HETATM   29  C21 UNL     1      25.684   8.196  48.715  1.00  0.00     0.082 A 
HETATM   30  C20 UNL     1      24.516   7.276  48.725  1.00  0.00     0.019 A 
HETATM   31 BR1  UNL     1      22.709   7.888  48.866  1.00  0.00    -0.053 Br
ENDBRANCH  23  25
ENDBRANCH   1  23
TORSDOF 6
ENDMDL
MODEL 8
REMARK VINA RESULT:      -7.4     10.306     13.122
REMARK  6 active torsions:
REMARK  status: ('A' for Active; 'I' for Inactive)
REMARK    1  A    between atoms: C4_4  and  N1_5 
REMARK    2  A    between atoms: N1_5  and  C5_6 
REMARK       I    between atoms: N3_11  and  C9_12 
REMARK    3  A    between atoms: C9_12  and  C10_14 
REMARK    4  A    between atoms: C10_14  and  N4_15 
REMARK       I    between atoms: N4_15  and  C11_16 
REMARK    5  A    between atoms: C11_16  and  O3_18 
REMARK    6  A    between atoms: O3_18  and  C12_19 
ROOT
HETATM    1  C5  UNL     1      29.900   9.858  48.636  1.00  0.00     0.126 C 
HETATM    2  N2  UNL     1      30.642  10.790  49.352  1.00  0.00    -0.270 NA
HETATM    3  C6  UNL     1      30.436  12.300  48.897  1.00  0.00     0.191 C 
HETATM    4  C7  UNL     1      29.522  11.973  47.735  1.00  0.00    -0.023 C 
HETATM    5  C8  UNL     1      30.049  11.520  46.564  1.00  0.00     0.104 C 
HETATM    6  N3  UNL     1      29.972  10.108  46.243  1.00  0.00    -0.310 N 
HETATM    7  C9  UNL     1      30.389   9.084  45.352  1.00  0.00     0.242 C 
HETATM    8  O1  UNL     1      29.954   7.902  45.624  1.00  0.00    -0.271 OA
HETATM    9  C17 UNL     1      29.079   9.696  47.354  1.00  0.00     0.184 C 
HETATM   10  C18 UNL     1      27.990  10.816  47.300  1.00  0.00     0.007 C 
HETATM   11  C19 UNL     1      28.155  11.666  48.362  1.00  0.00     0.008 C 
ENDROOT
BRANCH   7  12
HETATM   12  C10 UNL     1      31.181   8.841  44.163  1.00  0.00     0.228 C 
BRANCH  12  13
HETATM   13  N4  UNL     1      31.522   7.459  43.904  1.00  0.00    -0.328 N 
HETATM   14  C11 UNL     1      32.634   6.729  44.324  1.00  0.00     0.366 C 
HETATM   15  O2  UNL     1      33.488   7.352  45.042  1.00  0.00    -0.238 OA
HETATM   16  H11 UNL     1      30.850   6.887  43.313  1.00  0.00     0.165 HD
BRANCH  14  17
HETATM   17  O3  UNL     1      32.849   5.395  44.006  1.00  0.00    -0.266 OA
BRANCH  17  18
HETATM   18  C12 UNL     1      33.508   4.544  44.859  1.00  0.00     0.062 A 
HETATM   19  C13 UNL     1      32.801   3.853  45.745  1.00  0.00     0.033 A 
HETATM   20  C14 UNL     1      33.718   3.045  46.508  1.00  0.00    -0.001 A 
HETATM   21  C15 UNL     1      34.954   3.245  46.093  1.00  0.00    -0.020 A 
HETATM   22  C16 UNL     1      34.934   4.237  44.982  1.00  0.00     0.092 A 
ENDBRANCH  17  18
ENDBRANCH  14  17
ENDBRANCH  12  13
ENDBRANCH   7  12
BRANCH   1  23
HETATM   23  N1  UNL     1      29.956   8.596  49.398  1.00  0.00    -0.342 N 
HETATM   24  H5  UNL     1      29.285   8.537  50.200  1.00  0.00     0.167 HD
BRANCH  23  25
HETATM   25  C4  UNL     1      30.861   7.558  49.051  1.00  0.00     0.047 A 
HETATM   26  C3  UNL     1      32.316   7.636  49.142  1.00  0.00     0.033 A 
HETATM   27  C2  UNL     1      32.729   6.459  48.721  1.00  0.00    -0.077 A 
HETATM   28  C1  UNL     1      34.137   6.037  48.624  1.00  0.00     0.044 C 
HETATM   29  C21 UNL     1      31.615   5.546  48.333  1.00  0.00     0.082 A 
HETATM   30  C20 UNL     1      30.424   6.395  48.598  1.00  0.00     0.019 A 
HETATM   31 BR1  UNL     1      28.632   5.798  48.300  1.00  0.00    -0.053 Br
ENDBRANCH  23  25
ENDBRANCH   1  23
TORSDOF 6
ENDMDL
MODEL 9
REMARK VINA RESULT:      -7.3      6.227      8.269
REMARK  6 active torsions:
REMARK  status: ('A' for Active; 'I' for Inactive)
REMARK    1  A    between atoms: C4_4  and  N1_5 
REMARK    2  A    between atoms: N1_5  and  C5_6 
REMARK       I    between atoms: N3_11  and  C9_12 
REMARK    3  A    between atoms: C9_12  and  C10_14 
REMARK    4  A    between atoms: C10_14  and  N4_15 
REMARK       I    between atoms: N4_15  and  C11_16 
REMARK    5  A    between atoms: C11_16  and  O3_18 
REMARK    6  A    between atoms: O3_18  and  C12_19 
ROOT
HETATM    1  C5  UNL     1      29.749   8.364  48.960  1.00  0.00     0.126 C 
HETATM    2  N2  UNL     1      31.047   8.339  49.455  1.00  0.00    -0.270 NA
HETATM    3  C6  UNL     1      32.106   7.614  48.514  1.00  0.00     0.191 C 
HETATM    4  C7  UNL     1      31.094   7.171  47.479  1.00  0.00    -0.023 C 
HETATM    5  C8  UNL     1      30.313   6.081  47.716  1.00  0.00     0.104 C 
HETATM    6  N3  UNL     1      28.931   6.263  48.116  1.00  0.00    -0.310 N 
HETATM    7  C9  UNL     1      27.753   5.625  48.586  1.00  0.00     0.242 C 
HETATM    8  O1  UNL     1      26.745   6.402  48.787  1.00  0.00    -0.271 OA
HETATM    9  C17 UNL     1      28.849   7.729  47.897  1.00  0.00     0.184 C 
HETATM   10  C18 UNL     1      29.534   7.866  46.500  1.00  0.00     0.007 C 
HETATM   11  C19 UNL     1      30.776   8.425  46.653  1.00  0.00     0.008 C 
ENDROOT
BRANCH   7  12
HETATM   12  C10 UNL     1      27.210   4.334  48.957  1.00  0.00     0.228 C 
BRANCH  12  13
HETATM   13  N4  UNL     1      26.456   4.299  50.192  1.00  0.00    -0.328 N 
HETATM   14  C11 UNL     1      25.213   3.721  50.454  1.00  0.00     0.366 C 
HETATM   15  O2  UNL     1      24.641   3.132  49.475  1.00  0.00    -0.238 OA
HETATM   16  H11 UNL     1      26.879   4.773  51.043  1.00  0.00     0.165 HD
BRANCH  14  17
HETATM   17  O3  UNL     1      24.589   3.758  51.692  1.00  0.00    -0.266 OA
BRANCH  17  18
HETATM   18  C12 UNL     1      23.834   2.706  52.154  1.00  0.00     0.062 A 
HETATM   19  C13 UNL     1      24.454   1.669  52.705  1.00  0.00     0.033 A 
HETATM   20  C14 UNL     1      23.449   0.716  53.103  1.00  0.00    -0.001 A 
HETATM   21  C15 UNL     1      22.247   1.168  52.798  1.00  0.00    -0.020 A 
HETATM   22  C16 UNL     1      22.384   2.503  52.154  1.00  0.00     0.092 A 
ENDBRANCH  17  18
ENDBRANCH  14  17
ENDBRANCH  12  13
ENDBRANCH   7  12
BRANCH   1  23
HETATM   23  N1  UNL     1      29.004   9.342  49.776  1.00  0.00    -0.342 N 
HETATM   24  H5  UNL     1      29.084   9.203  50.811  1.00  0.00     0.167 HD
BRANCH  23  25
HETATM   25  C4  UNL     1      28.243  10.383  49.178  1.00  0.00     0.047 A 
HETATM   26  C3  UNL     1      26.819  10.320  48.868  1.00  0.00     0.033 A 
HETATM   27  C2  UNL     1      26.553  11.493  48.332  1.00  0.00    -0.077 A 
HETATM   28  C1  UNL     1      25.232  11.927  47.847  1.00  0.00     0.044 C 
HETATM   29  C21 UNL     1      27.744  12.389  48.252  1.00  0.00     0.082 A 
HETATM   30  C20 UNL     1      28.804  11.533  48.846  1.00  0.00     0.019 A 
HETATM   31 BR1  UNL     1      30.618  12.107  49.043  1.00  0.00    -0.053 Br
ENDBRANCH  23  25
ENDBRANCH   1  23
TORSDOF 6
ENDMDL
