MODEL 1
REMARK VINA RESULT:      -8.3      0.000      0.000
REMARK  8 active torsions:
REMARK  status: ('A' for Active; 'I' for Inactive)
REMARK    1  A    between atoms: C5_7  and  N3_8 
REMARK    2  A    between atoms: N3_8  and  C6_9 
REMARK    3  A    between atoms: C13_17  and  C14_18 
REMARK    4  A    between atoms: C14_18  and  N4_19 
REMARK    5  A    between atoms: N4_19  and  O1_20 
REMARK    6  A    between atoms: N4_19  and  C15_21 
REMARK    7  A    between atoms: C15_21  and  C16_22 
REMARK    8  A    between atoms: C17_24  and  C18_25 
ROOT
HETATM    1  C1  UNL     1      30.168  -0.814  53.761  1.00  0.00     0.038 C 
HETATM    2  C2  UNL     1      29.060   0.125  54.060  1.00  0.00    -0.003 C 
HETATM    3  C3  UNL     1      27.804  -0.101  53.710  1.00  0.00     0.044 A 
HETATM    4  N1  UNL     1      27.652  -1.323  53.029  1.00  0.00    -0.246 NA
HETATM    5  C4  UNL     1      26.538  -1.791  52.598  1.00  0.00     0.235 A 
HETATM    6  N2  UNL     1      25.353  -1.054  52.802  1.00  0.00    -0.228 NA
HETATM    7  C5  UNL     1      25.406   0.095  53.424  1.00  0.00     0.117 A 
HETATM    8  C13 UNL     1      26.636   0.750  53.955  1.00  0.00     0.122 A 
ENDROOT
BRANCH   8   9
HETATM    9  C14 UNL     1      26.822   2.129  53.377  1.00  0.00     0.139 C 
BRANCH   9  10
HETATM   10  N4  UNL     1      25.915   2.358  52.303  1.00  0.00    -0.192 NA
BRANCH  10  11
HETATM   11  O1  UNL     1      25.037   3.348  52.575  1.00  0.00    -0.313 OA
HETATM   12  H16 UNL     1      25.126   4.026  51.865  1.00  0.00     0.237 HD
ENDBRANCH  10  11
BRANCH  10  13
HETATM   13  C15 UNL     1      26.549   2.604  51.021  1.00  0.00     0.189 C 
BRANCH  13  14
HETATM   14  C16 UNL     1      25.588   3.425  50.144  1.00  0.00     0.110 A 
HETATM   15  N5  UNL     1      24.479   3.139  49.710  1.00  0.00    -0.227 NA
HETATM   16  C17 UNL     1      23.789   3.984  48.964  1.00  0.00     0.139 A 
HETATM   17  N6  UNL     1      24.326   5.212  48.669  1.00  0.00    -0.194 NA
HETATM   18  S1  UNL     1      25.961   5.091  49.562  1.00  0.00     0.030 SA
BRANCH  16  19
HETATM   19  C18 UNL     1      22.448   3.540  48.484  1.00  0.00     0.050 C 
HETATM   20  C19 UNL     1      22.439   2.055  48.164  1.00  0.00     0.018 C 
HETATM   21  C20 UNL     1      22.050   4.272  47.221  1.00  0.00     0.018 C 
ENDBRANCH  16  19
ENDBRANCH  13  14
ENDBRANCH  10  13
ENDBRANCH   9  10
ENDBRANCH   8   9
BRANCH   7  22
HETATM   22  N3  UNL     1      24.204   0.841  53.633  1.00  0.00    -0.343 N 
HETATM   23  H6  UNL     1      24.134   1.882  53.755  1.00  0.00     0.167 HD
BRANCH  22  24
HETATM   24  C6  UNL     1      22.956   0.155  53.689  1.00  0.00     0.040 A 
HETATM   25  C7  UNL     1      22.818  -0.869  54.633  1.00  0.00     0.030 A 
HETATM   26  C8  UNL     1      21.615  -1.571  54.729  1.00  0.00     0.004 A 
HETATM   27  C9  UNL     1      20.552  -1.269  53.904  1.00  0.00     0.020 A 
HETATM   28  C10 UNL     1      20.677  -0.255  52.965  1.00  0.00     0.019 A 
HETATM   29 BR1  UNL     1      19.249   0.210  51.795  1.00  0.00    -0.051 Br
HETATM   30  C11 UNL     1      21.868   0.430  52.879  1.00  0.00    -0.018 A 
HETATM   31  C12 UNL     1      22.067   1.520  51.902  1.00  0.00     0.052 C 
ENDBRANCH  22  24
ENDBRANCH   7  22
TORSDOF 8
ENDMDL
MODEL 2
REMARK VINA RESULT:      -8.0      3.626      7.942
REMARK  8 active torsions:
REMARK  status: ('A' for Active; 'I' for Inactive)
REMARK    1  A    between atoms: C5_7  and  N3_8 
REMARK    2  A    between atoms: N3_8  and  C6_9 
REMARK    3  A    between atoms: C13_17  and  C14_18 
REMARK    4  A    between atoms: C14_18  and  N4_19 
REMARK    5  A    between atoms: N4_19  and  O1_20 
REMARK    6  A    between atoms: N4_19  and  C15_21 
REMARK    7  A    between atoms: C15_21  and  C16_22 
REMARK    8  A    between atoms: C17_24  and  C18_25 
ROOT
HETATM    1  C1  UNL     1      21.033   1.144  49.073  1.00  0.00     0.038 C 
HETATM    2  C2  UNL     1      22.144   1.701  49.883  1.00  0.00    -0.003 C 
HETATM    3  C3  UNL     1      22.754   2.838  49.593  1.00  0.00     0.044 A 
HETATM    4  N1  UNL     1      22.227   3.446  48.438  1.00  0.00    -0.246 NA
HETATM    5  C4  UNL     1      22.622   4.564  47.950  1.00  0.00     0.235 A 
HETATM    6  N2  UNL     1      23.664   5.269  48.589  1.00  0.00    -0.228 NA
HETATM    7  C5  UNL     1      24.213   4.772  49.667  1.00  0.00     0.117 A 
HETATM    8  C13 UNL     1      23.854   3.480  50.319  1.00  0.00     0.122 A 
ENDROOT
BRANCH   8   9
HETATM    9  C14 UNL     1      25.048   2.568  50.436  1.00  0.00     0.139 C 
BRANCH   9  10
HETATM   10  N4  UNL     1      25.847   2.918  51.562  1.00  0.00    -0.192 NA
BRANCH  10  11
HETATM   11  O1  UNL     1      25.101   3.285  52.627  1.00  0.00    -0.313 OA
HETATM   12  H16 UNL     1      24.155   3.239  52.357  1.00  0.00     0.237 HD
ENDBRANCH  10  11
BRANCH  10  13
HETATM   13  C15 UNL     1      26.803   1.902  51.961  1.00  0.00     0.189 C 
BRANCH  13  14
HETATM   14  C16 UNL     1      26.117   0.934  52.941  1.00  0.00     0.110 A 
HETATM   15  N5  UNL     1      24.967   0.512  52.956  1.00  0.00    -0.227 NA
HETATM   16  C17 UNL     1      24.551  -0.327  53.887  1.00  0.00     0.139 A 
HETATM   17  N6  UNL     1      25.426  -0.739  54.861  1.00  0.00    -0.194 NA
HETATM   18  S1  UNL     1      26.963   0.190  54.349  1.00  0.00     0.030 SA
BRANCH  16  19
HETATM   19  C18 UNL     1      23.131  -0.781  53.818  1.00  0.00     0.050 C 
HETATM   20  C19 UNL     1      22.201   0.365  53.458  1.00  0.00     0.018 C 
HETATM   21  C20 UNL     1      22.668  -1.332  55.149  1.00  0.00     0.018 C 
ENDBRANCH  16  19
ENDBRANCH  13  14
ENDBRANCH  10  13
ENDBRANCH   9  10
ENDBRANCH   8   9
BRANCH   7  22
HETATM   22  N3  UNL     1      25.268   5.487  50.315  1.00  0.00    -0.343 N 
HETATM   23  H6  UNL     1      25.332   5.700  51.343  1.00  0.00     0.167 HD
BRANCH  22  24
HETATM   24  C6  UNL     1      26.358   5.979  49.542  1.00  0.00     0.040 A 
HETATM   25  C7  UNL     1      27.218   5.042  48.958  1.00  0.00     0.030 A 
HETATM   26  C8  UNL     1      28.302   5.473  48.190  1.00  0.00     0.004 A 
HETATM   27  C9  UNL     1      28.540   6.818  47.996  1.00  0.00     0.020 A 
HETATM   28  C10 UNL     1      27.694   7.756  48.569  1.00  0.00     0.019 A 
HETATM   29 BR1  UNL     1      27.968   9.626  48.340  1.00  0.00    -0.051 Br
HETATM   30  C11 UNL     1      26.629   7.319  49.324  1.00  0.00    -0.018 A 
HETATM   31  C12 UNL     1      25.690   8.265  49.962  1.00  0.00     0.052 C 
ENDBRANCH  22  24
ENDBRANCH   7  22
TORSDOF 8
ENDMDL
MODEL 3
REMARK VINA RESULT:      -7.9      2.192      3.004
REMARK  8 active torsions:
REMARK  status: ('A' for Active; 'I' for Inactive)
REMARK    1  A    between atoms: C5_7  and  N3_8 
REMARK    2  A    between atoms: N3_8  and  C6_9 
REMARK    3  A    between atoms: C13_17  and  C14_18 
REMARK    4  A    between atoms: C14_18  and  N4_19 
REMARK    5  A    between atoms: N4_19  and  O1_20 
REMARK    6  A    between atoms: N4_19  and  C15_21 
REMARK    7  A    between atoms: C15_21  and  C16_22 
REMARK    8  A    between atoms: C17_24  and  C18_25 
ROOT
HETATM    1  C1  UNL     1      29.375   1.999  54.246  1.00  0.00     0.038 C 
HETATM    2  C2  UNL     1      28.119   2.416  53.576  1.00  0.00    -0.003 C 
HETATM    3  C3  UNL     1      27.153   1.571  53.253  1.00  0.00     0.044 A 
HETATM    4  N1  UNL     1      27.461   0.247  53.619  1.00  0.00    -0.246 NA
HETATM    5  C4  UNL     1      26.691  -0.763  53.440  1.00  0.00     0.235 A 
HETATM    6  N2  UNL     1      25.432  -0.574  52.832  1.00  0.00    -0.228 NA
HETATM    7  C5  UNL     1      25.069   0.626  52.458  1.00  0.00     0.117 A 
HETATM    8  C13 UNL     1      25.878   1.870  52.596  1.00  0.00     0.122 A 
ENDROOT
BRANCH   8   9
HETATM    9  C14 UNL     1      26.084   2.547  51.266  1.00  0.00     0.139 C 
BRANCH   9  10
HETATM   10  N4  UNL     1      24.957   3.347  50.922  1.00  0.00    -0.192 NA
BRANCH  10  11
HETATM   11  O1  UNL     1      25.002   4.571  51.491  1.00  0.00    -0.313 OA
HETATM   12  H16 UNL     1      24.819   4.458  52.452  1.00  0.00     0.237 HD
ENDBRANCH  10  11
BRANCH  10  13
HETATM   13  C15 UNL     1      24.726   3.479  49.495  1.00  0.00     0.189 C 
BRANCH  13  14
HETATM   14  C16 UNL     1      25.285   4.834  49.027  1.00  0.00     0.110 A 
HETATM   15  N5  UNL     1      26.445   5.203  48.891  1.00  0.00    -0.227 NA
HETATM   16  C17 UNL     1      26.738   6.420  48.470  1.00  0.00     0.139 A 
HETATM   17  N6  UNL     1      25.721   7.293  48.174  1.00  0.00    -0.194 NA
HETATM   18  S1  UNL     1      24.237   6.223  48.554  1.00  0.00     0.030 SA
BRANCH  16  19
HETATM   19  C18 UNL     1      28.182   6.773  48.339  1.00  0.00     0.050 C 
HETATM   20  C19 UNL     1      28.444   7.568  47.071  1.00  0.00     0.018 C 
HETATM   21  C20 UNL     1      29.044   5.532  48.275  1.00  0.00     0.018 C 
ENDBRANCH  16  19
ENDBRANCH  13  14
ENDBRANCH  10  13
ENDBRANCH   9  10
ENDBRANCH   8   9
BRANCH   7  22
HETATM   22  N3  UNL     1      23.792   0.817  51.843  1.00  0.00    -0.343 N 
HETATM   23  H6  UNL     1      23.617   1.232  50.893  1.00  0.00     0.167 HD
BRANCH  22  24
HETATM   24  C6  UNL     1      22.614   0.427  52.542  1.00  0.00     0.040 A 
HETATM   25  C7  UNL     1      22.742   0.082  53.893  1.00  0.00     0.030 A 
HETATM   26  C8  UNL     1      21.617  -0.307  54.623  1.00  0.00     0.004 A 
HETATM   27  C9  UNL     1      20.372  -0.355  54.031  1.00  0.00     0.020 A 
HETATM   28  C10 UNL     1      20.233  -0.015  52.693  1.00  0.00     0.019 A 
HETATM   29 BR1  UNL     1      18.544  -0.062  51.816  1.00  0.00    -0.051 Br
HETATM   30  C11 UNL     1      21.349   0.367  51.983  1.00  0.00    -0.018 A 
HETATM   31  C12 UNL     1      21.270   0.742  50.557  1.00  0.00     0.052 C 
ENDBRANCH  22  24
ENDBRANCH   7  22
TORSDOF 8
ENDMDL
MODEL 4
REMARK VINA RESULT:      -7.9      2.549      3.402
REMARK  8 active torsions:
REMARK  status: ('A' for Active; 'I' for Inactive)
REMARK    1  A    between atoms: C5_7  and  N3_8 
REMARK    2  A    between atoms: N3_8  and  C6_9 
REMARK    3  A    between atoms: C13_17  and  C14_18 
REMARK    4  A    between atoms: C14_18  and  N4_19 
REMARK    5  A    between atoms: N4_19  and  O1_20 
REMARK    6  A    between atoms: N4_19  and  C15_21 
REMARK    7  A    between atoms: C15_21  and  C16_22 
REMARK    8  A    between atoms: C17_24  and  C18_25 
ROOT
HETATM    1  C1  UNL     1      29.530  -0.864  53.773  1.00  0.00     0.038 C 
HETATM    2  C2  UNL     1      28.667   0.194  53.194  1.00  0.00    -0.003 C 
HETATM    3  C3  UNL     1      27.360   0.251  53.389  1.00  0.00     0.044 A 
HETATM    4  N1  UNL     1      26.896  -0.801  54.201  1.00  0.00    -0.246 NA
HETATM    5  C4  UNL     1      25.677  -0.969  54.562  1.00  0.00     0.235 A 
HETATM    6  N2  UNL     1      24.695  -0.052  54.130  1.00  0.00    -0.228 NA
HETATM    7  C5  UNL     1      25.041   0.954  53.368  1.00  0.00     0.117 A 
HETATM    8  C13 UNL     1      26.416   1.246  52.872  1.00  0.00     0.122 A 
ENDROOT
BRANCH   8   9
HETATM    9  C14 UNL     1      26.457   1.320  51.367  1.00  0.00     0.139 C 
BRANCH   9  10
HETATM   10  N4  UNL     1      26.535   2.672  50.927  1.00  0.00    -0.192 NA
BRANCH  10  11
HETATM   11  O1  UNL     1      27.606   3.318  51.436  1.00  0.00    -0.313 OA
HETATM   12  H16 UNL     1      27.495   4.277  51.239  1.00  0.00     0.237 HD
ENDBRANCH  10  11
BRANCH  10  13
HETATM   13  C15 UNL     1      26.503   2.838  49.485  1.00  0.00     0.189 C 
BRANCH  13  14
HETATM   14  C16 UNL     1      26.847   4.300  49.149  1.00  0.00     0.110 A 
HETATM   15  N5  UNL     1      27.905   4.796  48.782  1.00  0.00    -0.227 NA
HETATM   16  C17 UNL     1      28.013   6.089  48.534  1.00  0.00     0.139 A 
HETATM   17  N6  UNL     1      26.914   6.897  48.688  1.00  0.00    -0.194 NA
HETATM   18  S1  UNL     1      25.646   5.642  49.240  1.00  0.00     0.030 SA
BRANCH  16  19
HETATM   19  C18 UNL     1      29.346   6.596  48.093  1.00  0.00     0.050 C 
HETATM   20  C19 UNL     1      29.229   7.431  46.830  1.00  0.00     0.018 C 
HETATM   21  C20 UNL     1      30.291   5.454  47.789  1.00  0.00     0.018 C 
ENDBRANCH  16  19
ENDBRANCH  13  14
ENDBRANCH  10  13
ENDBRANCH   9  10
ENDBRANCH   8   9
BRANCH   7  22
HETATM   22  N3  UNL     1      24.046   1.883  52.933  1.00  0.00    -0.343 N 
HETATM   23  H6  UNL     1      24.147   2.929  52.901  1.00  0.00     0.167 HD
BRANCH  22  24
HETATM   24  C6  UNL     1      22.781   1.399  52.492  1.00  0.00     0.040 A 
HETATM   25  C7  UNL     1      22.017   0.653  53.397  1.00  0.00     0.030 A 
HETATM   26  C8  UNL     1      20.770   0.156  53.014  1.00  0.00     0.004 A 
HETATM   27  C9  UNL     1      20.274   0.392  51.748  1.00  0.00     0.020 A 
HETATM   28  C10 UNL     1      21.022   1.130  50.843  1.00  0.00     0.019 A 
HETATM   29 BR1  UNL     1      20.395   1.489  49.081  1.00  0.00    -0.051 Br
HETATM   30  C11 UNL     1      22.250   1.615  51.232  1.00  0.00    -0.018 A 
HETATM   31  C12 UNL     1      23.096   2.409  50.317  1.00  0.00     0.052 C 
ENDBRANCH  22  24
ENDBRANCH   7  22
TORSDOF 8
ENDMDL
MODEL 5
REMARK VINA RESULT:      -7.8      2.694      5.564
REMARK  8 active torsions:
REMARK  status: ('A' for Active; 'I' for Inactive)
REMARK    1  A    between atoms: C5_7  and  N3_8 
REMARK    2  A    between atoms: N3_8  and  C6_9 
REMARK    3  A    between atoms: C13_17  and  C14_18 
REMARK    4  A    between atoms: C14_18  and  N4_19 
REMARK    5  A    between atoms: N4_19  and  O1_20 
REMARK    6  A    between atoms: N4_19  and  C15_21 
REMARK    7  A    between atoms: C15_21  and  C16_22 
REMARK    8  A    between atoms: C17_24  and  C18_25 
ROOT
HETATM    1  C1  UNL     1      18.525  -1.283  53.477  1.00  0.00     0.038 C 
HETATM    2  C2  UNL     1      19.548  -0.518  52.724  1.00  0.00    -0.003 C 
HETATM    3  C3  UNL     1      20.817  -0.444  53.092  1.00  0.00     0.044 A 
HETATM    4  N1  UNL     1      21.072  -1.171  54.270  1.00  0.00    -0.246 NA
HETATM    5  C4  UNL     1      22.220  -1.282  54.831  1.00  0.00     0.235 A 
HETATM    6  N2  UNL     1      23.337  -0.640  54.255  1.00  0.00    -0.228 NA
HETATM    7  C5  UNL     1      23.186   0.059  53.160  1.00  0.00     0.117 A 
HETATM    8  C13 UNL     1      21.906   0.275  52.427  1.00  0.00     0.122 A 
ENDROOT
BRANCH   8   9
HETATM    9  C14 UNL     1      21.594   1.742  52.278  1.00  0.00     0.139 C 
BRANCH   9  10
HETATM   10  N4  UNL     1      22.312   2.307  51.186  1.00  0.00    -0.192 NA
BRANCH  10  11
HETATM   11  O1  UNL     1      22.572   1.402  50.218  1.00  0.00    -0.313 OA
HETATM   12  H16 UNL     1      21.721   0.965  49.983  1.00  0.00     0.237 HD
ENDBRANCH  10  11
BRANCH  10  13
HETATM   13  C15 UNL     1      21.692   3.483  50.602  1.00  0.00     0.189 C 
BRANCH  13  14
HETATM   14  C16 UNL     1      22.791   4.510  50.277  1.00  0.00     0.110 A 
HETATM   15  N5  UNL     1      23.998   4.356  50.137  1.00  0.00    -0.227 NA
HETATM   16  C17 UNL     1      24.796   5.368  49.853  1.00  0.00     0.139 A 
HETATM   17  N6  UNL     1      24.263   6.625  49.708  1.00  0.00    -0.194 NA
HETATM   18  S1  UNL     1      22.457   6.264  50.019  1.00  0.00     0.030 SA
BRANCH  16  19
HETATM   19  C18 UNL     1      26.252   5.075  49.703  1.00  0.00     0.050 C 
HETATM   20  C19 UNL     1      26.840   5.792  48.500  1.00  0.00     0.018 C 
HETATM   21  C20 UNL     1      26.494   3.595  49.504  1.00  0.00     0.018 C 
ENDBRANCH  16  19
ENDBRANCH  13  14
ENDBRANCH  10  13
ENDBRANCH   9  10
ENDBRANCH   8   9
BRANCH   7  22
HETATM   22  N3  UNL     1      24.318   0.707  52.576  1.00  0.00    -0.343 N 
HETATM   23  H6  UNL     1      24.295   1.555  51.955  1.00  0.00     0.167 HD
BRANCH  22  24
HETATM   24  C6  UNL     1      25.624   0.195  52.826  1.00  0.00     0.040 A 
HETATM   25  C7  UNL     1      25.872  -1.143  52.500  1.00  0.00     0.030 A 
HETATM   26  C8  UNL     1      27.135  -1.693  52.726  1.00  0.00     0.004 A 
HETATM   27  C9  UNL     1      28.151  -0.933  53.267  1.00  0.00     0.020 A 
HETATM   28  C10 UNL     1      27.917   0.395  53.592  1.00  0.00     0.019 A 
HETATM   29 BR1  UNL     1      29.275   1.498  54.343  1.00  0.00    -0.051 Br
HETATM   30  C11 UNL     1      26.667   0.927  53.366  1.00  0.00    -0.018 A 
HETATM   31  C12 UNL     1      26.352   2.333  53.690  1.00  0.00     0.052 C 
ENDBRANCH  22  24
ENDBRANCH   7  22
TORSDOF 8
ENDMDL
MODEL 6
REMARK VINA RESULT:      -7.7      3.455      6.051
REMARK  8 active torsions:
REMARK  status: ('A' for Active; 'I' for Inactive)
REMARK    1  A    between atoms: C5_7  and  N3_8 
REMARK    2  A    between atoms: N3_8  and  C6_9 
REMARK    3  A    between atoms: C13_17  and  C14_18 
REMARK    4  A    between atoms: C14_18  and  N4_19 
REMARK    5  A    between atoms: N4_19  and  O1_20 
REMARK    6  A    between atoms: N4_19  and  C15_21 
REMARK    7  A    between atoms: C15_21  and  C16_22 
REMARK    8  A    between atoms: C17_24  and  C18_25 
ROOT
HETATM    1  C1  UNL     1      20.862   2.618  47.904  1.00  0.00     0.038 C 
HETATM    2  C2  UNL     1      22.183   2.350  48.522  1.00  0.00    -0.003 C 
HETATM    3  C3  UNL     1      22.511   2.755  49.738  1.00  0.00     0.044 A 
HETATM    4  N1  UNL     1      21.467   3.463  50.363  1.00  0.00    -0.246 NA
HETATM    5  C4  UNL     1      21.514   3.947  51.549  1.00  0.00     0.235 A 
HETATM    6  N2  UNL     1      22.685   3.781  52.319  1.00  0.00    -0.228 NA
HETATM    7  C5  UNL     1      23.705   3.138  51.812  1.00  0.00     0.117 A 
HETATM    8  C13 UNL     1      23.777   2.546  50.446  1.00  0.00     0.122 A 
ENDROOT
BRANCH   8   9
HETATM    9  C14 UNL     1      24.945   3.092  49.667  1.00  0.00     0.139 C 
BRANCH   9  10
HETATM   10  N4  UNL     1      25.239   4.428  50.060  1.00  0.00    -0.192 NA
BRANCH  10  11
HETATM   11  O1  UNL     1      26.523   4.578  50.455  1.00  0.00    -0.313 OA
HETATM   12  H16 UNL     1      27.066   3.933  49.945  1.00  0.00     0.237 HD
ENDBRANCH  10  11
BRANCH  10  13
HETATM   13  C15 UNL     1      24.913   5.435  49.067  1.00  0.00     0.189 C 
BRANCH  13  14
HETATM   14  C16 UNL     1      26.037   6.485  49.039  1.00  0.00     0.110 A 
HETATM   15  N5  UNL     1      27.129   6.455  48.486  1.00  0.00    -0.227 NA
HETATM   16  C17 UNL     1      27.975   7.466  48.571  1.00  0.00     0.139 A 
HETATM   17  N6  UNL     1      27.624   8.578  49.295  1.00  0.00    -0.194 NA
HETATM   18  S1  UNL     1      25.924   8.075  49.883  1.00  0.00     0.030 SA
BRANCH  16  19
HETATM   19  C18 UNL     1      29.281   7.331  47.862  1.00  0.00     0.050 C 
HETATM   20  C19 UNL     1      29.161   7.733  46.402  1.00  0.00     0.018 C 
HETATM   21  C20 UNL     1      29.775   5.902  47.893  1.00  0.00     0.018 C 
ENDBRANCH  16  19
ENDBRANCH  13  14
ENDBRANCH  10  13
ENDBRANCH   9  10
ENDBRANCH   8   9
BRANCH   7  22
HETATM   22  N3  UNL     1      24.889   2.967  52.593  1.00  0.00    -0.343 N 
HETATM   23  H6  UNL     1      25.529   3.733  52.924  1.00  0.00     0.167 HD
BRANCH  22  24
HETATM   24  C6  UNL     1      25.287   1.657  52.986  1.00  0.00     0.040 A 
HETATM   25  C7  UNL     1      24.279   0.734  53.289  1.00  0.00     0.030 A 
HETATM   26  C8  UNL     1      24.615  -0.563  53.679  1.00  0.00     0.004 A 
HETATM   27  C9  UNL     1      25.935  -0.955  53.769  1.00  0.00     0.020 A 
HETATM   28  C10 UNL     1      26.942  -0.049  53.470  1.00  0.00     0.019 A 
HETATM   29 BR1  UNL     1      28.783  -0.525  53.577  1.00  0.00    -0.051 Br
HETATM   30  C11 UNL     1      26.599   1.228  53.087  1.00  0.00    -0.018 A 
HETATM   31  C12 UNL     1      27.622   2.240  52.754  1.00  0.00     0.052 C 
ENDBRANCH  22  24
ENDBRANCH   7  22
TORSDOF 8
ENDMDL
MODEL 7
REMARK VINA RESULT:      -7.7      4.214      8.212
REMARK  8 active torsions:
REMARK  status: ('A' for Active; 'I' for Inactive)
REMARK    1  A    between atoms: C5_7  and  N3_8 
REMARK    2  A    between atoms: N3_8  and  C6_9 
REMARK    3  A    between atoms: C13_17  and  C14_18 
REMARK    4  A    between atoms: C14_18  and  N4_19 
REMARK    5  A    between atoms: N4_19  and  O1_20 
REMARK    6  A    between atoms: N4_19  and  C15_21 
REMARK    7  A    between atoms: C15_21  and  C16_22 
REMARK    8  A    between atoms: C17_24  and  C18_25 
ROOT
HETATM    1  C1  UNL     1      22.304   2.188  48.369  1.00  0.00     0.038 C 
HETATM    2  C2  UNL     1      22.711   3.598  48.582  1.00  0.00    -0.003 C 
HETATM    3  C3  UNL     1      23.901   3.948  49.042  1.00  0.00     0.044 A 
HETATM    4  N1  UNL     1      24.720   2.833  49.302  1.00  0.00    -0.246 NA
HETATM    5  C4  UNL     1      25.926   2.892  49.735  1.00  0.00     0.235 A 
HETATM    6  N2  UNL     1      26.511   4.152  49.983  1.00  0.00    -0.228 NA
HETATM    7  C5  UNL     1      25.817   5.240  49.771  1.00  0.00     0.117 A 
HETATM    8  C13 UNL     1      24.409   5.301  49.287  1.00  0.00     0.122 A 
ENDROOT
BRANCH   8   9
HETATM    9  C14 UNL     1      23.527   6.060  50.244  1.00  0.00     0.139 C 
BRANCH   9  10
HETATM   10  N4  UNL     1      23.813   5.703  51.593  1.00  0.00    -0.192 NA
BRANCH  10  11
HETATM   11  O1  UNL     1      24.285   6.745  52.311  1.00  0.00    -0.313 OA
HETATM   12  H16 UNL     1      24.571   7.439  51.674  1.00  0.00     0.237 HD
ENDBRANCH  10  11
BRANCH  10  13
HETATM   13  C15 UNL     1      22.708   5.082  52.299  1.00  0.00     0.189 C 
BRANCH  13  14
HETATM   14  C16 UNL     1      23.009   3.582  52.468  1.00  0.00     0.110 A 
HETATM   15  N5  UNL     1      24.037   3.020  52.824  1.00  0.00    -0.227 NA
HETATM   16  C17 UNL     1      24.111   1.704  52.913  1.00  0.00     0.139 A 
HETATM   17  N6  UNL     1      23.009   0.947  52.602  1.00  0.00    -0.194 NA
HETATM   18  S1  UNL     1      21.794   2.289  52.147  1.00  0.00     0.030 SA
BRANCH  16  19
HETATM   19  C18 UNL     1      25.409   1.117  53.356  1.00  0.00     0.050 C 
HETATM   20  C19 UNL     1      26.415   2.200  53.708  1.00  0.00     0.018 C 
HETATM   21  C20 UNL     1      26.027   0.271  52.264  1.00  0.00     0.018 C 
ENDBRANCH  16  19
ENDBRANCH  13  14
ENDBRANCH  10  13
ENDBRANCH   9  10
ENDBRANCH   8   9
BRANCH   7  22
HETATM   22  N3  UNL     1      26.411   6.515  50.021  1.00  0.00    -0.343 N 
HETATM   23  H6  UNL     1      26.493   6.989  50.956  1.00  0.00     0.167 HD
BRANCH  22  24
HETATM   24  C6  UNL     1      26.960   7.257  48.936  1.00  0.00     0.040 A 
HETATM   25  C7  UNL     1      27.993   6.666  48.199  1.00  0.00     0.030 A 
HETATM   26  C8  UNL     1      28.565   7.352  47.126  1.00  0.00     0.004 A 
HETATM   27  C9  UNL     1      28.123   8.611  46.775  1.00  0.00     0.020 A 
HETATM   28  C10 UNL     1      27.098   9.205  47.497  1.00  0.00     0.019 A 
HETATM   29 BR1  UNL     1      26.443  10.940  47.065  1.00  0.00    -0.051 Br
HETATM   30  C11 UNL     1      26.543   8.520  48.554  1.00  0.00    -0.018 A 
HETATM   31  C12 UNL     1      25.449   9.096  49.362  1.00  0.00     0.052 C 
ENDBRANCH  22  24
ENDBRANCH   7  22
TORSDOF 8
ENDMDL
MODEL 8
REMARK VINA RESULT:      -7.6      2.867      5.879
REMARK  8 active torsions:
REMARK  status: ('A' for Active; 'I' for Inactive)
REMARK    1  A    between atoms: C5_7  and  N3_8 
REMARK    2  A    between atoms: N3_8  and  C6_9 
REMARK    3  A    between atoms: C13_17  and  C14_18 
REMARK    4  A    between atoms: C14_18  and  N4_19 
REMARK    5  A    between atoms: N4_19  and  O1_20 
REMARK    6  A    between atoms: N4_19  and  C15_21 
REMARK    7  A    between atoms: C15_21  and  C16_22 
REMARK    8  A    between atoms: C17_24  and  C18_25 
ROOT
HETATM    1  C1  UNL     1      22.697   6.285  46.729  1.00  0.00     0.038 C 
HETATM    2  C2  UNL     1      23.565   6.242  47.931  1.00  0.00    -0.003 C 
HETATM    3  C3  UNL     1      23.752   5.148  48.652  1.00  0.00     0.044 A 
HETATM    4  N1  UNL     1      23.035   4.048  48.146  1.00  0.00    -0.246 NA
HETATM    5  C4  UNL     1      23.056   2.866  48.644  1.00  0.00     0.235 A 
HETATM    6  N2  UNL     1      23.843   2.609  49.786  1.00  0.00    -0.228 NA
HETATM    7  C5  UNL     1      24.539   3.579  50.322  1.00  0.00     0.117 A 
HETATM    8  C13 UNL     1      24.585   4.991  49.848  1.00  0.00     0.122 A 
ENDROOT
BRANCH   8   9
HETATM    9  C14 UNL     1      24.181   5.953  50.935  1.00  0.00     0.139 C 
BRANCH   9  10
HETATM   10  N4  UNL     1      23.213   5.368  51.800  1.00  0.00    -0.192 NA
BRANCH  10  11
HETATM   11  O1  UNL     1      23.551   5.483  53.103  1.00  0.00    -0.313 OA
HETATM   12  H16 UNL     1      24.375   4.961  53.244  1.00  0.00     0.237 HD
ENDBRANCH  10  11
BRANCH  10  13
HETATM   13  C15 UNL     1      21.858   5.848  51.602  1.00  0.00     0.189 C 
BRANCH  13  14
HETATM   14  C16 UNL     1      20.983   4.675  51.128  1.00  0.00     0.110 A 
HETATM   15  N5  UNL     1      20.936   3.517  51.523  1.00  0.00    -0.227 NA
HETATM   16  C17 UNL     1      20.107   2.637  50.990  1.00  0.00     0.139 A 
HETATM   17  N6  UNL     1      19.275   3.029  49.971  1.00  0.00    -0.194 NA
HETATM   18  S1  UNL     1      19.769   4.822  49.802  1.00  0.00     0.030 SA
BRANCH  16  19
HETATM   19  C18 UNL     1      20.128   1.251  51.542  1.00  0.00     0.050 C 
HETATM   20  C19 UNL     1      21.178   0.397  50.852  1.00  0.00     0.018 C 
HETATM   21  C20 UNL     1      18.794   0.565  51.345  1.00  0.00     0.018 C 
ENDBRANCH  16  19
ENDBRANCH  13  14
ENDBRANCH  10  13
ENDBRANCH   9  10
ENDBRANCH   8   9
BRANCH   7  22
HETATM   22  N3  UNL     1      25.338   3.318  51.478  1.00  0.00    -0.343 N 
HETATM   23  H6  UNL     1      25.847   4.034  52.055  1.00  0.00     0.167 HD
BRANCH  22  24
HETATM   24  C6  UNL     1      25.493   1.977  51.934  1.00  0.00     0.040 A 
HETATM   25  C7  UNL     1      26.637   1.280  51.528  1.00  0.00     0.030 A 
HETATM   26  C8  UNL     1      26.837  -0.037  51.947  1.00  0.00     0.004 A 
HETATM   27  C9  UNL     1      25.919  -0.667  52.762  1.00  0.00     0.020 A 
HETATM   28  C10 UNL     1      24.781   0.015  53.170  1.00  0.00     0.019 A 
HETATM   29 BR1  UNL     1      23.475  -0.797  54.292  1.00  0.00    -0.051 Br
HETATM   30  C11 UNL     1      24.595   1.312  52.750  1.00  0.00    -0.018 A 
HETATM   31  C12 UNL     1      23.406   2.093  53.150  1.00  0.00     0.052 C 
ENDBRANCH  22  24
ENDBRANCH   7  22
TORSDOF 8
ENDMDL
MODEL 9
REMARK VINA RESULT:      -7.5      3.456      7.710
REMARK  8 active torsions:
REMARK  status: ('A' for Active; 'I' for Inactive)
REMARK    1  A    between atoms: C5_7  and  N3_8 
REMARK    2  A    between atoms: N3_8  and  C6_9 
REMARK    3  A    between atoms: C13_17  and  C14_18 
REMARK    4  A    between atoms: C14_18  and  N4_19 
REMARK    5  A    between atoms: N4_19  and  O1_20 
REMARK    6  A    between atoms: N4_19  and  C15_21 
REMARK    7  A    between atoms: C15_21  and  C16_22 
REMARK    8  A    between atoms: C17_24  and  C18_25 
ROOT
HETATM    1  C1  UNL     1      20.364   0.348  52.273  1.00  0.00     0.038 C 
HETATM    2  C2  UNL     1      21.300   1.411  52.711  1.00  0.00    -0.003 C 
HETATM    3  C3  UNL     1      21.757   2.354  51.903  1.00  0.00     0.044 A 
HETATM    4  N1  UNL     1      21.253   2.224  50.595  1.00  0.00    -0.246 NA
HETATM    5  C4  UNL     1      21.519   3.016  49.623  1.00  0.00     0.235 A 
HETATM    6  N2  UNL     1      22.381   4.112  49.839  1.00  0.00    -0.228 NA
HETATM    7  C5  UNL     1      22.897   4.304  51.026  1.00  0.00     0.117 A 
HETATM    8  C13 UNL     1      22.676   3.448  52.227  1.00  0.00     0.122 A 
ENDROOT
BRANCH   8   9
HETATM    9  C14 UNL     1      23.977   2.933  52.785  1.00  0.00     0.139 C 
BRANCH   9  10
HETATM   10  N4  UNL     1      24.886   2.603  51.739  1.00  0.00    -0.192 NA
BRANCH  10  11
HETATM   11  O1  UNL     1      26.083   3.209  51.888  1.00  0.00    -0.313 OA
HETATM   12  H16 UNL     1      26.657   2.607  52.416  1.00  0.00     0.237 HD
ENDBRANCH  10  11
BRANCH  10  13
HETATM   13  C15 UNL     1      25.080   1.179  51.537  1.00  0.00     0.189 C 
BRANCH  13  14
HETATM   14  C16 UNL     1      25.790   0.597  52.772  1.00  0.00     0.110 A 
HETATM   15  N5  UNL     1      26.956   0.701  53.133  1.00  0.00    -0.227 NA
HETATM   16  C17 UNL     1      27.391   0.126  54.240  1.00  0.00     0.139 A 
HETATM   17  N6  UNL     1      26.518  -0.605  55.006  1.00  0.00    -0.194 NA
HETATM   18  S1  UNL     1      24.952  -0.418  54.005  1.00  0.00     0.030 SA
BRANCH  16  19
HETATM   19  C18 UNL     1      28.829   0.312  54.591  1.00  0.00     0.050 C 
HETATM   20  C19 UNL     1      29.272   1.748  54.367  1.00  0.00     0.018 C 
HETATM   21  C20 UNL     1      29.718  -0.568  53.740  1.00  0.00     0.018 C 
ENDBRANCH  16  19
ENDBRANCH  13  14
ENDBRANCH  10  13
ENDBRANCH   9  10
ENDBRANCH   8   9
BRANCH   7  22
HETATM   22  N3  UNL     1      23.768   5.416  51.245  1.00  0.00    -0.343 N 
HETATM   23  H6  UNL     1      24.459   5.516  52.031  1.00  0.00     0.167 HD
BRANCH  22  24
HETATM   24  C6  UNL     1      23.737   6.518  50.344  1.00  0.00     0.040 A 
HETATM   25  C7  UNL     1      22.683   7.432  50.469  1.00  0.00     0.030 A 
HETATM   26  C8  UNL     1      22.607   8.530  49.610  1.00  0.00     0.004 A 
HETATM   27  C9  UNL     1      23.560   8.731  48.633  1.00  0.00     0.020 A 
HETATM   28  C10 UNL     1      24.609   7.833  48.501  1.00  0.00     0.019 A 
HETATM   29 BR1  UNL     1      25.956   8.053  47.173  1.00  0.00    -0.051 Br
HETATM   30  C11 UNL     1      24.674   6.754  49.353  1.00  0.00    -0.018 A 
HETATM   31  C12 UNL     1      25.764   5.761  49.266  1.00  0.00     0.052 C 
ENDBRANCH  22  24
ENDBRANCH   7  22
TORSDOF 8
ENDMDL
