MODEL 1
REMARK VINA RESULT:      -8.7      0.000      0.000
REMARK  3 active torsions:
REMARK  status: ('A' for Active; 'I' for Inactive)
REMARK    1  A    between atoms: C3_3  and  C4_4 
REMARK       I    between atoms: C4_4  and  N1_6 
REMARK    2  A    between atoms: N1_6  and  C5_7 
REMARK    3  A    between atoms: C11_13  and  C12_14 
ROOT
HETATM    1  C1  UNL     1      27.687   6.900  47.912  1.00  0.00     0.112 C 
HETATM    2  C2  UNL     1      27.203   5.704  48.633  1.00  0.00    -0.101 C 
HETATM    3  C3  UNL     1      26.808   4.717  49.203  1.00  0.00    -0.006 C 
ENDROOT
BRANCH   3   4
HETATM    4  C4  UNL     1      26.319   3.548  49.874  1.00  0.00     0.300 C 
HETATM    5  O1  UNL     1      25.427   2.793  49.408  1.00  0.00    -0.258 OA
HETATM    6  N1  UNL     1      26.902   3.242  51.157  1.00  0.00    -0.316 N 
HETATM    7  H4  UNL     1      27.657   3.844  51.595  1.00  0.00     0.170 HD
BRANCH   6   8
HETATM    8  C5  UNL     1      26.621   2.160  52.042  1.00  0.00     0.036 A 
HETATM    9  C6  UNL     1      27.652   1.543  52.729  1.00  0.00     0.032 A 
HETATM   10  C7  UNL     1      27.462   0.481  53.612  1.00  0.00     0.035 A 
HETATM   11  C8  UNL     1      26.169   0.039  53.795  1.00  0.00     0.069 A 
HETATM   12  C9  UNL     1      25.146   0.658  53.108  1.00  0.00     0.008 A 
HETATM   13  N2  UNL     1      25.563  -0.970  54.569  1.00  0.00    -0.245 NA
HETATM   14  C10 UNL     1      25.326   1.698  52.243  1.00  0.00     0.044 A 
HETATM   15  C11 UNL     1      23.913  -0.015  53.498  1.00  0.00     0.018 C 
HETATM   16  C18 UNL     1      24.283  -0.843  54.460  1.00  0.00     0.099 C 
BRANCH  15  17
HETATM   17  C12 UNL     1      22.540   0.105  53.021  1.00  0.00    -0.021 A 
HETATM   18  C13 UNL     1      21.497  -0.240  53.865  1.00  0.00     0.012 A 
HETATM   19  C14 UNL     1      20.154  -0.179  53.555  1.00  0.00     0.002 A 
HETATM   20  C15 UNL     1      19.830   0.265  52.287  1.00  0.00     0.019 A 
HETATM   21  C16 UNL     1      20.829   0.623  51.401  1.00  0.00     0.011 A 
HETATM   22 BR1  UNL     1      20.459   1.239  49.651  1.00  0.00    -0.051 Br
HETATM   23  C17 UNL     1      22.168   0.545  51.760  1.00  0.00     0.031 A 
ENDBRANCH  15  17
ENDBRANCH   6   8
ENDBRANCH   3   4
TORSDOF 3
ENDMDL
MODEL 2
REMARK VINA RESULT:      -8.2      3.246      5.335
REMARK  3 active torsions:
REMARK  status: ('A' for Active; 'I' for Inactive)
REMARK    1  A    between atoms: C3_3  and  C4_4 
REMARK       I    between atoms: C4_4  and  N1_6 
REMARK    2  A    between atoms: N1_6  and  C5_7 
REMARK    3  A    between atoms: C11_13  and  C12_14 
ROOT
HETATM    1  C1  UNL     1      30.513  -1.016  53.868  1.00  0.00     0.112 C 
HETATM    2  C2  UNL     1      29.125  -0.520  53.984  1.00  0.00    -0.101 C 
HETATM    3  C3  UNL     1      27.990  -0.130  54.095  1.00  0.00    -0.006 C 
ENDROOT
BRANCH   3   4
HETATM    4  C4  UNL     1      26.632   0.319  54.218  1.00  0.00     0.300 C 
HETATM    5  O1  UNL     1      26.304   1.438  54.688  1.00  0.00    -0.258 OA
HETATM    6  N1  UNL     1      25.604  -0.586  53.766  1.00  0.00    -0.316 N 
HETATM    7  H4  UNL     1      25.827  -1.540  53.362  1.00  0.00     0.170 HD
BRANCH   6   8
HETATM    8  C5  UNL     1      24.189  -0.416  53.764  1.00  0.00     0.036 A 
HETATM    9  C6  UNL     1      23.425  -0.961  54.781  1.00  0.00     0.032 A 
HETATM   10  C7  UNL     1      22.038  -0.840  54.853  1.00  0.00     0.035 A 
HETATM   11  C8  UNL     1      21.415  -0.135  53.845  1.00  0.00     0.069 A 
HETATM   12  C9  UNL     1      22.182   0.406  52.834  1.00  0.00     0.008 A 
HETATM   13  N2  UNL     1      20.082   0.210  53.549  1.00  0.00    -0.245 NA
HETATM   14  C10 UNL     1      23.539   0.292  52.759  1.00  0.00     0.044 A 
HETATM   15  C11 UNL     1      21.262   1.082  51.928  1.00  0.00     0.018 C 
HETATM   16  C18 UNL     1      20.092   1.014  52.540  1.00  0.00     0.099 C 
BRANCH  15  17
HETATM   17  C12 UNL     1      21.458   1.722  50.633  1.00  0.00    -0.021 A 
HETATM   18  C13 UNL     1      21.517   0.939  49.491  1.00  0.00     0.012 A 
HETATM   19  C14 UNL     1      21.697   1.400  48.204  1.00  0.00     0.002 A 
HETATM   20  C15 UNL     1      21.830   2.767  48.048  1.00  0.00     0.019 A 
HETATM   21  C16 UNL     1      21.780   3.599  49.151  1.00  0.00     0.011 A 
HETATM   22 BR1  UNL     1      21.955   5.478  49.013  1.00  0.00    -0.051 Br
HETATM   23  C17 UNL     1      21.597   3.087  50.429  1.00  0.00     0.031 A 
ENDBRANCH  15  17
ENDBRANCH   6   8
ENDBRANCH   3   4
TORSDOF 3
ENDMDL
MODEL 3
REMARK VINA RESULT:      -8.1      1.757      2.725
REMARK  3 active torsions:
REMARK  status: ('A' for Active; 'I' for Inactive)
REMARK    1  A    between atoms: C3_3  and  C4_4 
REMARK       I    between atoms: C4_4  and  N1_6 
REMARK    2  A    between atoms: N1_6  and  C5_7 
REMARK    3  A    between atoms: C11_13  and  C12_14 
ROOT
HETATM    1  C1  UNL     1      26.937   5.320  48.593  1.00  0.00     0.112 C 
HETATM    2  C2  UNL     1      26.137   4.597  49.604  1.00  0.00    -0.101 C 
HETATM    3  C3  UNL     1      25.479   4.026  50.439  1.00  0.00    -0.006 C 
ENDROOT
BRANCH   3   4
HETATM    4  C4  UNL     1      24.711   3.350  51.444  1.00  0.00     0.300 C 
HETATM    5  O1  UNL     1      23.895   3.927  52.209  1.00  0.00    -0.258 OA
HETATM    6  N1  UNL     1      24.903   1.926  51.562  1.00  0.00    -0.316 N 
HETATM    7  H4  UNL     1      25.577   1.392  50.942  1.00  0.00     0.170 HD
BRANCH   6   8
HETATM    8  C5  UNL     1      24.286   1.003  52.456  1.00  0.00     0.036 A 
HETATM    9  C6  UNL     1      25.054   0.324  53.387  1.00  0.00     0.032 A 
HETATM   10  C7  UNL     1      24.530  -0.593  54.296  1.00  0.00     0.035 A 
HETATM   11  C8  UNL     1      23.171  -0.822  54.247  1.00  0.00     0.069 A 
HETATM   12  C9  UNL     1      22.411  -0.143  53.317  1.00  0.00     0.008 A 
HETATM   13  N2  UNL     1      22.273  -1.639  54.961  1.00  0.00    -0.245 NA
HETATM   14  C10 UNL     1      22.919   0.757  52.426  1.00  0.00     0.044 A 
HETATM   15  C11 UNL     1      21.034  -0.583  53.501  1.00  0.00     0.018 C 
HETATM   16  C18 UNL     1      21.075  -1.342  54.583  1.00  0.00     0.099 C 
BRANCH  15  17
HETATM   17  C12 UNL     1      19.814  -0.321  52.746  1.00  0.00    -0.021 A 
HETATM   18  C13 UNL     1      18.652  -0.998  53.079  1.00  0.00     0.012 A 
HETATM   19  C14 UNL     1      17.428  -0.855  52.458  1.00  0.00     0.002 A 
HETATM   20  C15 UNL     1      17.366   0.045  51.411  1.00  0.00     0.019 A 
HETATM   21  C16 UNL     1      18.494   0.749  51.033  1.00  0.00     0.011 A 
HETATM   22 BR1  UNL     1      18.482   1.996  49.610  1.00  0.00    -0.051 Br
HETATM   23  C17 UNL     1      19.705   0.571  51.690  1.00  0.00     0.031 A 
ENDBRANCH  15  17
ENDBRANCH   6   8
ENDBRANCH   3   4
TORSDOF 3
ENDMDL
MODEL 4
REMARK VINA RESULT:      -8.1      2.596      6.757
REMARK  3 active torsions:
REMARK  status: ('A' for Active; 'I' for Inactive)
REMARK    1  A    between atoms: C3_3  and  C4_4 
REMARK       I    between atoms: C4_4  and  N1_6 
REMARK    2  A    between atoms: N1_6  and  C5_7 
REMARK    3  A    between atoms: C11_13  and  C12_14 
ROOT
HETATM    1  C1  UNL     1      17.019  -2.482  53.080  1.00  0.00     0.112 C 
HETATM    2  C2  UNL     1      18.265  -1.735  53.353  1.00  0.00    -0.101 C 
HETATM    3  C3  UNL     1      19.290  -1.143  53.583  1.00  0.00    -0.006 C 
ENDROOT
BRANCH   3   4
HETATM    4  C4  UNL     1      20.505  -0.437  53.877  1.00  0.00     0.300 C 
HETATM    5  O1  UNL     1      20.556   0.793  54.134  1.00  0.00    -0.258 OA
HETATM    6  N1  UNL     1      21.723  -1.208  53.871  1.00  0.00    -0.316 N 
HETATM    7  H4  UNL     1      21.736  -2.247  53.661  1.00  0.00     0.170 HD
BRANCH   6   8
HETATM    8  C5  UNL     1      23.061  -0.784  54.123  1.00  0.00     0.036 A 
HETATM    9  C6  UNL     1      23.762  -1.308  55.195  1.00  0.00     0.032 A 
HETATM   10  C7  UNL     1      25.071  -0.948  55.509  1.00  0.00     0.035 A 
HETATM   11  C8  UNL     1      25.681  -0.018  54.694  1.00  0.00     0.069 A 
HETATM   12  C9  UNL     1      24.978   0.500  53.627  1.00  0.00     0.008 A 
HETATM   13  N2  UNL     1      26.948   0.597  54.661  1.00  0.00    -0.245 NA
HETATM   14  C10 UNL     1      23.697   0.151  53.314  1.00  0.00     0.044 A 
HETATM   15  C11 UNL     1      25.866   1.443  52.959  1.00  0.00     0.018 C 
HETATM   16  C18 UNL     1      27.026   1.293  53.577  1.00  0.00     0.099 C 
BRANCH  15  17
HETATM   17  C12 UNL     1      25.652   2.380  51.863  1.00  0.00    -0.021 A 
HETATM   18  C13 UNL     1      26.545   2.400  50.803  1.00  0.00     0.012 A 
HETATM   19  C14 UNL     1      26.472   3.228  49.702  1.00  0.00     0.002 A 
HETATM   20  C15 UNL     1      25.411   4.113  49.661  1.00  0.00     0.019 A 
HETATM   21  C16 UNL     1      24.489   4.139  50.690  1.00  0.00     0.011 A 
HETATM   22 BR1  UNL     1      23.013   5.323  50.699  1.00  0.00    -0.051 Br
HETATM   23  C17 UNL     1      24.605   3.285  51.779  1.00  0.00     0.031 A 
ENDBRANCH  15  17
ENDBRANCH   6   8
ENDBRANCH   3   4
TORSDOF 3
ENDMDL
MODEL 5
REMARK VINA RESULT:      -8.0      3.356      5.411
REMARK  3 active torsions:
REMARK  status: ('A' for Active; 'I' for Inactive)
REMARK    1  A    between atoms: C3_3  and  C4_4 
REMARK       I    between atoms: C4_4  and  N1_6 
REMARK    2  A    between atoms: N1_6  and  C5_7 
REMARK    3  A    between atoms: C11_13  and  C12_14 
ROOT
HETATM    1  C1  UNL     1      22.456   6.131  46.137  1.00  0.00     0.112 C 
HETATM    2  C2  UNL     1      22.623   5.452  47.439  1.00  0.00    -0.101 C 
HETATM    3  C3  UNL     1      22.744   4.884  48.496  1.00  0.00    -0.006 C 
ENDROOT
BRANCH   3   4
HETATM    4  C4  UNL     1      22.872   4.218  49.760  1.00  0.00     0.300 C 
HETATM    5  O1  UNL     1      23.208   4.796  50.826  1.00  0.00    -0.258 OA
HETATM    6  N1  UNL     1      22.592   2.804  49.783  1.00  0.00    -0.316 N 
HETATM    7  H4  UNL     1      22.305   2.269  48.915  1.00  0.00     0.170 HD
BRANCH   6   8
HETATM    8  C5  UNL     1      22.635   1.892  50.878  1.00  0.00     0.036 A 
HETATM    9  C6  UNL     1      21.468   1.305  51.335  1.00  0.00     0.032 A 
HETATM   10  C7  UNL     1      21.424   0.404  52.398  1.00  0.00     0.035 A 
HETATM   11  C8  UNL     1      22.619   0.097  53.013  1.00  0.00     0.069 A 
HETATM   12  C9  UNL     1      23.779   0.685  52.553  1.00  0.00     0.008 A 
HETATM   13  N2  UNL     1      23.003  -0.735  54.082  1.00  0.00    -0.245 NA
HETATM   14  C10 UNL     1      23.828   1.567  51.513  1.00  0.00     0.044 A 
HETATM   15  C11 UNL     1      24.863   0.177  53.383  1.00  0.00     0.018 C 
HETATM   16  C18 UNL     1      24.292  -0.748  54.136  1.00  0.00     0.099 C 
BRANCH  15  17
HETATM   17  C12 UNL     1      26.278   0.521  53.463  1.00  0.00    -0.021 A 
HETATM   18  C13 UNL     1      26.651   1.855  53.498  1.00  0.00     0.012 A 
HETATM   19  C14 UNL     1      27.944   2.330  53.572  1.00  0.00     0.002 A 
HETATM   20  C15 UNL     1      28.951   1.384  53.615  1.00  0.00     0.019 A 
HETATM   21  C16 UNL     1      28.639   0.038  53.583  1.00  0.00     0.011 A 
HETATM   22 BR1  UNL     1      29.964  -1.312  53.639  1.00  0.00    -0.051 Br
HETATM   23  C17 UNL     1      27.321  -0.392  53.508  1.00  0.00     0.031 A 
ENDBRANCH  15  17
ENDBRANCH   6   8
ENDBRANCH   3   4
TORSDOF 3
ENDMDL
MODEL 6
REMARK VINA RESULT:      -8.0      3.890      6.150
REMARK  3 active torsions:
REMARK  status: ('A' for Active; 'I' for Inactive)
REMARK    1  A    between atoms: C3_3  and  C4_4 
REMARK       I    between atoms: C4_4  and  N1_6 
REMARK    2  A    between atoms: N1_6  and  C5_7 
REMARK    3  A    between atoms: C11_13  and  C12_14 
ROOT
HETATM    1  C1  UNL     1      18.973   4.654  48.097  1.00  0.00     0.112 C 
HETATM    2  C2  UNL     1      19.458   4.028  49.345  1.00  0.00    -0.101 C 
HETATM    3  C3  UNL     1      19.835   3.515  50.369  1.00  0.00    -0.006 C 
ENDROOT
BRANCH   3   4
HETATM    4  C4  UNL     1      20.279   2.921  51.597  1.00  0.00     0.300 C 
HETATM    5  O1  UNL     1      20.230   3.500  52.714  1.00  0.00    -0.258 OA
HETATM    6  N1  UNL     1      20.806   1.581  51.520  1.00  0.00    -0.316 N 
HETATM    7  H4  UNL     1      20.868   1.049  50.606  1.00  0.00     0.170 HD
BRANCH   6   8
HETATM    8  C5  UNL     1      21.314   0.750  52.560  1.00  0.00     0.036 A 
HETATM    9  C6  UNL     1      20.445   0.000  53.333  1.00  0.00     0.032 A 
HETATM   10  C7  UNL     1      20.859  -0.837  54.368  1.00  0.00     0.035 A 
HETATM   11  C8  UNL     1      22.214  -0.907  54.616  1.00  0.00     0.069 A 
HETATM   12  C9  UNL     1      23.076  -0.158  53.842  1.00  0.00     0.008 A 
HETATM   13  N2  UNL     1      23.023  -1.604  55.534  1.00  0.00    -0.245 NA
HETATM   14  C10 UNL     1      22.675   0.663  52.828  1.00  0.00     0.044 A 
HETATM   15  C11 UNL     1      24.421  -0.432  54.329  1.00  0.00     0.018 C 
HETATM   16  C18 UNL     1      24.257  -1.399  55.217  1.00  0.00     0.099 C 
BRANCH  15  17
HETATM   17  C12 UNL     1      25.718   0.148  54.000  1.00  0.00    -0.021 A 
HETATM   18  C13 UNL     1      25.813   1.511  53.769  1.00  0.00     0.012 A 
HETATM   19  C14 UNL     1      26.966   2.197  53.449  1.00  0.00     0.002 A 
HETATM   20  C15 UNL     1      28.125   1.451  53.353  1.00  0.00     0.019 A 
HETATM   21  C16 UNL     1      28.092   0.087  53.573  1.00  0.00     0.011 A 
HETATM   22 BR1  UNL     1      29.639  -0.997  53.458  1.00  0.00    -0.051 Br
HETATM   23  C17 UNL     1      26.906  -0.560  53.893  1.00  0.00     0.031 A 
ENDBRANCH  15  17
ENDBRANCH   6   8
ENDBRANCH   3   4
TORSDOF 3
ENDMDL
MODEL 7
REMARK VINA RESULT:      -8.0      3.568      6.185
REMARK  3 active torsions:
REMARK  status: ('A' for Active; 'I' for Inactive)
REMARK    1  A    between atoms: C3_3  and  C4_4 
REMARK       I    between atoms: C4_4  and  N1_6 
REMARK    2  A    between atoms: N1_6  and  C5_7 
REMARK    3  A    between atoms: C11_13  and  C12_14 
ROOT
HETATM    1  C1  UNL     1      18.526   3.337  45.939  1.00  0.00     0.112 C 
HETATM    2  C2  UNL     1      18.829   3.027  47.352  1.00  0.00    -0.101 C 
HETATM    3  C3  UNL     1      19.095   2.767  48.500  1.00  0.00    -0.006 C 
ENDROOT
BRANCH   3   4
HETATM    4  C4  UNL     1      19.409   2.439  49.860  1.00  0.00     0.300 C 
HETATM    5  O1  UNL     1      19.332   3.256  50.814  1.00  0.00    -0.258 OA
HETATM    6  N1  UNL     1      19.834   1.087  50.123  1.00  0.00    -0.316 N 
HETATM    7  H4  UNL     1      19.915   0.359  49.357  1.00  0.00     0.170 HD
BRANCH   6   8
HETATM    8  C5  UNL     1      20.206   0.481  51.359  1.00  0.00     0.036 A 
HETATM    9  C6  UNL     1      19.230   0.002  52.215  1.00  0.00     0.032 A 
HETATM   10  C7  UNL     1      19.508  -0.603  53.440  1.00  0.00     0.035 A 
HETATM   11  C8  UNL     1      20.835  -0.721  53.796  1.00  0.00     0.069 A 
HETATM   12  C9  UNL     1      21.804  -0.243  52.938  1.00  0.00     0.008 A 
HETATM   13  N2  UNL     1      21.525  -1.249  54.905  1.00  0.00    -0.245 NA
HETATM   14  C10 UNL     1      21.537   0.350  51.738  1.00  0.00     0.044 A 
HETATM   15  C11 UNL     1      23.089  -0.503  53.572  1.00  0.00     0.018 C 
HETATM   16  C18 UNL     1      22.787  -1.221  54.640  1.00  0.00     0.099 C 
BRANCH  15  17
HETATM   17  C12 UNL     1      24.451  -0.120  53.216  1.00  0.00    -0.021 A 
HETATM   18  C13 UNL     1      25.516  -0.822  53.759  1.00  0.00     0.012 A 
HETATM   19  C14 UNL     1      26.852  -0.576  53.516  1.00  0.00     0.002 A 
HETATM   20  C15 UNL     1      27.144   0.465  52.655  1.00  0.00     0.019 A 
HETATM   21  C16 UNL     1      26.123   1.200  52.084  1.00  0.00     0.011 A 
HETATM   22 BR1  UNL     1      26.449   2.637  50.896  1.00  0.00    -0.051 Br
HETATM   23  C17 UNL     1      24.792   0.914  52.359  1.00  0.00     0.031 A 
ENDBRANCH  15  17
ENDBRANCH   6   8
ENDBRANCH   3   4
TORSDOF 3
ENDMDL
MODEL 8
REMARK VINA RESULT:      -7.9      3.778      6.701
REMARK  3 active torsions:
REMARK  status: ('A' for Active; 'I' for Inactive)
REMARK    1  A    between atoms: C3_3  and  C4_4 
REMARK       I    between atoms: C4_4  and  N1_6 
REMARK    2  A    between atoms: N1_6  and  C5_7 
REMARK    3  A    between atoms: C11_13  and  C12_14 
ROOT
HETATM    1  C1  UNL     1      34.979   3.399  47.010  1.00  0.00     0.112 C 
HETATM    2  C2  UNL     1      33.769   4.059  47.544  1.00  0.00    -0.101 C 
HETATM    3  C3  UNL     1      32.779   4.607  47.962  1.00  0.00    -0.006 C 
ENDROOT
BRANCH   3   4
HETATM    4  C4  UNL     1      31.612   5.276  48.460  1.00  0.00     0.300 C 
HETATM    5  O1  UNL     1      31.599   5.984  49.500  1.00  0.00    -0.258 OA
HETATM    6  N1  UNL     1      30.394   5.111  47.705  1.00  0.00    -0.316 N 
HETATM    7  H4  UNL     1      30.350   4.526  46.823  1.00  0.00     0.170 HD
BRANCH   6   8
HETATM    8  C5  UNL     1      29.097   5.647  47.954  1.00  0.00     0.036 A 
HETATM    9  C6  UNL     1      28.786   6.928  47.531  1.00  0.00     0.032 A 
HETATM   10  C7  UNL     1      27.543   7.526  47.733  1.00  0.00     0.035 A 
HETATM   11  C8  UNL     1      26.588   6.783  48.394  1.00  0.00     0.069 A 
HETATM   12  C9  UNL     1      26.904   5.507  48.814  1.00  0.00     0.008 A 
HETATM   13  N2  UNL     1      25.254   7.002  48.789  1.00  0.00    -0.245 NA
HETATM   14  C10 UNL     1      28.118   4.917  48.618  1.00  0.00     0.044 A 
HETATM   15  C11 UNL     1      25.716   4.977  49.471  1.00  0.00     0.018 C 
HETATM   16  C18 UNL     1      24.788   5.894  49.257  1.00  0.00     0.099 C 
BRANCH  15  17
HETATM   17  C12 UNL     1      25.477   3.747  50.217  1.00  0.00    -0.021 A 
HETATM   18  C13 UNL     1      26.546   3.099  50.816  1.00  0.00     0.012 A 
HETATM   19  C14 UNL     1      26.474   1.932  51.549  1.00  0.00     0.002 A 
HETATM   20  C15 UNL     1      25.221   1.367  51.694  1.00  0.00     0.019 A 
HETATM   21  C16 UNL     1      24.118   1.969  51.118  1.00  0.00     0.011 A 
HETATM   22 BR1  UNL     1      22.374   1.251  51.275  1.00  0.00    -0.051 Br
HETATM   23  C17 UNL     1      24.241   3.144  50.388  1.00  0.00     0.031 A 
ENDBRANCH  15  17
ENDBRANCH   6   8
ENDBRANCH   3   4
TORSDOF 3
ENDMDL
MODEL 9
REMARK VINA RESULT:      -7.8      3.628      5.999
REMARK  3 active torsions:
REMARK  status: ('A' for Active; 'I' for Inactive)
REMARK    1  A    between atoms: C3_3  and  C4_4 
REMARK       I    between atoms: C4_4  and  N1_6 
REMARK    2  A    between atoms: N1_6  and  C5_7 
REMARK    3  A    between atoms: C11_13  and  C12_14 
ROOT
HETATM    1  C1  UNL     1      30.040  -0.908  53.687  1.00  0.00     0.112 C 
HETATM    2  C2  UNL     1      28.724  -0.235  53.693  1.00  0.00    -0.101 C 
HETATM    3  C3  UNL     1      27.655   0.324  53.716  1.00  0.00    -0.006 C 
ENDROOT
BRANCH   3   4
HETATM    4  C4  UNL     1      26.378   0.976  53.756  1.00  0.00     0.300 C 
HETATM    5  O1  UNL     1      26.166   2.066  54.349  1.00  0.00    -0.258 OA
HETATM    6  N1  UNL     1      25.291   0.324  53.069  1.00  0.00    -0.316 N 
HETATM    7  H4  UNL     1      25.416  -0.595  52.555  1.00  0.00     0.170 HD
BRANCH   6   8
HETATM    8  C5  UNL     1      23.931   0.730  52.940  1.00  0.00     0.036 A 
HETATM    9  C6  UNL     1      22.913  -0.173  53.190  1.00  0.00     0.032 A 
HETATM   10  C7  UNL     1      21.559   0.143  53.087  1.00  0.00     0.035 A 
HETATM   11  C8  UNL     1      21.241   1.432  52.714  1.00  0.00     0.069 A 
HETATM   12  C9  UNL     1      22.260   2.328  52.466  1.00  0.00     0.008 A 
HETATM   13  N2  UNL     1      20.042   2.139  52.500  1.00  0.00    -0.245 NA
HETATM   14  C10 UNL     1      23.586   2.024  52.566  1.00  0.00     0.044 A 
HETATM   15  C11 UNL     1      21.628   3.588  52.098  1.00  0.00     0.018 C 
HETATM   16  C18 UNL     1      20.338   3.379  52.300  1.00  0.00     0.099 C 
BRANCH  15  17
HETATM   17  C12 UNL     1      22.173   4.851  51.611  1.00  0.00    -0.021 A 
HETATM   18  C13 UNL     1      23.528   5.103  51.750  1.00  0.00     0.012 A 
HETATM   19  C14 UNL     1      24.183   6.246  51.340  1.00  0.00     0.002 A 
HETATM   20  C15 UNL     1      23.410   7.221  50.738  1.00  0.00     0.019 A 
HETATM   21  C16 UNL     1      22.052   7.025  50.571  1.00  0.00     0.011 A 
HETATM   22 BR1  UNL     1      20.933   8.315  49.756  1.00  0.00    -0.051 Br
HETATM   23  C17 UNL     1      21.438   5.856  51.001  1.00  0.00     0.031 A 
ENDBRANCH  15  17
ENDBRANCH   6   8
ENDBRANCH   3   4
TORSDOF 3
ENDMDL
