MODEL 1
REMARK VINA RESULT:      -7.0      0.000      0.000
REMARK  9 active torsions:
REMARK  status: ('A' for Active; 'I' for Inactive)
REMARK    1  A    between atoms: C2_2  and  C3_3 
REMARK    2  A    between atoms: C3_3  and  C4_4 
REMARK    3  A    between atoms: C4_4  and  N1_5 
REMARK    4  A    between atoms: N1_5  and  C5_6 
REMARK    5  A    between atoms: N1_5  and  C12_15 
REMARK    6  A    between atoms: C5_6  and  C6_7 
REMARK    7  A    between atoms: C11_13  and  O1_14 
REMARK    8  A    between atoms: C17_20  and  N2_21 
REMARK    9  A    between atoms: N2_21  and  C18_22 
ROOT
HETATM    1  N1  UNL     1      24.704   2.673  51.496  1.00  0.00    -0.375 N 
ENDROOT
BRANCH   1   2
HETATM    2  C4  UNL     1      23.457   2.148  50.906  1.00  0.00     0.123 C 
BRANCH   2   3
HETATM    3  C3  UNL     1      22.420   1.809  51.945  1.00  0.00     0.019 C 
BRANCH   3   4
HETATM    4  C2  UNL     1      21.860   0.448  51.674  1.00  0.00    -0.003 C 
HETATM    5  C1  UNL     1      22.004  -0.464  52.842  1.00  0.00     0.005 C 
ENDBRANCH   3   4
ENDBRANCH   2   3
ENDBRANCH   1   2
BRANCH   1   6
HETATM    6  C5  UNL     1      24.889   2.130  52.814  1.00  0.00     0.164 C 
BRANCH   6   7
HETATM    7  C6  UNL     1      25.995   1.159  52.953  1.00  0.00    -0.005 A 
HETATM    8  C7  UNL     1      25.753  -0.163  52.552  1.00  0.00     0.012 A 
HETATM    9  C8  UNL     1      26.642  -1.217  52.618  1.00  0.00     0.002 A 
HETATM   10  C9  UNL     1      27.896  -0.952  53.128  1.00  0.00     0.026 A 
HETATM   11  C10 UNL     1      28.190   0.332  53.538  1.00  0.00     0.067 A 
HETATM   12 CL1  UNL     1      29.776   0.689  54.188  1.00  0.00    -0.081 Cl
HETATM   13  C11 UNL     1      27.267   1.349  53.451  1.00  0.00     0.095 A 
BRANCH  13  14
HETATM   14  O1  UNL     1      27.548   2.645  53.854  1.00  0.00    -0.358 OA
HETATM   15  H15 UNL     1      28.079   3.301  53.293  1.00  0.00     0.217 HD
ENDBRANCH  13  14
ENDBRANCH   6   7
ENDBRANCH   1   6
BRANCH   1  16
HETATM   16  C12 UNL     1      25.402   3.586  50.634  1.00  0.00     0.057 A 
HETATM   17  C13 UNL     1      26.407   3.307  49.742  1.00  0.00     0.031 A 
HETATM   18  C14 UNL     1      26.988   4.276  48.954  1.00  0.00     0.002 A 
HETATM   19  C15 UNL     1      26.546   5.567  49.066  1.00  0.00     0.002 A 
HETATM   20  C16 UNL     1      25.529   5.944  49.947  1.00  0.00     0.032 A 
HETATM   21  C17 UNL     1      25.007   4.912  50.693  1.00  0.00     0.059 A 
BRANCH  21  22
HETATM   22  N2  UNL     1      23.975   5.344  51.583  1.00  0.00    -0.355 N 
HETATM   23  H20 UNL     1      23.802   5.446  52.607  1.00  0.00     0.166 HD
BRANCH  22  24
HETATM   24  C18 UNL     1      22.677   5.838  51.238  1.00  0.00     0.170 C 
HETATM   25  S1  UNL     1      21.215   5.317  50.829  1.00  0.00    -0.074 SA
ENDBRANCH  22  24
ENDBRANCH  21  22
ENDBRANCH   1  16
TORSDOF 9
ENDMDL
MODEL 2
REMARK VINA RESULT:      -6.9      1.606      1.991
REMARK  9 active torsions:
REMARK  status: ('A' for Active; 'I' for Inactive)
REMARK    1  A    between atoms: C2_2  and  C3_3 
REMARK    2  A    between atoms: C3_3  and  C4_4 
REMARK    3  A    between atoms: C4_4  and  N1_5 
REMARK    4  A    between atoms: N1_5  and  C5_6 
REMARK    5  A    between atoms: N1_5  and  C12_15 
REMARK    6  A    between atoms: C5_6  and  C6_7 
REMARK    7  A    between atoms: C11_13  and  O1_14 
REMARK    8  A    between atoms: C17_20  and  N2_21 
REMARK    9  A    between atoms: N2_21  and  C18_22 
ROOT
HETATM    1  N1  UNL     1      25.188   1.984  52.239  1.00  0.00    -0.375 N 
ENDROOT
BRANCH   1   2
HETATM    2  C4  UNL     1      23.994   1.188  51.899  1.00  0.00     0.123 C 
BRANCH   2   3
HETATM    3  C3  UNL     1      23.122   0.906  53.095  1.00  0.00     0.019 C 
BRANCH   3   4
HETATM    4  C2  UNL     1      22.726  -0.536  53.103  1.00  0.00    -0.003 C 
HETATM    5  C1  UNL     1      22.266  -0.990  54.444  1.00  0.00     0.005 C 
ENDBRANCH   3   4
ENDBRANCH   2   3
ENDBRANCH   1   2
BRANCH   1   6
HETATM    6  C5  UNL     1      25.679   1.604  53.535  1.00  0.00     0.164 C 
BRANCH   6   7
HETATM    7  C6  UNL     1      26.993   0.927  53.544  1.00  0.00    -0.005 A 
HETATM    8  C7  UNL     1      28.130   1.719  53.756  1.00  0.00     0.012 A 
HETATM    9  C8  UNL     1      29.440   1.284  53.782  1.00  0.00     0.002 A 
HETATM   10  C9  UNL     1      29.662  -0.062  53.581  1.00  0.00     0.026 A 
HETATM   11  C10 UNL     1      28.579  -0.890  53.367  1.00  0.00     0.067 A 
HETATM   12 CL1  UNL     1      28.839  -2.602  53.109  1.00  0.00    -0.081 Cl
HETATM   13  C11 UNL     1      27.290  -0.407  53.350  1.00  0.00     0.095 A 
BRANCH  13  14
HETATM   14  O1  UNL     1      26.192  -1.225  53.142  1.00  0.00    -0.358 OA
HETATM   15  H15 UNL     1      25.893  -1.936  53.799  1.00  0.00     0.217 HD
ENDBRANCH  13  14
ENDBRANCH   6   7
ENDBRANCH   1   6
BRANCH   1  16
HETATM   16  C12 UNL     1      25.550   2.932  51.222  1.00  0.00     0.057 A 
HETATM   17  C13 UNL     1      26.478   2.785  50.221  1.00  0.00     0.031 A 
HETATM   18  C14 UNL     1      26.722   3.770  49.289  1.00  0.00     0.002 A 
HETATM   19  C15 UNL     1      26.014   4.939  49.363  1.00  0.00     0.002 A 
HETATM   20  C16 UNL     1      25.051   5.176  50.348  1.00  0.00     0.032 A 
HETATM   21  C17 UNL     1      24.871   4.140  51.235  1.00  0.00     0.059 A 
BRANCH  21  22
HETATM   22  N2  UNL     1      23.882   4.428  52.226  1.00  0.00    -0.355 N 
HETATM   23  H20 UNL     1      23.803   4.532  53.261  1.00  0.00     0.166 HD
BRANCH  22  24
HETATM   24  C18 UNL     1      22.493   4.698  52.017  1.00  0.00     0.170 C 
HETATM   25  S1  UNL     1      21.093   3.937  51.816  1.00  0.00    -0.074 SA
ENDBRANCH  22  24
ENDBRANCH  21  22
ENDBRANCH   1  16
TORSDOF 9
ENDMDL
MODEL 3
REMARK VINA RESULT:      -6.6      1.981      4.263
REMARK  9 active torsions:
REMARK  status: ('A' for Active; 'I' for Inactive)
REMARK    1  A    between atoms: C2_2  and  C3_3 
REMARK    2  A    between atoms: C3_3  and  C4_4 
REMARK    3  A    between atoms: C4_4  and  N1_5 
REMARK    4  A    between atoms: N1_5  and  C5_6 
REMARK    5  A    between atoms: N1_5  and  C12_15 
REMARK    6  A    between atoms: C5_6  and  C6_7 
REMARK    7  A    between atoms: C11_13  and  O1_14 
REMARK    8  A    between atoms: C17_20  and  N2_21 
REMARK    9  A    between atoms: N2_21  and  C18_22 
ROOT
HETATM    1  N1  UNL     1      24.270   2.468  51.588  1.00  0.00    -0.375 N 
ENDROOT
BRANCH   1   2
HETATM    2  C4  UNL     1      25.145   3.533  51.064  1.00  0.00     0.123 C 
BRANCH   2   3
HETATM    3  C3  UNL     1      26.264   3.000  50.208  1.00  0.00     0.019 C 
BRANCH   3   4
HETATM    4  C2  UNL     1      26.799   4.092  49.337  1.00  0.00    -0.003 C 
HETATM    5  C1  UNL     1      25.793   5.159  49.085  1.00  0.00     0.005 C 
ENDBRANCH   3   4
ENDBRANCH   2   3
ENDBRANCH   1   2
BRANCH   1   6
HETATM    6  C5  UNL     1      24.679   2.107  52.917  1.00  0.00     0.164 C 
BRANCH   6   7
HETATM    7  C6  UNL     1      25.850   1.208  53.001  1.00  0.00    -0.005 A 
HETATM    8  C7  UNL     1      25.706  -0.094  52.503  1.00  0.00     0.012 A 
HETATM    9  C8  UNL     1      26.667  -1.086  52.505  1.00  0.00     0.002 A 
HETATM   10  C9  UNL     1      27.895  -0.771  53.049  1.00  0.00     0.026 A 
HETATM   11  C10 UNL     1      28.094   0.497  53.554  1.00  0.00     0.067 A 
HETATM   12 CL1  UNL     1      29.645   0.916  54.249  1.00  0.00    -0.081 Cl
HETATM   13  C11 UNL     1      27.102   1.450  53.529  1.00  0.00     0.095 A 
BRANCH  13  14
HETATM   14  O1  UNL     1      27.286   2.730  54.027  1.00  0.00    -0.358 OA
HETATM   15  H15 UNL     1      26.549   3.424  54.070  1.00  0.00     0.217 HD
ENDBRANCH  13  14
ENDBRANCH   6   7
ENDBRANCH   1   6
BRANCH   1  16
HETATM   16  C12 UNL     1      23.258   2.052  50.657  1.00  0.00     0.057 A 
HETATM   17  C13 UNL     1      23.146   2.379  49.328  1.00  0.00     0.031 A 
HETATM   18  C14 UNL     1      22.130   1.898  48.531  1.00  0.00     0.002 A 
HETATM   19  C15 UNL     1      21.196   1.065  49.085  1.00  0.00     0.002 A 
HETATM   20  C16 UNL     1      21.230   0.680  50.428  1.00  0.00     0.032 A 
HETATM   21  C17 UNL     1      22.278   1.205  51.148  1.00  0.00     0.059 A 
BRANCH  21  22
HETATM   22  N2  UNL     1      22.270   0.789  52.516  1.00  0.00    -0.355 N 
HETATM   23  H20 UNL     1      22.435   1.186  53.466  1.00  0.00     0.166 HD
BRANCH  22  24
HETATM   24  C18 UNL     1      21.980  -0.515  53.028  1.00  0.00     0.170 C 
HETATM   25  S1  UNL     1      21.752  -1.283  54.419  1.00  0.00    -0.074 SA
ENDBRANCH  22  24
ENDBRANCH  21  22
ENDBRANCH   1  16
TORSDOF 9
ENDMDL
MODEL 4
REMARK VINA RESULT:      -6.4      2.337      4.774
REMARK  9 active torsions:
REMARK  status: ('A' for Active; 'I' for Inactive)
REMARK    1  A    between atoms: C2_2  and  C3_3 
REMARK    2  A    between atoms: C3_3  and  C4_4 
REMARK    3  A    between atoms: C4_4  and  N1_5 
REMARK    4  A    between atoms: N1_5  and  C5_6 
REMARK    5  A    between atoms: N1_5  and  C12_15 
REMARK    6  A    between atoms: C5_6  and  C6_7 
REMARK    7  A    between atoms: C11_13  and  O1_14 
REMARK    8  A    between atoms: C17_20  and  N2_21 
REMARK    9  A    between atoms: N2_21  and  C18_22 
ROOT
HETATM    1  N1  UNL     1      24.109   1.069  52.686  1.00  0.00    -0.375 N 
ENDROOT
BRANCH   1   2
HETATM    2  C4  UNL     1      23.669   2.468  52.852  1.00  0.00     0.123 C 
BRANCH   2   3
HETATM    3  C3  UNL     1      23.951   3.315  51.639  1.00  0.00     0.019 C 
BRANCH   3   4
HETATM    4  C2  UNL     1      22.667   3.845  51.083  1.00  0.00    -0.003 C 
HETATM    5  C1  UNL     1      21.668   4.138  52.147  1.00  0.00     0.005 C 
ENDBRANCH   3   4
ENDBRANCH   2   3
ENDBRANCH   1   2
BRANCH   1   6
HETATM    6  C5  UNL     1      25.267   1.018  51.837  1.00  0.00     0.164 C 
BRANCH   6   7
HETATM    7  C6  UNL     1      26.528   0.629  52.504  1.00  0.00    -0.005 A 
HETATM    8  C7  UNL     1      26.899  -0.722  52.455  1.00  0.00     0.012 A 
HETATM    9  C8  UNL     1      28.021  -1.286  53.028  1.00  0.00     0.002 A 
HETATM   10  C9  UNL     1      28.868  -0.444  53.718  1.00  0.00     0.026 A 
HETATM   11  C10 UNL     1      28.553   0.896  53.799  1.00  0.00     0.067 A 
HETATM   12 CL1  UNL     1      29.614   1.982  54.670  1.00  0.00    -0.081 Cl
HETATM   13  C11 UNL     1      27.420   1.410  53.210  1.00  0.00     0.095 A 
BRANCH  13  14
HETATM   14  O1  UNL     1      27.091   2.755  53.277  1.00  0.00    -0.358 OA
HETATM   15  H15 UNL     1      26.851   3.311  52.465  1.00  0.00     0.217 HD
ENDBRANCH  13  14
ENDBRANCH   6   7
ENDBRANCH   1   6
BRANCH   1  16
HETATM   16  C12 UNL     1      23.282   0.125  53.385  1.00  0.00     0.057 A 
HETATM   17  C13 UNL     1      23.532  -0.490  54.587  1.00  0.00     0.031 A 
HETATM   18  C14 UNL     1      22.644  -1.371  55.165  1.00  0.00     0.002 A 
HETATM   19  C15 UNL     1      21.469  -1.644  54.517  1.00  0.00     0.002 A 
HETATM   20  C16 UNL     1      21.132  -1.065  53.291  1.00  0.00     0.032 A 
HETATM   21  C17 UNL     1      22.075  -0.198  52.788  1.00  0.00     0.059 A 
BRANCH  21  22
HETATM   22  N2  UNL     1      21.691   0.365  51.532  1.00  0.00    -0.355 N 
HETATM   23  H20 UNL     1      22.122   0.655  50.627  1.00  0.00     0.166 HD
BRANCH  22  24
HETATM   24  C18 UNL     1      20.376   0.746  51.113  1.00  0.00     0.170 C 
HETATM   25  S1  UNL     1      19.615   1.450  49.888  1.00  0.00    -0.074 SA
ENDBRANCH  22  24
ENDBRANCH  21  22
ENDBRANCH   1  16
TORSDOF 9
ENDMDL
MODEL 5
REMARK VINA RESULT:      -6.4      2.439      5.872
REMARK  9 active torsions:
REMARK  status: ('A' for Active; 'I' for Inactive)
REMARK    1  A    between atoms: C2_2  and  C3_3 
REMARK    2  A    between atoms: C3_3  and  C4_4 
REMARK    3  A    between atoms: C4_4  and  N1_5 
REMARK    4  A    between atoms: N1_5  and  C5_6 
REMARK    5  A    between atoms: N1_5  and  C12_15 
REMARK    6  A    between atoms: C5_6  and  C6_7 
REMARK    7  A    between atoms: C11_13  and  O1_14 
REMARK    8  A    between atoms: C17_20  and  N2_21 
REMARK    9  A    between atoms: N2_21  and  C18_22 
ROOT
HETATM    1  N1  UNL     1      24.823   0.764  53.038  1.00  0.00    -0.375 N 
ENDROOT
BRANCH   1   2
HETATM    2  C4  UNL     1      25.774  -0.013  52.220  1.00  0.00     0.123 C 
BRANCH   2   3
HETATM    3  C3  UNL     1      26.738  -0.817  53.053  1.00  0.00     0.019 C 
BRANCH   3   4
HETATM    4  C2  UNL     1      28.070  -0.138  53.082  1.00  0.00    -0.003 C 
HETATM    5  C1  UNL     1      29.172  -1.069  53.448  1.00  0.00     0.005 C 
ENDBRANCH   3   4
ENDBRANCH   2   3
ENDBRANCH   1   2
BRANCH   1   6
HETATM    6  C5  UNL     1      25.223   2.144  53.076  1.00  0.00     0.164 C 
BRANCH   6   7
HETATM    7  C6  UNL     1      25.190   2.851  51.778  1.00  0.00    -0.005 A 
HETATM    8  C7  UNL     1      23.934   3.143  51.229  1.00  0.00     0.012 A 
HETATM    9  C8  UNL     1      23.691   3.776  50.026  1.00  0.00     0.002 A 
HETATM   10  C9  UNL     1      24.788   4.163  49.285  1.00  0.00     0.026 A 
HETATM   11  C10 UNL     1      26.049   3.902  49.777  1.00  0.00     0.067 A 
HETATM   12 CL1  UNL     1      27.455   4.386  48.852  1.00  0.00    -0.081 Cl
HETATM   13  C11 UNL     1      26.239   3.267  50.983  1.00  0.00     0.095 A 
BRANCH  13  14
HETATM   14  O1  UNL     1      27.499   3.001  51.494  1.00  0.00    -0.358 OA
HETATM   15  H15 UNL     1      28.219   2.511  50.976  1.00  0.00     0.217 HD
ENDBRANCH  13  14
ENDBRANCH   6   7
ENDBRANCH   1   6
BRANCH   1  16
HETATM   16  C12 UNL     1      23.766  -0.034  53.595  1.00  0.00     0.057 A 
HETATM   17  C13 UNL     1      23.794  -0.797  54.736  1.00  0.00     0.031 A 
HETATM   18  C14 UNL     1      22.700  -1.509  55.176  1.00  0.00     0.002 A 
HETATM   19  C15 UNL     1      21.541  -1.454  54.449  1.00  0.00     0.002 A 
HETATM   20  C16 UNL     1      21.422  -0.704  53.275  1.00  0.00     0.032 A 
HETATM   21  C17 UNL     1      22.562  -0.026  52.911  1.00  0.00     0.059 A 
BRANCH  21  22
HETATM   22  N2  UNL     1      22.395   0.722  51.704  1.00  0.00    -0.355 N 
HETATM   23  H20 UNL     1      22.865   1.488  51.175  1.00  0.00     0.166 HD
BRANCH  22  24
HETATM   24  C18 UNL     1      21.352   0.589  50.733  1.00  0.00     0.170 C 
HETATM   25  S1  UNL     1      20.932   1.118  49.277  1.00  0.00    -0.074 SA
ENDBRANCH  22  24
ENDBRANCH  21  22
ENDBRANCH   1  16
TORSDOF 9
ENDMDL
MODEL 6
REMARK VINA RESULT:      -6.3      1.418      4.001
REMARK  9 active torsions:
REMARK  status: ('A' for Active; 'I' for Inactive)
REMARK    1  A    between atoms: C2_2  and  C3_3 
REMARK    2  A    between atoms: C3_3  and  C4_4 
REMARK    3  A    between atoms: C4_4  and  N1_5 
REMARK    4  A    between atoms: N1_5  and  C5_6 
REMARK    5  A    between atoms: N1_5  and  C12_15 
REMARK    6  A    between atoms: C5_6  and  C6_7 
REMARK    7  A    between atoms: C11_13  and  O1_14 
REMARK    8  A    between atoms: C17_20  and  N2_21 
REMARK    9  A    between atoms: N2_21  and  C18_22 
ROOT
HETATM    1  N1  UNL     1      23.606   2.710  51.832  1.00  0.00    -0.375 N 
ENDROOT
BRANCH   1   2
HETATM    2  C4  UNL     1      24.271   2.808  50.519  1.00  0.00     0.123 C 
BRANCH   2   3
HETATM    3  C3  UNL     1      25.295   3.912  50.465  1.00  0.00     0.019 C 
BRANCH   3   4
HETATM    4  C2  UNL     1      26.497   3.449  49.704  1.00  0.00    -0.003 C 
HETATM    5  C1  UNL     1      27.155   4.557  48.958  1.00  0.00     0.005 C 
ENDBRANCH   3   4
ENDBRANCH   2   3
ENDBRANCH   1   2
BRANCH   1   6
HETATM    6  C5  UNL     1      24.570   2.884  52.884  1.00  0.00     0.164 C 
BRANCH   6   7
HETATM    7  C6  UNL     1      25.366   1.684  53.222  1.00  0.00    -0.005 A 
HETATM    8  C7  UNL     1      24.778   0.431  52.998  1.00  0.00     0.012 A 
HETATM    9  C8  UNL     1      25.344  -0.800  53.263  1.00  0.00     0.002 A 
HETATM   10  C9  UNL     1      26.614  -0.807  53.802  1.00  0.00     0.026 A 
HETATM   11  C10 UNL     1      27.241   0.398  54.043  1.00  0.00     0.067 A 
HETATM   12 CL1  UNL     1      28.853   0.411  54.727  1.00  0.00    -0.081 Cl
HETATM   13  C11 UNL     1      26.633   1.600  53.761  1.00  0.00     0.095 A 
BRANCH  13  14
HETATM   14  O1  UNL     1      27.250   2.819  53.993  1.00  0.00    -0.358 OA
HETATM   15  H15 UNL     1      28.256   2.944  53.989  1.00  0.00     0.217 HD
ENDBRANCH  13  14
ENDBRANCH   6   7
ENDBRANCH   1   6
BRANCH   1  16
HETATM   16  C12 UNL     1      22.195   2.457  51.739  1.00  0.00     0.057 A 
HETATM   17  C13 UNL     1      21.564   1.262  51.499  1.00  0.00     0.031 A 
HETATM   18  C14 UNL     1      20.193   1.146  51.450  1.00  0.00     0.002 A 
HETATM   19  C15 UNL     1      19.429   2.265  51.648  1.00  0.00     0.002 A 
HETATM   20  C16 UNL     1      19.984   3.523  51.897  1.00  0.00     0.032 A 
HETATM   21  C17 UNL     1      21.360   3.546  51.929  1.00  0.00     0.059 A 
BRANCH  21  22
HETATM   22  N2  UNL     1      21.882   4.852  52.182  1.00  0.00    -0.355 N 
HETATM   23  H20 UNL     1      22.257   5.416  52.975  1.00  0.00     0.166 HD
BRANCH  22  24
HETATM   24  C18 UNL     1      22.060   5.916  51.242  1.00  0.00     0.170 C 
HETATM   25  S1  UNL     1      21.220   6.835  50.229  1.00  0.00    -0.074 SA
ENDBRANCH  22  24
ENDBRANCH  21  22
ENDBRANCH   1  16
TORSDOF 9
ENDMDL
MODEL 7
REMARK VINA RESULT:      -6.2      6.421      8.742
REMARK  9 active torsions:
REMARK  status: ('A' for Active; 'I' for Inactive)
REMARK    1  A    between atoms: C2_2  and  C3_3 
REMARK    2  A    between atoms: C3_3  and  C4_4 
REMARK    3  A    between atoms: C4_4  and  N1_5 
REMARK    4  A    between atoms: N1_5  and  C5_6 
REMARK    5  A    between atoms: N1_5  and  C12_15 
REMARK    6  A    between atoms: C5_6  and  C6_7 
REMARK    7  A    between atoms: C11_13  and  O1_14 
REMARK    8  A    between atoms: C17_20  and  N2_21 
REMARK    9  A    between atoms: N2_21  and  C18_22 
ROOT
HETATM    1  N1  UNL     1      30.572   7.945  48.431  1.00  0.00    -0.375 N 
ENDROOT
BRANCH   1   2
HETATM    2  C4  UNL     1      29.624   7.211  47.570  1.00  0.00     0.123 C 
BRANCH   2   3
HETATM    3  C3  UNL     1      29.171   5.910  48.180  1.00  0.00     0.019 C 
BRANCH   3   4
HETATM    4  C2  UNL     1      27.691   5.940  48.394  1.00  0.00    -0.003 C 
HETATM    5  C1  UNL     1      27.164   4.639  48.889  1.00  0.00     0.005 C 
ENDBRANCH   3   4
ENDBRANCH   2   3
ENDBRANCH   1   2
BRANCH   1   6
HETATM    6  C5  UNL     1      31.237   7.030  49.318  1.00  0.00     0.164 C 
BRANCH   6   7
HETATM    7  C6  UNL     1      32.612   6.653  48.928  1.00  0.00    -0.005 A 
HETATM    8  C7  UNL     1      33.557   7.681  48.801  1.00  0.00     0.012 A 
HETATM    9  C8  UNL     1      34.879   7.540  48.431  1.00  0.00     0.002 A 
HETATM   10  C9  UNL     1      35.324   6.263  48.158  1.00  0.00     0.026 A 
HETATM   11  C10 UNL     1      34.438   5.212  48.267  1.00  0.00     0.067 A 
HETATM   12 CL1  UNL     1      34.983   3.584  47.924  1.00  0.00    -0.081 Cl
HETATM   13  C11 UNL     1      33.127   5.406  48.639  1.00  0.00     0.095 A 
BRANCH  13  14
HETATM   14  O1  UNL     1      32.225   4.361  48.758  1.00  0.00    -0.358 OA
HETATM   15  H15 UNL     1      31.346   4.437  49.257  1.00  0.00     0.217 HD
ENDBRANCH  13  14
ENDBRANCH   6   7
ENDBRANCH   1   6
BRANCH   1  16
HETATM   16  C12 UNL     1      30.585   9.360  48.186  1.00  0.00     0.057 A 
HETATM   17  C13 UNL     1      31.284  10.045  47.223  1.00  0.00     0.031 A 
HETATM   18  C14 UNL     1      31.199  11.412  47.079  1.00  0.00     0.002 A 
HETATM   19  C15 UNL     1      30.387  12.115  47.928  1.00  0.00     0.002 A 
HETATM   20  C16 UNL     1      29.640  11.502  48.938  1.00  0.00     0.032 A 
HETATM   21  C17 UNL     1      29.785  10.136  49.008  1.00  0.00     0.059 A 
BRANCH  21  22
HETATM   22  N2  UNL     1      29.008   9.553  50.057  1.00  0.00    -0.355 N 
HETATM   23  H20 UNL     1      29.138   9.156  51.013  1.00  0.00     0.166 HD
BRANCH  22  24
HETATM   24  C18 UNL     1      27.596   9.323  50.071  1.00  0.00     0.170 C 
HETATM   25  S1  UNL     1      26.281   9.597  49.191  1.00  0.00    -0.074 SA
ENDBRANCH  22  24
ENDBRANCH  21  22
ENDBRANCH   1  16
TORSDOF 9
ENDMDL
MODEL 8
REMARK VINA RESULT:      -6.1      2.997      6.144
REMARK  9 active torsions:
REMARK  status: ('A' for Active; 'I' for Inactive)
REMARK    1  A    between atoms: C2_2  and  C3_3 
REMARK    2  A    between atoms: C3_3  and  C4_4 
REMARK    3  A    between atoms: C4_4  and  N1_5 
REMARK    4  A    between atoms: N1_5  and  C5_6 
REMARK    5  A    between atoms: N1_5  and  C12_15 
REMARK    6  A    between atoms: C5_6  and  C6_7 
REMARK    7  A    between atoms: C11_13  and  O1_14 
REMARK    8  A    between atoms: C17_20  and  N2_21 
REMARK    9  A    between atoms: N2_21  and  C18_22 
ROOT
HETATM    1  N1  UNL     1      22.704   1.973  52.192  1.00  0.00    -0.375 N 
ENDROOT
BRANCH   1   2
HETATM    2  C4  UNL     1      22.689   1.520  50.788  1.00  0.00     0.123 C 
BRANCH   2   3
HETATM    3  C3  UNL     1      21.345   0.992  50.361  1.00  0.00     0.019 C 
BRANCH   3   4
HETATM    4  C2  UNL     1      20.975   1.567  49.030  1.00  0.00    -0.003 C 
HETATM    5  C1  UNL     1      22.156   1.736  48.139  1.00  0.00     0.005 C 
ENDBRANCH   3   4
ENDBRANCH   2   3
ENDBRANCH   1   2
BRANCH   1   6
HETATM    6  C5  UNL     1      22.874   3.399  52.245  1.00  0.00     0.164 C 
BRANCH   6   7
HETATM    7  C6  UNL     1      23.548   4.003  51.076  1.00  0.00    -0.005 A 
HETATM    8  C7  UNL     1      22.761   4.744  50.184  1.00  0.00     0.012 A 
HETATM    9  C8  UNL     1      23.193   5.368  49.031  1.00  0.00     0.002 A 
HETATM   10  C9  UNL     1      24.532   5.256  48.718  1.00  0.00     0.026 A 
HETATM   11  C10 UNL     1      25.354   4.538  49.560  1.00  0.00     0.067 A 
HETATM   12 CL1  UNL     1      27.056   4.383  49.181  1.00  0.00    -0.081 Cl
HETATM   13  C11 UNL     1      24.873   3.933  50.699  1.00  0.00     0.095 A 
BRANCH  13  14
HETATM   14  O1  UNL     1      25.686   3.212  51.559  1.00  0.00    -0.358 OA
HETATM   15  H15 UNL     1      26.385   2.550  51.242  1.00  0.00     0.217 HD
ENDBRANCH  13  14
ENDBRANCH   6   7
ENDBRANCH   1   6
BRANCH   1  16
HETATM   16  C12 UNL     1      22.564   0.901  53.138  1.00  0.00     0.057 A 
HETATM   17  C13 UNL     1      21.417   0.458  53.750  1.00  0.00     0.031 A 
HETATM   18  C14 UNL     1      21.411  -0.599  54.633  1.00  0.00     0.002 A 
HETATM   19  C15 UNL     1      22.593  -1.232  54.912  1.00  0.00     0.002 A 
HETATM   20  C16 UNL     1      23.808  -0.849  54.338  1.00  0.00     0.032 A 
HETATM   21  C17 UNL     1      23.720   0.214  53.468  1.00  0.00     0.059 A 
BRANCH  21  22
HETATM   22  N2  UNL     1      24.986   0.574  52.909  1.00  0.00    -0.355 N 
HETATM   23  H20 UNL     1      25.380   1.210  52.182  1.00  0.00     0.166 HD
BRANCH  22  24
HETATM   24  C18 UNL     1      26.274   0.063  53.267  1.00  0.00     0.170 C 
HETATM   25  S1  UNL     1      27.473   0.322  54.302  1.00  0.00    -0.074 SA
ENDBRANCH  22  24
ENDBRANCH  21  22
ENDBRANCH   1  16
TORSDOF 9
ENDMDL
MODEL 9
REMARK VINA RESULT:      -6.0      3.216      6.321
REMARK  9 active torsions:
REMARK  status: ('A' for Active; 'I' for Inactive)
REMARK    1  A    between atoms: C2_2  and  C3_3 
REMARK    2  A    between atoms: C3_3  and  C4_4 
REMARK    3  A    between atoms: C4_4  and  N1_5 
REMARK    4  A    between atoms: N1_5  and  C5_6 
REMARK    5  A    between atoms: N1_5  and  C12_15 
REMARK    6  A    between atoms: C5_6  and  C6_7 
REMARK    7  A    between atoms: C11_13  and  O1_14 
REMARK    8  A    between atoms: C17_20  and  N2_21 
REMARK    9  A    between atoms: N2_21  and  C18_22 
ROOT
HETATM    1  N1  UNL     1      25.104   2.420  52.317  1.00  0.00    -0.375 N 
ENDROOT
BRANCH   1   2
HETATM    2  C4  UNL     1      25.057   2.781  50.887  1.00  0.00     0.123 C 
BRANCH   2   3
HETATM    3  C3  UNL     1      26.352   3.372  50.392  1.00  0.00     0.019 C 
BRANCH   3   4
HETATM    4  C2  UNL     1      26.066   4.513  49.469  1.00  0.00    -0.003 C 
HETATM    5  C1  UNL     1      27.276   4.953  48.722  1.00  0.00     0.005 C 
ENDBRANCH   3   4
ENDBRANCH   2   3
ENDBRANCH   1   2
BRANCH   1   6
HETATM    6  C5  UNL     1      24.371   3.385  53.089  1.00  0.00     0.164 C 
BRANCH   6   7
HETATM    7  C6  UNL     1      23.198   3.982  52.415  1.00  0.00    -0.005 A 
HETATM    8  C7  UNL     1      22.103   3.146  52.157  1.00  0.00     0.012 A 
HETATM    9  C8  UNL     1      20.929   3.503  51.524  1.00  0.00     0.002 A 
HETATM   10  C9  UNL     1      20.813   4.811  51.102  1.00  0.00     0.026 A 
HETATM   11  C10 UNL     1      21.861   5.678  51.330  1.00  0.00     0.067 A 
HETATM   12 CL1  UNL     1      21.734   7.343  50.801  1.00  0.00    -0.081 Cl
HETATM   13  C11 UNL     1      23.012   5.272  51.965  1.00  0.00     0.095 A 
BRANCH  13  14
HETATM   14  O1  UNL     1      24.072   6.132  52.206  1.00  0.00    -0.358 OA
HETATM   15  H15 UNL     1      24.117   6.751  53.008  1.00  0.00     0.217 HD
ENDBRANCH  13  14
ENDBRANCH   6   7
ENDBRANCH   1   6
BRANCH   1  16
HETATM   16  C12 UNL     1      25.865   1.231  52.580  1.00  0.00     0.057 A 
HETATM   17  C13 UNL     1      27.229   1.074  52.544  1.00  0.00     0.031 A 
HETATM   18  C14 UNL     1      27.844  -0.123  52.835  1.00  0.00     0.002 A 
HETATM   19  C15 UNL     1      27.067  -1.198  53.173  1.00  0.00     0.002 A 
HETATM   20  C16 UNL     1      25.672  -1.132  53.234  1.00  0.00     0.032 A 
HETATM   21  C17 UNL     1      25.144   0.102  52.929  1.00  0.00     0.059 A 
BRANCH  21  22
HETATM   22  N2  UNL     1      23.716   0.121  53.000  1.00  0.00    -0.355 N 
HETATM   23  H20 UNL     1      22.907   0.614  52.561  1.00  0.00     0.166 HD
BRANCH  22  24
HETATM   24  C18 UNL     1      22.874  -0.672  53.841  1.00  0.00     0.170 C 
HETATM   25  S1  UNL     1      21.322  -0.963  54.130  1.00  0.00    -0.074 SA
ENDBRANCH  22  24
ENDBRANCH  21  22
ENDBRANCH   1  16
TORSDOF 9
ENDMDL
