MODEL 1
REMARK VINA RESULT:      -8.0      0.000      0.000
REMARK  2 active torsions:
REMARK  status: ('A' for Active; 'I' for Inactive)
REMARK    1  A    between atoms: O1_2  and  C2_3 
REMARK    2  A    between atoms: C8_10  and  N2_11 
ROOT
HETATM    1  C2  UNL     1      26.563   2.634  50.641  1.00  0.00     0.071 C 
HETATM    2  C3  UNL     1      25.308   3.095  50.453  1.00  0.00     0.068 C 
HETATM    3  C4  UNL     1      24.360   2.949  51.588  1.00  0.00     0.090 C 
HETATM    4  C5  UNL     1      24.257   4.090  52.255  1.00  0.00     0.021 C 
HETATM    5  C6  UNL     1      23.292   4.891  52.129  1.00  0.00     0.008 C 
HETATM    6  C7  UNL     1      22.063   4.721  52.451  1.00  0.00     0.149 C 
HETATM    7  N1  UNL     1      21.016   3.735  52.328  1.00  0.00    -0.075 NA
HETATM    8  C8  UNL     1      21.127   2.449  52.095  1.00  0.00     0.714 C 
HETATM    9  N3  UNL     1      22.254   1.566  51.881  1.00  0.00    -0.109 N 
HETATM   10  N4  UNL     1      23.673   1.710  51.879  1.00  0.00    -0.182 N 
HETATM   11  N5  UNL     1      23.981   0.363  52.217  1.00  0.00    -0.290 N 
HETATM   12  C9  UNL     1      24.616  -0.163  53.372  1.00  0.00     0.110 C 
HETATM   13  C10 UNL     1      25.713  -0.527  54.002  1.00  0.00     0.030 C 
HETATM   14  C11 UNL     1      27.123  -0.523  53.632  1.00  0.00    -0.026 A 
HETATM   15  C12 UNL     1      27.947  -1.517  53.243  1.00  0.00     0.012 A 
HETATM   16  C13 UNL     1      29.024  -0.556  53.127  1.00  0.00     0.011 A 
HETATM   17  C14 UNL     1      28.220   0.422  53.509  1.00  0.00    -0.024 A 
HETATM   18  C15 UNL     1      27.995   1.856  53.815  1.00  0.00     0.207 C 
HETATM   19  O2  UNL     1      27.957   2.645  52.627  1.00  0.00    -0.380 OA
HETATM   20  C16 UNL     1      26.916   2.035  51.922  1.00  0.00     0.232 C 
HETATM   21  H8  UNL     1      21.940   0.590  51.681  1.00  0.00     0.208 HD
HETATM   22  H9  UNL     1      23.640  -0.219  51.420  1.00  0.00     0.188 HD
ENDROOT
BRANCH   8  23
HETATM   23  N2  UNL     1      19.857   1.810  52.046  1.00  0.00    -0.231 N 
HETATM   24  H6  UNL     1      19.820   0.776  52.216  1.00  0.00     0.174 HD
HETATM   25  H7  UNL     1      19.306   2.663  51.832  1.00  0.00     0.174 HD
ENDBRANCH   8  23
BRANCH   1  26
HETATM   26  O1  UNL     1      26.804   3.050  49.364  1.00  0.00    -0.358 OA
HETATM   27  C1  UNL     1      27.097   4.410  49.033  1.00  0.00     0.209 C 
ENDBRANCH   1  26
TORSDOF 2
ENDMDL
MODEL 2
REMARK VINA RESULT:      -8.0      2.340      4.091
REMARK  2 active torsions:
REMARK  status: ('A' for Active; 'I' for Inactive)
REMARK    1  A    between atoms: O1_2  and  C2_3 
REMARK    2  A    between atoms: C8_10  and  N2_11 
ROOT
HETATM    1  C2  UNL     1      24.066  -0.609  54.093  1.00  0.00     0.071 C 
HETATM    2  C3  UNL     1      23.032   0.196  53.766  1.00  0.00     0.068 C 
HETATM    3  C4  UNL     1      23.267   1.188  52.685  1.00  0.00     0.090 C 
HETATM    4  C5  UNL     1      22.775   0.745  51.536  1.00  0.00     0.021 C 
HETATM    5  C6  UNL     1      21.679   1.133  51.048  1.00  0.00     0.008 C 
HETATM    6  C7  UNL     1      21.365   2.295  50.607  1.00  0.00     0.149 C 
HETATM    7  N1  UNL     1      21.474   3.684  50.983  1.00  0.00    -0.075 NA
HETATM    8  C8  UNL     1      22.300   4.238  51.838  1.00  0.00     0.714 C 
HETATM    9  N3  UNL     1      23.353   3.722  52.688  1.00  0.00    -0.109 N 
HETATM   10  N4  UNL     1      23.946   2.444  52.910  1.00  0.00    -0.182 N 
HETATM   11  N5  UNL     1      25.211   2.919  53.354  1.00  0.00    -0.290 N 
HETATM   12  C9  UNL     1      26.496   2.770  52.769  1.00  0.00     0.110 C 
HETATM   13  C10 UNL     1      27.617   2.091  52.644  1.00  0.00     0.030 C 
HETATM   14  C11 UNL     1      28.110   0.858  53.244  1.00  0.00    -0.026 A 
HETATM   15  C12 UNL     1      28.999   0.639  54.233  1.00  0.00     0.012 A 
HETATM   16  C13 UNL     1      28.796  -0.786  54.078  1.00  0.00     0.011 A 
HETATM   17  C14 UNL     1      27.923  -0.577  53.106  1.00  0.00    -0.024 A 
HETATM   18  C15 UNL     1      26.978  -1.104  52.093  1.00  0.00     0.207 C 
HETATM   19  O2  UNL     1      25.785  -1.600  52.698  1.00  0.00    -0.380 OA
HETATM   20  C16 UNL     1      25.330  -0.469  53.381  1.00  0.00     0.232 C 
HETATM   21  H8  UNL     1      23.772   4.478  53.275  1.00  0.00     0.208 HD
HETATM   22  H9  UNL     1      25.030   3.433  54.245  1.00  0.00     0.188 HD
ENDROOT
BRANCH   8  23
HETATM   23  N2  UNL     1      22.097   5.643  51.935  1.00  0.00    -0.231 N 
HETATM   24  H6  UNL     1      22.226   6.095  52.873  1.00  0.00     0.174 HD
HETATM   25  H7  UNL     1      21.859   5.795  50.937  1.00  0.00     0.174 HD
ENDBRANCH   8  23
BRANCH   1  26
HETATM   26  O1  UNL     1      23.222  -1.156  55.016  1.00  0.00    -0.358 OA
HETATM   27  C1  UNL     1      21.897  -1.589  54.695  1.00  0.00     0.209 C 
ENDBRANCH   1  26
TORSDOF 2
ENDMDL
MODEL 3
REMARK VINA RESULT:      -7.7      3.565      5.566
REMARK  2 active torsions:
REMARK  status: ('A' for Active; 'I' for Inactive)
REMARK    1  A    between atoms: O1_2  and  C2_3 
REMARK    2  A    between atoms: C8_10  and  N2_11 
ROOT
HETATM    1  C2  UNL     1      20.386   3.162  51.938  1.00  0.00     0.071 C 
HETATM    2  C3  UNL     1      20.846   4.334  51.449  1.00  0.00     0.068 C 
HETATM    3  C4  UNL     1      22.211   4.328  50.862  1.00  0.00     0.090 C 
HETATM    4  C5  UNL     1      22.146   4.253  49.540  1.00  0.00     0.021 C 
HETATM    5  C6  UNL     1      22.300   5.243  48.774  1.00  0.00     0.008 C 
HETATM    6  C7  UNL     1      23.355   5.942  48.571  1.00  0.00     0.149 C 
HETATM    7  N1  UNL     1      24.408   6.591  49.314  1.00  0.00    -0.075 NA
HETATM    8  C8  UNL     1      24.803   6.363  50.543  1.00  0.00     0.714 C 
HETATM    9  N3  UNL     1      24.376   5.440  51.575  1.00  0.00    -0.109 N 
HETATM   10  N4  UNL     1      23.409   4.395  51.668  1.00  0.00    -0.182 N 
HETATM   11  N5  UNL     1      24.059   3.654  52.694  1.00  0.00    -0.290 N 
HETATM   12  C9  UNL     1      24.615   2.349  52.660  1.00  0.00     0.110 C 
HETATM   13  C10 UNL     1      24.479   1.049  52.822  1.00  0.00     0.030 C 
HETATM   14  C11 UNL     1      23.359   0.205  53.218  1.00  0.00    -0.026 A 
HETATM   15  C12 UNL     1      23.069  -0.406  54.384  1.00  0.00     0.012 A 
HETATM   16  C13 UNL     1      21.863  -0.938  53.786  1.00  0.00     0.011 A 
HETATM   17  C14 UNL     1      22.143  -0.342  52.639  1.00  0.00    -0.024 A 
HETATM   18  C15 UNL     1      21.795  -0.038  51.231  1.00  0.00     0.207 C 
HETATM   19  O2  UNL     1      20.718   0.893  51.146  1.00  0.00    -0.380 OA
HETATM   20  C16 UNL     1      21.231   1.977  51.861  1.00  0.00     0.232 C 
HETATM   21  H8  UNL     1      24.913   5.583  52.459  1.00  0.00     0.208 HD
HETATM   22  H9  UNL     1      24.060   4.269  53.537  1.00  0.00     0.188 HD
ENDROOT
BRANCH   8  23
HETATM   23  N2  UNL     1      25.878   7.215  50.920  1.00  0.00    -0.231 N 
HETATM   24  H6  UNL     1      25.732   8.251  50.847  1.00  0.00     0.174 HD
HETATM   25  H7  UNL     1      26.540   6.459  51.177  1.00  0.00     0.174 HD
ENDBRANCH   8  23
BRANCH   1  26
HETATM   26  O1  UNL     1      19.253   3.852  52.260  1.00  0.00    -0.358 OA
HETATM   27  C1  UNL     1      18.073   3.826  51.451  1.00  0.00     0.209 C 
ENDBRANCH   1  26
TORSDOF 2
ENDMDL
MODEL 4
REMARK VINA RESULT:      -7.5      2.504      5.909
REMARK  2 active torsions:
REMARK  status: ('A' for Active; 'I' for Inactive)
REMARK    1  A    between atoms: O1_2  and  C2_3 
REMARK    2  A    between atoms: C8_10  and  N2_11 
ROOT
HETATM    1  C2  UNL     1      23.659   3.667  51.350  1.00  0.00     0.071 C 
HETATM    2  C3  UNL     1      24.511   3.144  52.258  1.00  0.00     0.068 C 
HETATM    3  C4  UNL     1      24.589   1.662  52.332  1.00  0.00     0.090 C 
HETATM    4  C5  UNL     1      25.648   1.221  51.667  1.00  0.00     0.021 C 
HETATM    5  C6  UNL     1      26.723   0.864  52.219  1.00  0.00     0.008 C 
HETATM    6  C7  UNL     1      26.932  -0.137  52.993  1.00  0.00     0.149 C 
HETATM    7  N1  UNL     1      26.346  -0.783  54.143  1.00  0.00    -0.075 NA
HETATM    8  C8  UNL     1      25.115  -0.704  54.587  1.00  0.00     0.714 C 
HETATM    9  N3  UNL     1      23.936   0.010  54.142  1.00  0.00    -0.109 N 
HETATM   10  N4  UNL     1      23.617   0.862  53.043  1.00  0.00    -0.182 N 
HETATM   11  N5  UNL     1      22.221   0.593  53.018  1.00  0.00    -0.290 N 
HETATM   12  C9  UNL     1      21.431  -0.030  52.016  1.00  0.00     0.110 C 
HETATM   13  C10 UNL     1      20.687   0.061  50.934  1.00  0.00     0.030 C 
HETATM   14  C11 UNL     1      20.268   1.183  50.103  1.00  0.00    -0.026 A 
HETATM   15  C12 UNL     1      19.096   1.844  50.020  1.00  0.00     0.012 A 
HETATM   16  C13 UNL     1      19.667   2.695  48.998  1.00  0.00     0.011 A 
HETATM   17  C14 UNL     1      20.819   2.050  49.075  1.00  0.00    -0.024 A 
HETATM   18  C15 UNL     1      22.220   1.865  48.628  1.00  0.00     0.207 C 
HETATM   19  O2  UNL     1      23.070   2.897  49.126  1.00  0.00    -0.380 OA
HETATM   20  C16 UNL     1      22.881   2.770  50.504  1.00  0.00     0.232 C 
HETATM   21  H8  UNL     1      23.130  -0.144  54.789  1.00  0.00     0.208 HD
HETATM   22  H9  UNL     1      21.842   0.953  53.922  1.00  0.00     0.188 HD
ENDROOT
BRANCH   8  23
HETATM   23  N2  UNL     1      24.922  -1.493  55.755  1.00  0.00    -0.231 N 
HETATM   24  H6  UNL     1      24.553  -2.468  55.634  1.00  0.00     0.174 HD
HETATM   25  H7  UNL     1      25.242  -0.776  56.433  1.00  0.00     0.174 HD
ENDBRANCH   8  23
BRANCH   1  26
HETATM   26  O1  UNL     1      24.073   4.885  51.806  1.00  0.00    -0.358 OA
HETATM   27  C1  UNL     1      23.992   6.077  51.019  1.00  0.00     0.209 C 
ENDBRANCH   1  26
TORSDOF 2
ENDMDL
MODEL 5
REMARK VINA RESULT:      -7.4      3.057      5.952
REMARK  2 active torsions:
REMARK  status: ('A' for Active; 'I' for Inactive)
REMARK    1  A    between atoms: O1_2  and  C2_3 
REMARK    2  A    between atoms: C8_10  and  N2_11 
ROOT
HETATM    1  C2  UNL     1      21.437   3.935  51.226  1.00  0.00     0.071 C 
HETATM    2  C3  UNL     1      22.729   4.327  51.239  1.00  0.00     0.068 C 
HETATM    3  C4  UNL     1      23.757   3.262  51.102  1.00  0.00     0.090 C 
HETATM    4  C5  UNL     1      24.196   3.201  49.853  1.00  0.00     0.021 C 
HETATM    5  C6  UNL     1      25.292   3.694  49.471  1.00  0.00     0.008 C 
HETATM    6  C7  UNL     1      26.483   3.341  49.790  1.00  0.00     0.149 C 
HETATM    7  N1  UNL     1      27.257   3.002  50.960  1.00  0.00    -0.075 NA
HETATM    8  C8  UNL     1      26.833   2.611  52.137  1.00  0.00     0.714 C 
HETATM    9  N3  UNL     1      25.518   2.381  52.700  1.00  0.00    -0.109 N 
HETATM   10  N4  UNL     1      24.179   2.437  52.211  1.00  0.00    -0.182 N 
HETATM   11  N5  UNL     1      23.622   1.510  53.135  1.00  0.00    -0.290 N 
HETATM   12  C9  UNL     1      23.039   0.237  52.908  1.00  0.00     0.110 C 
HETATM   13  C10 UNL     1      21.977  -0.500  52.657  1.00  0.00     0.030 C 
HETATM   14  C11 UNL     1      20.568  -0.183  52.455  1.00  0.00    -0.026 A 
HETATM   15  C12 UNL     1      19.500  -0.307  53.267  1.00  0.00     0.012 A 
HETATM   16  C13 UNL     1      18.660   0.231  52.218  1.00  0.00     0.011 A 
HETATM   17  C14 UNL     1      19.705   0.354  51.416  1.00  0.00    -0.024 A 
HETATM   18  C15 UNL     1      20.282   0.750  50.109  1.00  0.00     0.207 C 
HETATM   19  O2  UNL     1      20.345   2.168  49.972  1.00  0.00    -0.380 OA
HETATM   20  C16 UNL     1      21.124   2.519  51.078  1.00  0.00     0.232 C 
HETATM   21  H8  UNL     1      25.578   2.109  53.706  1.00  0.00     0.208 HD
HETATM   22  H9  UNL     1      23.720   1.950  54.078  1.00  0.00     0.188 HD
ENDROOT
BRANCH   8  23
HETATM   23  N2  UNL     1      27.910   2.371  53.035  1.00  0.00    -0.231 N 
HETATM   24  H6  UNL     1      28.273   1.390  53.115  1.00  0.00     0.174 HD
HETATM   25  H7  UNL     1      28.008   3.350  53.364  1.00  0.00     0.174 HD
ENDBRANCH   8  23
BRANCH   1  26
HETATM   26  O1  UNL     1      21.134   5.257  51.377  1.00  0.00    -0.358 OA
HETATM   27  C1  UNL     1      21.421   6.238  50.376  1.00  0.00     0.209 C 
ENDBRANCH   1  26
TORSDOF 2
ENDMDL
MODEL 6
REMARK VINA RESULT:      -7.2      8.081     11.201
REMARK  2 active torsions:
REMARK  status: ('A' for Active; 'I' for Inactive)
REMARK    1  A    between atoms: O1_2  and  C2_3 
REMARK    2  A    between atoms: C8_10  and  N2_11 
ROOT
HETATM    1  C2  UNL     1      29.587  10.495  48.562  1.00  0.00     0.071 C 
HETATM    2  C3  UNL     1      30.930  10.629  48.593  1.00  0.00     0.068 C 
HETATM    3  C4  UNL     1      31.728   9.563  47.933  1.00  0.00     0.090 C 
HETATM    4  C5  UNL     1      32.111   9.952  46.725  1.00  0.00     0.021 C 
HETATM    5  C6  UNL     1      33.270  10.371  46.458  1.00  0.00     0.008 C 
HETATM    6  C7  UNL     1      34.378   9.727  46.480  1.00  0.00     0.149 C 
HETATM    7  N1  UNL     1      35.107   8.814  47.327  1.00  0.00    -0.075 NA
HETATM    8  C8  UNL     1      34.650   8.047  48.287  1.00  0.00     0.714 C 
HETATM    9  N3  UNL     1      33.333   7.824  48.847  1.00  0.00    -0.109 N 
HETATM   10  N4  UNL     1      32.016   8.296  48.567  1.00  0.00    -0.182 N 
HETATM   11  N5  UNL     1      31.318   7.175  49.096  1.00  0.00    -0.290 N 
HETATM   12  C9  UNL     1      30.493   6.224  48.442  1.00  0.00     0.110 C 
HETATM   13  C10 UNL     1      29.301   5.842  48.031  1.00  0.00     0.030 C 
HETATM   14  C11 UNL     1      27.975   6.441  48.124  1.00  0.00    -0.026 A 
HETATM   15  C12 UNL     1      26.928   6.169  48.927  1.00  0.00     0.012 A 
HETATM   16  C13 UNL     1      26.177   7.223  48.277  1.00  0.00     0.011 A 
HETATM   17  C14 UNL     1      27.202   7.493  47.485  1.00  0.00    -0.024 A 
HETATM   18  C15 UNL     1      27.806   8.292  46.393  1.00  0.00     0.207 C 
HETATM   19  O2  UNL     1      28.138   9.609  46.829  1.00  0.00    -0.380 OA
HETATM   20  C16 UNL     1      29.002   9.339  47.893  1.00  0.00     0.232 C 
HETATM   21  H8  UNL     1      33.368   7.155  49.648  1.00  0.00     0.208 HD
HETATM   22  H9  UNL     1      31.526   7.163  50.120  1.00  0.00     0.188 HD
ENDROOT
BRANCH   8  23
HETATM   23  N2  UNL     1      35.686   7.284  48.893  1.00  0.00    -0.231 N 
HETATM   24  H6  UNL     1      35.981   7.540  49.867  1.00  0.00     0.174 HD
HETATM   25  H7  UNL     1      35.842   6.643  48.092  1.00  0.00     0.174 HD
ENDBRANCH   8  23
BRANCH   1  26
HETATM   26  O1  UNL     1      29.551  11.666  49.261  1.00  0.00    -0.358 OA
HETATM   27  C1  UNL     1      28.656  12.735  48.938  1.00  0.00     0.209 C 
ENDBRANCH   1  26
TORSDOF 2
ENDMDL
MODEL 7
REMARK VINA RESULT:      -7.1      7.897     10.139
REMARK  2 active torsions:
REMARK  status: ('A' for Active; 'I' for Inactive)
REMARK    1  A    between atoms: O1_2  and  C2_3 
REMARK    2  A    between atoms: C8_10  and  N2_11 
ROOT
HETATM    1  C2  UNL     1      30.277   5.484  47.954  1.00  0.00     0.071 C 
HETATM    2  C3  UNL     1      29.550   6.613  48.098  1.00  0.00     0.068 C 
HETATM    3  C4  UNL     1      30.211   7.891  47.723  1.00  0.00     0.090 C 
HETATM    4  C5  UNL     1      29.832   8.269  46.510  1.00  0.00     0.021 C 
HETATM    5  C6  UNL     1      28.970   9.162  46.292  1.00  0.00     0.008 C 
HETATM    6  C7  UNL     1      29.037  10.418  46.541  1.00  0.00     0.149 C 
HETATM    7  N1  UNL     1      29.422  11.312  47.606  1.00  0.00    -0.075 NA
HETATM    8  C8  UNL     1      30.197  11.073  48.636  1.00  0.00     0.714 C 
HETATM    9  N3  UNL     1      30.923   9.904  49.090  1.00  0.00    -0.109 N 
HETATM   10  N4  UNL     1      31.131   8.582  48.598  1.00  0.00    -0.182 N 
HETATM   11  N5  UNL     1      32.377   8.353  49.245  1.00  0.00    -0.290 N 
HETATM   12  C9  UNL     1      33.665   8.141  48.689  1.00  0.00     0.110 C 
HETATM   13  C10 UNL     1      34.587   7.317  48.234  1.00  0.00     0.030 C 
HETATM   14  C11 UNL     1      34.643   5.869  48.084  1.00  0.00    -0.026 A 
HETATM   15  C12 UNL     1      35.263   4.919  48.812  1.00  0.00     0.012 A 
HETATM   16  C13 UNL     1      34.743   3.912  47.911  1.00  0.00     0.011 A 
HETATM   17  C14 UNL     1      34.133   4.840  47.193  1.00  0.00    -0.024 A 
HETATM   18  C15 UNL     1      33.278   5.219  46.043  1.00  0.00     0.207 C 
HETATM   19  O2  UNL     1      31.912   4.874  46.269  1.00  0.00    -0.380 OA
HETATM   20  C16 UNL     1      31.641   5.575  47.446  1.00  0.00     0.232 C 
HETATM   21  H8  UNL     1      31.408  10.087  49.997  1.00  0.00     0.208 HD
HETATM   22  H9  UNL     1      32.176   8.369  50.270  1.00  0.00     0.188 HD
ENDROOT
BRANCH   8  23
HETATM   23  N2  UNL     1      30.337  12.216  49.471  1.00  0.00    -0.231 N 
HETATM   24  H6  UNL     1      30.854  12.104  50.377  1.00  0.00     0.174 HD
HETATM   25  H7  UNL     1      29.826  12.874  48.852  1.00  0.00     0.174 HD
ENDBRANCH   8  23
BRANCH   1  26
HETATM   26  O1  UNL     1      29.177   4.830  48.426  1.00  0.00    -0.358 OA
HETATM   27  C1  UNL     1      27.866   5.403  48.405  1.00  0.00     0.209 C 
ENDBRANCH   1  26
TORSDOF 2
ENDMDL
MODEL 8
REMARK VINA RESULT:      -7.1      2.403      3.373
REMARK  2 active torsions:
REMARK  status: ('A' for Active; 'I' for Inactive)
REMARK    1  A    between atoms: O1_2  and  C2_3 
REMARK    2  A    between atoms: C8_10  and  N2_11 
ROOT
HETATM    1  C2  UNL     1      23.258   2.507  49.982  1.00  0.00     0.071 C 
HETATM    2  C3  UNL     1      21.927   2.534  49.759  1.00  0.00     0.068 C 
HETATM    3  C4  UNL     1      21.045   2.228  50.916  1.00  0.00     0.090 C 
HETATM    4  C5  UNL     1      20.581   3.348  51.452  1.00  0.00     0.021 C 
HETATM    5  C6  UNL     1      19.419   3.793  51.250  1.00  0.00     0.008 C 
HETATM    6  C7  UNL     1      18.295   3.289  51.605  1.00  0.00     0.149 C 
HETATM    7  N1  UNL     1      17.606   2.020  51.606  1.00  0.00    -0.075 NA
HETATM    8  C8  UNL     1      18.113   0.814  51.516  1.00  0.00     0.714 C 
HETATM    9  N3  UNL     1      19.462   0.304  51.388  1.00  0.00    -0.109 N 
HETATM   10  N4  UNL     1      20.767   0.878  51.351  1.00  0.00    -0.182 N 
HETATM   11  N5  UNL     1      21.468  -0.262  51.834  1.00  0.00    -0.290 N 
HETATM   12  C9  UNL     1      22.207  -0.436  53.032  1.00  0.00     0.110 C 
HETATM   13  C10 UNL     1      23.349  -0.372  53.684  1.00  0.00     0.030 C 
HETATM   14  C11 UNL     1      24.698   0.026  53.298  1.00  0.00    -0.026 A 
HETATM   15  C12 UNL     1      25.796  -0.700  53.013  1.00  0.00     0.012 A 
HETATM   16  C13 UNL     1      26.526   0.527  52.777  1.00  0.00     0.011 A 
HETATM   17  C14 UNL     1      25.452   1.245  53.057  1.00  0.00    -0.024 A 
HETATM   18  C15 UNL     1      24.790   2.563  53.204  1.00  0.00     0.207 C 
HETATM   19  O2  UNL     1      24.536   3.166  51.936  1.00  0.00    -0.380 OA
HETATM   20  C16 UNL     1      23.751   2.191  51.317  1.00  0.00     0.232 C 
HETATM   21  H8  UNL     1      19.468  -0.737  51.301  1.00  0.00     0.208 HD
HETATM   22  H9  UNL     1      21.341  -1.005  51.111  1.00  0.00     0.188 HD
ENDROOT
BRANCH   8  23
HETATM   23  N2  UNL     1      17.103  -0.187  51.554  1.00  0.00    -0.231 N 
HETATM   24  H6  UNL     1      17.044  -0.857  50.748  1.00  0.00     0.174 HD
HETATM   25  H7  UNL     1      16.698   0.091  52.468  1.00  0.00     0.174 HD
ENDBRANCH   8  23
BRANCH   1  26
HETATM   26  O1  UNL     1      23.388   2.834  48.663  1.00  0.00    -0.358 OA
HETATM   27  C1  UNL     1      22.604   2.226  47.633  1.00  0.00     0.209 C 
ENDBRANCH   1  26
TORSDOF 2
ENDMDL
MODEL 9
REMARK VINA RESULT:      -7.0      4.308      6.402
REMARK  2 active torsions:
REMARK  status: ('A' for Active; 'I' for Inactive)
REMARK    1  A    between atoms: O1_2  and  C2_3 
REMARK    2  A    between atoms: C8_10  and  N2_11 
ROOT
HETATM    1  C2  UNL     1      21.058   5.156  49.735  1.00  0.00     0.071 C 
HETATM    2  C3  UNL     1      21.741   6.311  49.586  1.00  0.00     0.068 C 
HETATM    3  C4  UNL     1      23.204   6.202  49.352  1.00  0.00     0.090 C 
HETATM    4  C5  UNL     1      23.477   6.332  48.061  1.00  0.00     0.021 C 
HETATM    5  C6  UNL     1      23.921   7.392  47.542  1.00  0.00     0.008 C 
HETATM    6  C7  UNL     1      25.055   7.960  47.725  1.00  0.00     0.149 C 
HETATM    7  N1  UNL     1      25.937   8.341  48.802  1.00  0.00    -0.075 NA
HETATM    8  C8  UNL     1      25.976   7.881  50.030  1.00  0.00     0.714 C 
HETATM    9  N3  UNL     1      25.208   6.885  50.748  1.00  0.00    -0.109 N 
HETATM   10  N4  UNL     1      24.153   5.983  50.420  1.00  0.00    -0.182 N 
HETATM   11  N5  UNL     1      24.438   5.016  51.424  1.00  0.00    -0.290 N 
HETATM   12  C9  UNL     1      24.855   3.665  51.295  1.00  0.00     0.110 C 
HETATM   13  C10 UNL     1      24.556   2.388  51.186  1.00  0.00     0.030 C 
HETATM   14  C11 UNL     1      23.294   1.659  51.146  1.00  0.00    -0.026 A 
HETATM   15  C12 UNL     1      22.654   0.930  52.081  1.00  0.00     0.012 A 
HETATM   16  C13 UNL     1      21.598   0.664  51.127  1.00  0.00     0.011 A 
HETATM   17  C14 UNL     1      22.223   1.377  50.205  1.00  0.00    -0.024 A 
HETATM   18  C15 UNL     1      22.283   1.930  48.831  1.00  0.00     0.207 C 
HETATM   19  O2  UNL     1      21.361   3.004  48.657  1.00  0.00    -0.380 OA
HETATM   20  C16 UNL     1      21.775   3.889  49.655  1.00  0.00     0.232 C 
HETATM   21  H8  UNL     1      25.509   6.821  51.747  1.00  0.00     0.208 HD
HETATM   22  H9  UNL     1      24.281   5.495  52.339  1.00  0.00     0.188 HD
ENDROOT
BRANCH   8  23
HETATM   23  N2  UNL     1      26.993   8.511  50.799  1.00  0.00    -0.231 N 
HETATM   24  H6  UNL     1      27.027   9.560  50.805  1.00  0.00     0.174 HD
HETATM   25  H7  UNL     1      27.431   7.638  51.149  1.00  0.00     0.174 HD
ENDBRANCH   8  23
BRANCH   1  26
HETATM   26  O1  UNL     1      19.953   5.942  49.892  1.00  0.00    -0.358 OA
HETATM   27  C1  UNL     1      19.451   6.790  48.856  1.00  0.00     0.209 C 
ENDBRANCH   1  26
TORSDOF 2
ENDMDL
