MODEL 1
REMARK VINA RESULT:      -7.6      0.000      0.000
REMARK  7 active torsions:
REMARK  status: ('A' for Active; 'I' for Inactive)
REMARK    1  A    between atoms: O1_2  and  C2_3 
REMARK    2  A    between atoms: C4_5  and  N1_6 
REMARK       I    between atoms: N1_6  and  C5_7 
REMARK       I    between atoms: C5_7  and  N3_12 
REMARK    3  A    between atoms: N2_8  and  C6_9 
REMARK    4  A    between atoms: C6_9  and  C7_10 
REMARK    5  A    between atoms: N3_12  and  C8_13 
REMARK    6  A    between atoms: C15_22  and  O4_23 
REMARK    7  A    between atoms: C17_25  and  O5_26 
ROOT
HETATM    1  N1  UNL     1      23.292  -0.392  53.056  1.00  0.00    -0.190 N 
HETATM    2  C5  UNL     1      24.575   0.109  52.663  1.00  0.00     0.701 C 
HETATM    3  N2  UNL     1      24.525   1.224  52.100  1.00  0.00    -0.078 NA
HETATM    4  N3  UNL     1      25.737  -0.628  52.917  1.00  0.00    -0.211 N 
HETATM    5  H5  UNL     1      23.280  -1.088  53.865  1.00  0.00     0.184 HD
HETATM    6  H8  UNL     1      25.625  -1.686  52.938  1.00  0.00     0.178 HD
ENDROOT
BRANCH   1   7
HETATM    7  C4  UNL     1      22.008  -0.108  52.521  1.00  0.00     0.060 A 
HETATM    8  C3  UNL     1      21.766   0.532  51.328  1.00  0.00     0.070 A 
HETATM    9  C2  UNL     1      20.522   0.800  50.807  1.00  0.00     0.106 A 
HETATM   10  C17 UNL     1      19.395   0.417  51.499  1.00  0.00     0.135 A 
HETATM   11  C15 UNL     1      19.594  -0.227  52.700  1.00  0.00     0.112 A 
HETATM   12  C13 UNL     1      20.847  -0.485  53.203  1.00  0.00     0.002 A 
HETATM   13  C14 UNL     1      20.979  -1.195  54.525  1.00  0.00     0.054 C 
BRANCH   9  14
HETATM   14  O1  UNL     1      20.334   1.450  49.595  1.00  0.00    -0.353 OA
HETATM   15  C1  UNL     1      21.364   1.341  48.632  1.00  0.00     0.210 C 
ENDBRANCH   9  14
BRANCH  10  16
HETATM   16  O5  UNL     1      18.120   0.641  51.062  1.00  0.00    -0.351 OA
HETATM   17  C18 UNL     1      17.379  -0.126  50.164  1.00  0.00     0.210 C 
ENDBRANCH  10  16
BRANCH  11  18
HETATM   18  O4  UNL     1      18.508  -0.639  53.450  1.00  0.00    -0.352 OA
HETATM   19  C16 UNL     1      17.889  -1.882  53.338  1.00  0.00     0.210 C 
ENDBRANCH  11  18
ENDBRANCH   1   7
BRANCH   3  20
HETATM   20  C6  UNL     1      25.597   1.960  51.608  1.00  0.00     0.148 C 
BRANCH  20  21
HETATM   21  C7  UNL     1      25.014   2.694  50.669  1.00  0.00     0.461 C 
HETATM   22  F1  UNL     1      24.418   3.024  49.522  1.00  0.00    -0.451 F 
ENDBRANCH  20  21
ENDBRANCH   3  20
BRANCH   4  23
HETATM   23  C8  UNL     1      27.024  -0.053  53.152  1.00  0.00     0.193 C 
HETATM   24  C9  UNL     1      27.018   0.564  54.545  1.00  0.00     0.201 C 
HETATM   25  O2  UNL     1      28.157   1.366  54.589  1.00  0.00    -0.388 OA
HETATM   26  C10 UNL     1      29.321   0.645  54.533  1.00  0.00     0.175 C 
HETATM   27  C11 UNL     1      29.369  -0.462  53.543  1.00  0.00     0.107 C 
HETATM   28  C12 UNL     1      28.092  -1.102  53.218  1.00  0.00     0.154 C 
HETATM   29  O3  UNL     1      27.945  -2.319  53.032  1.00  0.00    -0.296 OA
ENDBRANCH   4  23
TORSDOF 7
ENDMDL
MODEL 2
REMARK VINA RESULT:      -7.5      2.622      4.078
REMARK  7 active torsions:
REMARK  status: ('A' for Active; 'I' for Inactive)
REMARK    1  A    between atoms: O1_2  and  C2_3 
REMARK    2  A    between atoms: C4_5  and  N1_6 
REMARK       I    between atoms: N1_6  and  C5_7 
REMARK       I    between atoms: C5_7  and  N3_12 
REMARK    3  A    between atoms: N2_8  and  C6_9 
REMARK    4  A    between atoms: C6_9  and  C7_10 
REMARK    5  A    between atoms: N3_12  and  C8_13 
REMARK    6  A    between atoms: C15_22  and  O4_23 
REMARK    7  A    between atoms: C17_25  and  O5_26 
ROOT
HETATM    1  N1  UNL     1      24.319   1.174  51.935  1.00  0.00    -0.190 N 
HETATM    2  C5  UNL     1      25.098   0.503  52.932  1.00  0.00     0.701 C 
HETATM    3  N2  UNL     1      24.409  -0.126  53.765  1.00  0.00    -0.078 NA
HETATM    4  N3  UNL     1      26.495   0.579  52.917  1.00  0.00    -0.211 N 
HETATM    5  H5  UNL     1      24.803   1.368  51.004  1.00  0.00     0.184 HD
HETATM    6  H8  UNL     1      26.911   1.469  52.508  1.00  0.00     0.178 HD
ENDROOT
BRANCH   1   7
HETATM    7  C4  UNL     1      22.979   1.640  51.996  1.00  0.00     0.060 A 
HETATM    8  C3  UNL     1      21.863   0.843  52.088  1.00  0.00     0.070 A 
HETATM    9  C2  UNL     1      20.566   1.296  52.155  1.00  0.00     0.106 A 
HETATM   10  C17 UNL     1      20.313   2.649  52.131  1.00  0.00     0.135 A 
HETATM   11  C15 UNL     1      21.405   3.482  52.039  1.00  0.00     0.112 A 
HETATM   12  C13 UNL     1      22.694   3.008  51.973  1.00  0.00     0.002 A 
HETATM   13  C14 UNL     1      23.835   3.987  51.875  1.00  0.00     0.054 C 
BRANCH   9  14
HETATM   14  O1  UNL     1      19.473   0.446  52.247  1.00  0.00    -0.353 OA
HETATM   15  C1  UNL     1      19.453  -0.475  53.321  1.00  0.00     0.210 C 
ENDBRANCH   9  14
BRANCH  10  16
HETATM   16  O5  UNL     1      19.060   3.190  52.192  1.00  0.00    -0.351 OA
HETATM   17  C18 UNL     1      18.146   3.347  51.151  1.00  0.00     0.210 C 
ENDBRANCH  10  16
BRANCH  11  18
HETATM   18  O4  UNL     1      21.227   4.853  52.010  1.00  0.00    -0.352 OA
HETATM   19  C16 UNL     1      21.067   5.611  50.851  1.00  0.00     0.210 C 
ENDBRANCH  11  18
ENDBRANCH   1   7
BRANCH   3  20
HETATM   20  C6  UNL     1      24.875  -0.869  54.843  1.00  0.00     0.148 C 
BRANCH  20  21
HETATM   21  C7  UNL     1      23.742  -1.283  55.397  1.00  0.00     0.461 C 
HETATM   22  F1  UNL     1      22.436  -1.448  55.612  1.00  0.00    -0.451 F 
ENDBRANCH  20  21
ENDBRANCH   3  20
BRANCH   4  23
HETATM   23  C8  UNL     1      27.366  -0.447  53.399  1.00  0.00     0.193 C 
HETATM   24  C9  UNL     1      27.334  -1.598  52.402  1.00  0.00     0.201 C 
HETATM   25  O2  UNL     1      27.932  -2.668  53.066  1.00  0.00    -0.388 OA
HETATM   26  C10 UNL     1      29.264  -2.463  53.319  1.00  0.00     0.175 C 
HETATM   27  C11 UNL     1      29.644  -1.116  53.821  1.00  0.00     0.107 C 
HETATM   28  C12 UNL     1      28.796   0.001  53.400  1.00  0.00     0.154 C 
HETATM   29  O3  UNL     1      29.218   1.126  53.098  1.00  0.00    -0.296 OA
ENDBRANCH   4  23
TORSDOF 7
ENDMDL
MODEL 3
REMARK VINA RESULT:      -7.3      4.042      7.525
REMARK  7 active torsions:
REMARK  status: ('A' for Active; 'I' for Inactive)
REMARK    1  A    between atoms: O1_2  and  C2_3 
REMARK    2  A    between atoms: C4_5  and  N1_6 
REMARK       I    between atoms: N1_6  and  C5_7 
REMARK       I    between atoms: C5_7  and  N3_12 
REMARK    3  A    between atoms: N2_8  and  C6_9 
REMARK    4  A    between atoms: C6_9  and  C7_10 
REMARK    5  A    between atoms: N3_12  and  C8_13 
REMARK    6  A    between atoms: C15_22  and  O4_23 
REMARK    7  A    between atoms: C17_25  and  O5_26 
ROOT
HETATM    1  N1  UNL     1      23.525   4.063  52.672  1.00  0.00    -0.190 N 
HETATM    2  C5  UNL     1      23.643   4.863  51.489  1.00  0.00     0.701 C 
HETATM    3  N2  UNL     1      24.043   4.224  50.492  1.00  0.00    -0.078 NA
HETATM    4  N3  UNL     1      23.320   6.224  51.513  1.00  0.00    -0.211 N 
HETATM    5  H5  UNL     1      22.834   4.404  53.410  1.00  0.00     0.184 HD
HETATM    6  H8  UNL     1      23.467   6.723  52.442  1.00  0.00     0.178 HD
ENDROOT
BRANCH   1   7
HETATM    7  C4  UNL     1      24.205   2.868  53.027  1.00  0.00     0.060 A 
HETATM    8  C3  UNL     1      25.502   2.793  53.476  1.00  0.00     0.070 A 
HETATM    9  C2  UNL     1      26.157   1.636  53.826  1.00  0.00     0.106 A 
HETATM   10  C17 UNL     1      25.503   0.427  53.736  1.00  0.00     0.135 A 
HETATM   11  C15 UNL     1      24.201   0.459  53.289  1.00  0.00     0.112 A 
HETATM   12  C13 UNL     1      23.565   1.628  52.944  1.00  0.00     0.002 A 
HETATM   13  C14 UNL     1      22.138   1.577  52.464  1.00  0.00     0.054 C 
BRANCH   9  14
HETATM   14  O1  UNL     1      27.470   1.616  54.275  1.00  0.00    -0.353 OA
HETATM   15  C1  UNL     1      28.426   2.338  53.522  1.00  0.00     0.210 C 
ENDBRANCH   9  14
BRANCH  10  16
HETATM   16  O5  UNL     1      26.072  -0.772  54.060  1.00  0.00    -0.351 OA
HETATM   17  C18 UNL     1      26.828  -1.608  53.240  1.00  0.00     0.210 C 
ENDBRANCH  10  16
BRANCH  11  18
HETATM   18  O4  UNL     1      23.483  -0.717  53.172  1.00  0.00    -0.352 OA
HETATM   19  C16 UNL     1      22.643  -1.238  54.154  1.00  0.00     0.210 C 
ENDBRANCH  11  18
ENDBRANCH   1   7
BRANCH   3  20
HETATM   20  C6  UNL     1      24.256   4.721  49.212  1.00  0.00     0.148 C 
BRANCH  20  21
HETATM   21  C7  UNL     1      25.582   4.744  49.147  1.00  0.00     0.461 C 
HETATM   22  F1  UNL     1      26.814   4.743  48.638  1.00  0.00    -0.451 F 
ENDBRANCH  20  21
ENDBRANCH   3  20
BRANCH   4  23
HETATM   23  C8  UNL     1      22.813   6.955  50.395  1.00  0.00     0.193 C 
HETATM   24  C9  UNL     1      21.466   7.547  50.791  1.00  0.00     0.201 C 
HETATM   25  O2  UNL     1      20.889   7.964  49.593  1.00  0.00    -0.388 OA
HETATM   26  C10 UNL     1      21.566   9.001  49.006  1.00  0.00     0.175 C 
HETATM   27  C11 UNL     1      23.049   8.901  48.990  1.00  0.00     0.107 C 
HETATM   28  C12 UNL     1      23.663   8.149  50.086  1.00  0.00     0.154 C 
HETATM   29  O3  UNL     1      24.719   8.470  50.650  1.00  0.00    -0.296 OA
ENDBRANCH   4  23
TORSDOF 7
ENDMDL
MODEL 4
REMARK VINA RESULT:      -7.2      2.370      3.235
REMARK  7 active torsions:
REMARK  status: ('A' for Active; 'I' for Inactive)
REMARK    1  A    between atoms: O1_2  and  C2_3 
REMARK    2  A    between atoms: C4_5  and  N1_6 
REMARK       I    between atoms: N1_6  and  C5_7 
REMARK       I    between atoms: C5_7  and  N3_12 
REMARK    3  A    between atoms: N2_8  and  C6_9 
REMARK    4  A    between atoms: C6_9  and  C7_10 
REMARK    5  A    between atoms: N3_12  and  C8_13 
REMARK    6  A    between atoms: C15_22  and  O4_23 
REMARK    7  A    between atoms: C17_25  and  O5_26 
ROOT
HETATM    1  N1  UNL     1      23.324   1.838  52.633  1.00  0.00    -0.190 N 
HETATM    2  C5  UNL     1      24.705   1.578  52.351  1.00  0.00     0.701 C 
HETATM    3  N2  UNL     1      25.235   2.441  51.618  1.00  0.00    -0.078 NA
HETATM    4  N3  UNL     1      25.341   0.450  52.880  1.00  0.00    -0.211 N 
HETATM    5  H5  UNL     1      22.934   1.415  53.532  1.00  0.00     0.184 HD
HETATM    6  H8  UNL     1      24.722  -0.399  53.052  1.00  0.00     0.178 HD
ENDROOT
BRANCH   1   7
HETATM    7  C4  UNL     1      22.372   2.578  51.883  1.00  0.00     0.060 A 
HETATM    8  C3  UNL     1      22.245   3.946  51.887  1.00  0.00     0.070 A 
HETATM    9  C2  UNL     1      21.327   4.663  51.155  1.00  0.00     0.106 A 
HETATM   10  C17 UNL     1      20.440   4.000  50.336  1.00  0.00     0.135 A 
HETATM   11  C15 UNL     1      20.535   2.626  50.303  1.00  0.00     0.112 A 
HETATM   12  C13 UNL     1      21.460   1.930  51.044  1.00  0.00     0.002 A 
HETATM   13  C14 UNL     1      21.498   0.427  50.952  1.00  0.00     0.054 C 
BRANCH   9  14
HETATM   14  O1  UNL     1      21.242   6.047  51.196  1.00  0.00    -0.353 OA
HETATM   15  C1  UNL     1      22.354   6.782  50.723  1.00  0.00     0.210 C 
ENDBRANCH   9  14
BRANCH  10  16
HETATM   16  O5  UNL     1      19.495   4.625  49.573  1.00  0.00    -0.351 OA
HETATM   17  C18 UNL     1      19.638   5.129  48.281  1.00  0.00     0.210 C 
ENDBRANCH  10  16
BRANCH  11  18
HETATM   18  O4  UNL     1      19.676   1.894  49.504  1.00  0.00    -0.352 OA
HETATM   19  C16 UNL     1      18.375   1.536  49.851  1.00  0.00     0.210 C 
ENDBRANCH  11  18
ENDBRANCH   1   7
BRANCH   3  20
HETATM   20  C6  UNL     1      26.552   2.462  51.173  1.00  0.00     0.148 C 
BRANCH  20  21
HETATM   21  C7  UNL     1      26.450   3.175  50.058  1.00  0.00     0.461 C 
HETATM   22  F1  UNL     1      26.797   3.819  48.943  1.00  0.00    -0.451 F 
ENDBRANCH  20  21
ENDBRANCH   3  20
BRANCH   4  23
HETATM   23  C8  UNL     1      26.732   0.382  53.201  1.00  0.00     0.193 C 
HETATM   24  C9  UNL     1      26.873   0.495  54.714  1.00  0.00     0.201 C 
HETATM   25  O2  UNL     1      28.227   0.740  54.933  1.00  0.00    -0.388 OA
HETATM   26  C10 UNL     1      29.025  -0.319  54.587  1.00  0.00     0.175 C 
HETATM   27  C11 UNL     1      28.707  -0.998  53.304  1.00  0.00     0.107 C 
HETATM   28  C12 UNL     1      27.306  -0.963  52.877  1.00  0.00     0.154 C 
HETATM   29  O3  UNL     1      26.715  -1.908  52.336  1.00  0.00    -0.296 OA
ENDBRANCH   4  23
TORSDOF 7
ENDMDL
MODEL 5
REMARK VINA RESULT:      -7.0      3.860      6.546
REMARK  7 active torsions:
REMARK  status: ('A' for Active; 'I' for Inactive)
REMARK    1  A    between atoms: O1_2  and  C2_3 
REMARK    2  A    between atoms: C4_5  and  N1_6 
REMARK       I    between atoms: N1_6  and  C5_7 
REMARK       I    between atoms: C5_7  and  N3_12 
REMARK    3  A    between atoms: N2_8  and  C6_9 
REMARK    4  A    between atoms: C6_9  and  C7_10 
REMARK    5  A    between atoms: N3_12  and  C8_13 
REMARK    6  A    between atoms: C15_22  and  O4_23 
REMARK    7  A    between atoms: C17_25  and  O5_26 
ROOT
HETATM    1  N1  UNL     1      25.283   3.605  51.907  1.00  0.00    -0.190 N 
HETATM    2  C5  UNL     1      25.094   4.202  50.618  1.00  0.00     0.701 C 
HETATM    3  N2  UNL     1      24.007   3.897  50.081  1.00  0.00    -0.078 NA
HETATM    4  N3  UNL     1      26.071   5.041  50.071  1.00  0.00    -0.211 N 
HETATM    5  H5  UNL     1      25.943   4.113  52.574  1.00  0.00     0.184 HD
HETATM    6  H8  UNL     1      27.075   4.841  50.360  1.00  0.00     0.178 HD
ENDROOT
BRANCH   1   7
HETATM    7  C4  UNL     1      24.725   2.414  52.442  1.00  0.00     0.060 A 
HETATM    8  C3  UNL     1      23.387   2.191  52.661  1.00  0.00     0.070 A 
HETATM    9  C2  UNL     1      22.846   1.034  53.173  1.00  0.00     0.106 A 
HETATM   10  C17 UNL     1      23.673  -0.015  53.509  1.00  0.00     0.135 A 
HETATM   11  C15 UNL     1      25.022   0.169  53.305  1.00  0.00     0.112 A 
HETATM   12  C13 UNL     1      25.541   1.334  52.792  1.00  0.00     0.002 A 
HETATM   13  C14 UNL     1      27.030   1.456  52.599  1.00  0.00     0.054 C 
BRANCH   9  14
HETATM   14  O1  UNL     1      21.485   0.860  53.374  1.00  0.00    -0.353 OA
HETATM   15  C1  UNL     1      20.611   1.772  52.737  1.00  0.00     0.210 C 
ENDBRANCH   9  14
BRANCH  10  16
HETATM   16  O5  UNL     1      23.228  -1.200  54.023  1.00  0.00    -0.351 OA
HETATM   17  C18 UNL     1      22.955  -1.503  55.356  1.00  0.00     0.210 C 
ENDBRANCH  10  16
BRANCH  11  18
HETATM   18  O4  UNL     1      25.912  -0.841  53.621  1.00  0.00    -0.352 OA
HETATM   19  C16 UNL     1      26.441  -1.750  52.707  1.00  0.00     0.210 C 
ENDBRANCH  11  18
ENDBRANCH   1   7
BRANCH   3  20
HETATM   20  C6  UNL     1      23.544   4.315  48.839  1.00  0.00     0.148 C 
BRANCH  20  21
HETATM   21  C7  UNL     1      23.026   3.195  48.352  1.00  0.00     0.461 C 
HETATM   22  F1  UNL     1      22.666   2.254  47.478  1.00  0.00    -0.451 F 
ENDBRANCH  20  21
ENDBRANCH   3  20
BRANCH   4  23
HETATM   23  C8  UNL     1      25.799   6.123  49.178  1.00  0.00     0.193 C 
HETATM   24  C9  UNL     1      25.556   7.374  50.014  1.00  0.00     0.201 C 
HETATM   25  O2  UNL     1      24.995   8.295  49.132  1.00  0.00    -0.388 OA
HETATM   26  C10 UNL     1      25.865   8.695  48.152  1.00  0.00     0.175 C 
HETATM   27  C11 UNL     1      26.683   7.630  47.515  1.00  0.00     0.107 C 
HETATM   28  C12 UNL     1      26.996   6.464  48.345  1.00  0.00     0.154 C 
HETATM   29  O3  UNL     1      28.086   5.873  48.340  1.00  0.00    -0.296 OA
ENDBRANCH   4  23
TORSDOF 7
ENDMDL
MODEL 6
REMARK VINA RESULT:      -6.7      4.470      6.363
REMARK  7 active torsions:
REMARK  status: ('A' for Active; 'I' for Inactive)
REMARK    1  A    between atoms: O1_2  and  C2_3 
REMARK    2  A    between atoms: C4_5  and  N1_6 
REMARK       I    between atoms: N1_6  and  C5_7 
REMARK       I    between atoms: C5_7  and  N3_12 
REMARK    3  A    between atoms: N2_8  and  C6_9 
REMARK    4  A    between atoms: C6_9  and  C7_10 
REMARK    5  A    between atoms: N3_12  and  C8_13 
REMARK    6  A    between atoms: C15_22  and  O4_23 
REMARK    7  A    between atoms: C17_25  and  O5_26 
ROOT
HETATM    1  N1  UNL     1      24.472   4.689  51.630  1.00  0.00    -0.190 N 
HETATM    2  C5  UNL     1      24.726   5.291  50.354  1.00  0.00     0.701 C 
HETATM    3  N2  UNL     1      23.752   5.235  49.573  1.00  0.00    -0.078 NA
HETATM    4  N3  UNL     1      25.967   5.872  50.074  1.00  0.00    -0.211 N 
HETATM    5  H5  UNL     1      25.059   5.043  52.448  1.00  0.00     0.184 HD
HETATM    6  H8  UNL     1      26.805   5.451  50.577  1.00  0.00     0.178 HD
ENDROOT
BRANCH   1   7
HETATM    7  C4  UNL     1      23.549   3.669  51.980  1.00  0.00     0.060 A 
HETATM    8  C3  UNL     1      22.199   3.846  52.166  1.00  0.00     0.070 A 
HETATM    9  C2  UNL     1      21.305   2.855  52.499  1.00  0.00     0.106 A 
HETATM   10  C17 UNL     1      21.750   1.563  52.671  1.00  0.00     0.135 A 
HETATM   11  C15 UNL     1      23.098   1.344  52.493  1.00  0.00     0.112 A 
HETATM   12  C13 UNL     1      23.975   2.349  52.161  1.00  0.00     0.002 A 
HETATM   13  C14 UNL     1      25.435   2.025  51.984  1.00  0.00     0.054 C 
BRANCH   9  14
HETATM   14  O1  UNL     1      19.949   3.089  52.675  1.00  0.00    -0.353 OA
HETATM   15  C1  UNL     1      19.211   3.518  51.548  1.00  0.00     0.210 C 
ENDBRANCH   9  14
BRANCH  10  16
HETATM   16  O5  UNL     1      20.938   0.516  53.001  1.00  0.00    -0.351 OA
HETATM   17  C18 UNL     1      20.542   0.111  54.275  1.00  0.00     0.210 C 
ENDBRANCH  10  16
BRANCH  11  18
HETATM   18  O4  UNL     1      23.616   0.071  52.650  1.00  0.00    -0.352 OA
HETATM   19  C16 UNL     1      24.109  -0.446  53.846  1.00  0.00     0.210 C 
ENDBRANCH  11  18
ENDBRANCH   1   7
BRANCH   3  20
HETATM   20  C6  UNL     1      23.694   5.727  48.274  1.00  0.00     0.148 C 
BRANCH  20  21
HETATM   21  C7  UNL     1      22.768   4.947  47.730  1.00  0.00     0.461 C 
HETATM   22  F1  UNL     1      22.149   4.159  46.850  1.00  0.00    -0.451 F 
ENDBRANCH  20  21
ENDBRANCH   3  20
BRANCH   4  23
HETATM   23  C8  UNL     1      26.162   6.972  49.183  1.00  0.00     0.193 C 
HETATM   24  C9  UNL     1      26.542   8.191  50.015  1.00  0.00     0.201 C 
HETATM   25  O2  UNL     1      26.407   9.275  49.150  1.00  0.00    -0.388 OA
HETATM   26  C10 UNL     1      27.316   9.257  48.124  1.00  0.00     0.175 C 
HETATM   27  C11 UNL     1      27.543   7.946  47.462  1.00  0.00     0.107 C 
HETATM   28  C12 UNL     1      27.344   6.754  48.289  1.00  0.00     0.154 C 
HETATM   29  O3  UNL     1      28.055   5.740  48.239  1.00  0.00    -0.296 OA
ENDBRANCH   4  23
TORSDOF 7
ENDMDL
MODEL 7
REMARK VINA RESULT:      -6.7      4.971      8.131
REMARK  7 active torsions:
REMARK  status: ('A' for Active; 'I' for Inactive)
REMARK    1  A    between atoms: O1_2  and  C2_3 
REMARK    2  A    between atoms: C4_5  and  N1_6 
REMARK       I    between atoms: N1_6  and  C5_7 
REMARK       I    between atoms: C5_7  and  N3_12 
REMARK    3  A    between atoms: N2_8  and  C6_9 
REMARK    4  A    between atoms: C6_9  and  C7_10 
REMARK    5  A    between atoms: N3_12  and  C8_13 
REMARK    6  A    between atoms: C15_22  and  O4_23 
REMARK    7  A    between atoms: C17_25  and  O5_26 
ROOT
HETATM    1  N1  UNL     1      26.841   4.185  49.667  1.00  0.00    -0.190 N 
HETATM    2  C5  UNL     1      26.208   3.599  50.811  1.00  0.00     0.701 C 
HETATM    3  N2  UNL     1      24.995   3.887  50.912  1.00  0.00    -0.078 NA
HETATM    4  N3  UNL     1      26.932   2.787  51.690  1.00  0.00    -0.211 N 
HETATM    5  H5  UNL     1      27.706   3.683  49.293  1.00  0.00     0.184 HD
HETATM    6  H8  UNL     1      27.970   3.004  51.780  1.00  0.00     0.178 HD
ENDROOT
BRANCH   1   7
HETATM    7  C4  UNL     1      26.497   5.358  48.944  1.00  0.00     0.060 A 
HETATM    8  C3  UNL     1      25.229   5.875  48.824  1.00  0.00     0.070 A 
HETATM    9  C2  UNL     1      24.898   7.015  48.130  1.00  0.00     0.106 A 
HETATM   10  C17 UNL     1      25.881   7.732  47.485  1.00  0.00     0.135 A 
HETATM   11  C15 UNL     1      27.166   7.246  47.581  1.00  0.00     0.112 A 
HETATM   12  C13 UNL     1      27.476   6.103  48.281  1.00  0.00     0.002 A 
HETATM   13  C14 UNL     1      28.907   5.639  48.338  1.00  0.00     0.054 C 
BRANCH   9  14
HETATM   14  O1  UNL     1      23.599   7.495  48.040  1.00  0.00    -0.353 OA
HETATM   15  C1  UNL     1      22.992   7.955  49.232  1.00  0.00     0.210 C 
ENDBRANCH   9  14
BRANCH  10  16
HETATM   16  O5  UNL     1      25.648   8.873  46.772  1.00  0.00    -0.351 OA
HETATM   17  C18 UNL     1      25.481  10.167  47.263  1.00  0.00     0.210 C 
ENDBRANCH  10  16
BRANCH  11  18
HETATM   18  O4  UNL     1      28.205   7.913  46.958  1.00  0.00    -0.352 OA
HETATM   19  C16 UNL     1      28.932   8.959  47.523  1.00  0.00     0.210 C 
ENDBRANCH  11  18
ENDBRANCH   1   7
BRANCH   3  20
HETATM   20  C6  UNL     1      24.119   3.474  51.909  1.00  0.00     0.148 C 
BRANCH  20  21
HETATM   21  C7  UNL     1      23.328   4.533  52.031  1.00  0.00     0.461 C 
HETATM   22  F1  UNL     1      22.322   5.308  52.437  1.00  0.00    -0.451 F 
ENDBRANCH  20  21
ENDBRANCH   3  20
BRANCH   4  23
HETATM   23  C8  UNL     1      26.371   1.709  52.443  1.00  0.00     0.193 C 
HETATM   24  C9  UNL     1      26.759   0.404  51.759  1.00  0.00     0.201 C 
HETATM   25  O2  UNL     1      25.940  -0.564  52.336  1.00  0.00    -0.388 OA
HETATM   26  C10 UNL     1      26.213  -0.772  53.663  1.00  0.00     0.175 C 
HETATM   27  C11 UNL     1      26.437   0.440  54.493  1.00  0.00     0.107 C 
HETATM   28  C12 UNL     1      26.989   1.609  53.804  1.00  0.00     0.154 C 
HETATM   29  O3  UNL     1      27.832   2.376  54.291  1.00  0.00    -0.296 OA
ENDBRANCH   4  23
TORSDOF 7
ENDMDL
MODEL 8
REMARK VINA RESULT:      -6.7      3.872      6.234
REMARK  7 active torsions:
REMARK  status: ('A' for Active; 'I' for Inactive)
REMARK    1  A    between atoms: O1_2  and  C2_3 
REMARK    2  A    between atoms: C4_5  and  N1_6 
REMARK       I    between atoms: N1_6  and  C5_7 
REMARK       I    between atoms: C5_7  and  N3_12 
REMARK    3  A    between atoms: N2_8  and  C6_9 
REMARK    4  A    between atoms: C6_9  and  C7_10 
REMARK    5  A    between atoms: N3_12  and  C8_13 
REMARK    6  A    between atoms: C15_22  and  O4_23 
REMARK    7  A    between atoms: C17_25  and  O5_26 
ROOT
HETATM    1  N1  UNL     1      24.661   3.810  52.061  1.00  0.00    -0.190 N 
HETATM    2  C5  UNL     1      24.727   4.392  50.753  1.00  0.00     0.701 C 
HETATM    3  N2  UNL     1      23.878   3.932  49.958  1.00  0.00    -0.078 NA
HETATM    4  N3  UNL     1      25.672   5.380  50.458  1.00  0.00    -0.211 N 
HETATM    5  H5  UNL     1      25.038   4.403  52.864  1.00  0.00     0.184 HD
HETATM    6  H8  UNL     1      26.584   5.332  51.004  1.00  0.00     0.178 HD
ENDROOT
BRANCH   1   7
HETATM    7  C4  UNL     1      24.171   2.539  52.461  1.00  0.00     0.060 A 
HETATM    8  C3  UNL     1      24.944   1.430  52.709  1.00  0.00     0.070 A 
HETATM    9  C2  UNL     1      24.469   0.201  53.103  1.00  0.00     0.106 A 
HETATM   10  C17 UNL     1      23.116   0.016  53.277  1.00  0.00     0.135 A 
HETATM   11  C15 UNL     1      22.306   1.104  53.038  1.00  0.00     0.112 A 
HETATM   12  C13 UNL     1      22.802   2.324  52.644  1.00  0.00     0.002 A 
HETATM   13  C14 UNL     1      21.848   3.465  52.404  1.00  0.00     0.054 C 
BRANCH   9  14
HETATM   14  O1  UNL     1      25.295  -0.888  53.341  1.00  0.00    -0.353 OA
HETATM   15  C1  UNL     1      26.452  -1.015  52.537  1.00  0.00     0.210 C 
ENDBRANCH   9  14
BRANCH  10  16
HETATM   16  O5  UNL     1      22.553  -1.166  53.666  1.00  0.00    -0.351 OA
HETATM   17  C18 UNL     1      22.241  -1.579  54.961  1.00  0.00     0.210 C 
ENDBRANCH  10  16
BRANCH  11  18
HETATM   18  O4  UNL     1      20.936   0.992  53.192  1.00  0.00    -0.352 OA
HETATM   19  C16 UNL     1      20.074   0.416  52.261  1.00  0.00     0.210 C 
ENDBRANCH  11  18
ENDBRANCH   1   7
BRANCH   3  20
HETATM   20  C6  UNL     1      23.696   4.295  48.629  1.00  0.00     0.148 C 
BRANCH  20  21
HETATM   21  C7  UNL     1      22.899   3.328  48.191  1.00  0.00     0.461 C 
HETATM   22  F1  UNL     1      22.208   2.188  48.159  1.00  0.00    -0.451 F 
ENDBRANCH  20  21
ENDBRANCH   3  20
BRANCH   4  23
HETATM   23  C8  UNL     1      25.481   6.423  49.499  1.00  0.00     0.193 C 
HETATM   24  C9  UNL     1      25.626   7.757  50.219  1.00  0.00     0.201 C 
HETATM   25  O2  UNL     1      25.125   8.705  49.328  1.00  0.00    -0.388 OA
HETATM   26  C10 UNL     1      25.890   8.833  48.198  1.00  0.00     0.175 C 
HETATM   27  C11 UNL     1      26.369   7.572  47.574  1.00  0.00     0.107 C 
HETATM   28  C12 UNL     1      26.573   6.435  48.475  1.00  0.00     0.154 C 
HETATM   29  O3  UNL     1      27.509   5.628  48.383  1.00  0.00    -0.296 OA
ENDBRANCH   4  23
TORSDOF 7
ENDMDL
MODEL 9
REMARK VINA RESULT:      -6.7      3.255      5.740
REMARK  7 active torsions:
REMARK  status: ('A' for Active; 'I' for Inactive)
REMARK    1  A    between atoms: O1_2  and  C2_3 
REMARK    2  A    between atoms: C4_5  and  N1_6 
REMARK       I    between atoms: N1_6  and  C5_7 
REMARK       I    between atoms: C5_7  and  N3_12 
REMARK    3  A    between atoms: N2_8  and  C6_9 
REMARK    4  A    between atoms: C6_9  and  C7_10 
REMARK    5  A    between atoms: N3_12  and  C8_13 
REMARK    6  A    between atoms: C15_22  and  O4_23 
REMARK    7  A    between atoms: C17_25  and  O5_26 
ROOT
HETATM    1  N1  UNL     1      25.490   3.140  49.926  1.00  0.00    -0.190 N 
HETATM    2  C5  UNL     1      25.556   2.692  51.286  1.00  0.00     0.701 C 
HETATM    3  N2  UNL     1      24.438   2.418  51.776  1.00  0.00    -0.078 NA
HETATM    4  N3  UNL     1      26.785   2.589  51.945  1.00  0.00    -0.211 N 
HETATM    5  H5  UNL     1      26.367   2.998  49.336  1.00  0.00     0.184 HD
HETATM    6  H8  UNL     1      27.543   3.267  51.630  1.00  0.00     0.178 HD
ENDROOT
BRANCH   1   7
HETATM    7  C4  UNL     1      24.421   3.764  49.231  1.00  0.00     0.060 A 
HETATM    8  C3  UNL     1      23.302   3.126  48.753  1.00  0.00     0.070 A 
HETATM    9  C2  UNL     1      22.264   3.733  48.085  1.00  0.00     0.106 A 
HETATM   10  C17 UNL     1      22.302   5.090  47.852  1.00  0.00     0.135 A 
HETATM   11  C15 UNL     1      23.409   5.767  48.315  1.00  0.00     0.112 A 
HETATM   12  C13 UNL     1      24.436   5.140  48.980  1.00  0.00     0.002 A 
HETATM   13  C14 UNL     1      25.611   5.953  49.456  1.00  0.00     0.054 C 
BRANCH   9  14
HETATM   14  O1  UNL     1      21.154   3.040  47.623  1.00  0.00    -0.353 OA
HETATM   15  C1  UNL     1      20.275   2.499  48.590  1.00  0.00     0.210 C 
ENDBRANCH   9  14
BRANCH  10  16
HETATM   16  O5  UNL     1      21.320   5.778  47.199  1.00  0.00    -0.351 OA
HETATM   17  C18 UNL     1      20.191   6.383  47.749  1.00  0.00     0.210 C 
ENDBRANCH  10  16
BRANCH  11  18
HETATM   18  O4  UNL     1      23.516   7.131  48.117  1.00  0.00    -0.352 OA
HETATM   19  C16 UNL     1      23.953   7.732  46.938  1.00  0.00     0.210 C 
ENDBRANCH  11  18
ENDBRANCH   1   7
BRANCH   3  20
HETATM   20  C6  UNL     1      24.180   1.964  53.064  1.00  0.00     0.148 C 
BRANCH  20  21
HETATM   21  C7  UNL     1      23.470   0.868  52.828  1.00  0.00     0.461 C 
HETATM   22  F1  UNL     1      23.022  -0.383  52.929  1.00  0.00    -0.451 F 
ENDBRANCH  20  21
ENDBRANCH   3  20
BRANCH   4  23
HETATM   23  C8  UNL     1      27.072   1.646  52.980  1.00  0.00     0.193 C 
HETATM   24  C9  UNL     1      27.217   0.272  52.338  1.00  0.00     0.201 C 
HETATM   25  O2  UNL     1      27.176  -0.629  53.400  1.00  0.00    -0.388 OA
HETATM   26  C10 UNL     1      28.257  -0.520  54.236  1.00  0.00     0.175 C 
HETATM   27  C11 UNL     1      28.681   0.859  54.594  1.00  0.00     0.107 C 
HETATM   28  C12 UNL     1      28.408   1.904  53.605  1.00  0.00     0.154 C 
HETATM   29  O3  UNL     1      29.178   2.840  53.344  1.00  0.00    -0.296 OA
ENDBRANCH   4  23
TORSDOF 7
ENDMDL
