MODEL 1
REMARK VINA RESULT:      -9.2      0.000      0.000
REMARK  4 active torsions:
REMARK  status: ('A' for Active; 'I' for Inactive)
REMARK    1  A    between atoms: C2_2  and  N1_3 
REMARK    2  A    between atoms: C2_2  and  C15_19 
REMARK    3  A    between atoms: N1_3  and  C3_4 
REMARK    4  A    between atoms: C3_4  and  C4_5 
ROOT
HETATM    1  C4  UNL     1      24.791   2.690  52.213  1.00  0.00    -0.023 C 
HETATM    2  C5  UNL     1      24.571   2.130  53.369  1.00  0.00     0.126 C 
HETATM    3  N2  UNL     1      25.378   1.022  53.649  1.00  0.00    -0.256 NA
HETATM    4  C6  UNL     1      24.860  -0.182  53.779  1.00  0.00     0.203 C 
HETATM    5  N3  UNL     1      25.871  -1.178  54.059  1.00  0.00    -0.373 N 
HETATM    6  C7  UNL     1      26.566  -1.256  52.780  1.00  0.00     0.140 C 
HETATM    7  C8  UNL     1      27.598  -2.297  52.788  1.00  0.00     0.027 C 
HETATM    8  C9  UNL     1      28.882  -2.409  53.166  1.00  0.00     0.133 C 
HETATM    9  O1  UNL     1      29.623  -1.359  53.731  1.00  0.00    -0.360 OA
HETATM   10  C10 UNL     1      29.155  -0.126  54.233  1.00  0.00     0.202 C 
HETATM   11  C11 UNL     1      28.244   0.467  53.198  1.00  0.00     0.009 C 
HETATM   12  C12 UNL     1      27.138   0.099  52.517  1.00  0.00    -0.034 C 
HETATM   13  C13 UNL     1      26.673   1.171  51.615  1.00  0.00     0.010 C 
HETATM   14  C14 UNL     1      25.871   2.178  51.329  1.00  0.00     0.011 C 
HETATM   15  H10 UNL     1      25.962  -1.643  55.002  1.00  0.00     0.161 HD
ENDROOT
BRANCH   1  16
HETATM   16  C3  UNL     1      24.157   3.849  51.570  1.00  0.00     0.155 C 
BRANCH  16  17
HETATM   17  N1  UNL     1      24.933   4.873  51.043  1.00  0.00    -0.410 N 
HETATM   18  H5  UNL     1      25.707   5.241  51.620  1.00  0.00     0.154 HD
BRANCH  17  19
HETATM   19  C2  UNL     1      24.758   5.369  49.748  1.00  0.00     0.106 C 
HETATM   20  C1  UNL     1      23.891   4.726  48.756  1.00  0.00     0.037 C 
BRANCH  19  21
HETATM   21  C15 UNL     1      26.146   5.519  49.156  1.00  0.00    -0.036 A 
HETATM   22  C16 UNL     1      26.357   6.825  48.748  1.00  0.00     0.009 A 
HETATM   23  C17 UNL     1      27.568   7.218  48.169  1.00  0.00     0.001 A 
HETATM   24  C18 UNL     1      28.581   6.300  47.995  1.00  0.00     0.000 A 
HETATM   25  C19 UNL     1      28.332   5.012  48.413  1.00  0.00     0.001 A 
HETATM   26  C20 UNL     1      27.156   4.599  48.984  1.00  0.00     0.009 A 
ENDBRANCH  19  21
ENDBRANCH  17  19
ENDBRANCH  16  17
ENDBRANCH   1  16
TORSDOF 4
ENDMDL
MODEL 2
REMARK VINA RESULT:      -8.2      3.519      5.935
REMARK  4 active torsions:
REMARK  status: ('A' for Active; 'I' for Inactive)
REMARK    1  A    between atoms: C2_2  and  N1_3 
REMARK    2  A    between atoms: C2_2  and  C15_19 
REMARK    3  A    between atoms: N1_3  and  C3_4 
REMARK    4  A    between atoms: C3_4  and  C4_5 
ROOT
HETATM    1  C4  UNL     1      23.896   1.860  51.972  1.00  0.00    -0.023 C 
HETATM    2  C5  UNL     1      23.872   1.361  53.175  1.00  0.00     0.126 C 
HETATM    3  N2  UNL     1      25.056   0.733  53.576  1.00  0.00    -0.256 NA
HETATM    4  C6  UNL     1      25.091  -0.560  53.821  1.00  0.00     0.203 C 
HETATM    5  N3  UNL     1      26.411  -1.001  54.213  1.00  0.00    -0.373 N 
HETATM    6  C7  UNL     1      27.143  -0.886  52.957  1.00  0.00     0.140 C 
HETATM    7  C8  UNL     1      28.517  -1.380  53.084  1.00  0.00     0.027 C 
HETATM    8  C9  UNL     1      29.704  -0.900  53.487  1.00  0.00     0.133 C 
HETATM    9  O1  UNL     1      29.898   0.410  53.952  1.00  0.00    -0.360 OA
HETATM   10  C10 UNL     1      28.925   1.364  54.321  1.00  0.00     0.202 C 
HETATM   11  C11 UNL     1      27.907   1.418  53.220  1.00  0.00     0.009 C 
HETATM   12  C12 UNL     1      27.100   0.557  52.566  1.00  0.00    -0.034 C 
HETATM   13  C13 UNL     1      26.274   1.245  51.554  1.00  0.00     0.010 C 
HETATM   14  C14 UNL     1      25.137   1.784  51.157  1.00  0.00     0.011 C 
HETATM   15  H10 UNL     1      26.640  -1.300  55.199  1.00  0.00     0.161 HD
ENDROOT
BRANCH   1  16
HETATM   16  C3  UNL     1      22.867   2.576  51.207  1.00  0.00     0.155 C 
BRANCH  16  17
HETATM   17  N1  UNL     1      21.521   2.299  51.406  1.00  0.00    -0.410 N 
HETATM   18  H5  UNL     1      21.016   2.843  52.125  1.00  0.00     0.154 HD
BRANCH  17  19
HETATM   19  C2  UNL     1      20.812   1.379  50.629  1.00  0.00     0.106 C 
HETATM   20  C1  UNL     1      19.926   1.775  49.531  1.00  0.00     0.037 C 
BRANCH  19  21
HETATM   21  C15 UNL     1      20.029   0.514  51.598  1.00  0.00    -0.036 A 
HETATM   22  C16 UNL     1      18.769   0.245  51.093  1.00  0.00     0.009 A 
HETATM   23  C17 UNL     1      17.855  -0.539  51.805  1.00  0.00     0.001 A 
HETATM   24  C18 UNL     1      18.199  -1.062  53.032  1.00  0.00     0.000 A 
HETATM   25  C19 UNL     1      19.462  -0.770  53.500  1.00  0.00     0.001 A 
HETATM   26  C20 UNL     1      20.378  -0.006  52.824  1.00  0.00     0.009 A 
ENDBRANCH  19  21
ENDBRANCH  17  19
ENDBRANCH  16  17
ENDBRANCH   1  16
TORSDOF 4
ENDMDL
MODEL 3
REMARK VINA RESULT:      -8.0      5.885      8.389
REMARK  4 active torsions:
REMARK  status: ('A' for Active; 'I' for Inactive)
REMARK    1  A    between atoms: C2_2  and  N1_3 
REMARK    2  A    between atoms: C2_2  and  C15_19 
REMARK    3  A    between atoms: N1_3  and  C3_4 
REMARK    4  A    between atoms: C3_4  and  C4_5 
ROOT
HETATM    1  C4  UNL     1      31.238   8.496  48.703  1.00  0.00    -0.023 C 
HETATM    2  C5  UNL     1      31.830   8.566  47.545  1.00  0.00     0.126 C 
HETATM    3  N2  UNL     1      32.603   7.449  47.211  1.00  0.00    -0.256 NA
HETATM    4  C6  UNL     1      33.909   7.541  47.074  1.00  0.00     0.203 C 
HETATM    5  N3  UNL     1      34.508   6.268  46.735  1.00  0.00    -0.373 N 
HETATM    6  C7  UNL     1      34.361   5.533  47.985  1.00  0.00     0.140 C 
HETATM    7  C8  UNL     1      34.996   4.214  47.915  1.00  0.00     0.027 C 
HETATM    8  C9  UNL     1      34.670   2.984  47.487  1.00  0.00     0.133 C 
HETATM    9  O1  UNL     1      33.429   2.660  46.918  1.00  0.00    -0.360 OA
HETATM   10  C10 UNL     1      32.418   3.534  46.460  1.00  0.00     0.202 C 
HETATM   11  C11 UNL     1      32.173   4.545  47.542  1.00  0.00     0.009 C 
HETATM   12  C12 UNL     1      32.894   5.435  48.256  1.00  0.00    -0.034 C 
HETATM   13  C13 UNL     1      32.046   6.192  49.197  1.00  0.00     0.010 C 
HETATM   14  C14 UNL     1      31.367   7.271  49.535  1.00  0.00     0.011 C 
HETATM   15  H10 UNL     1      34.909   6.068  45.779  1.00  0.00     0.161 HD
ENDROOT
BRANCH   1  16
HETATM   16  C3  UNL     1      30.363   9.452  49.395  1.00  0.00     0.155 C 
BRANCH  16  17
HETATM   17  N1  UNL     1      29.052   9.111  49.703  1.00  0.00    -0.410 N 
HETATM   18  H5  UNL     1      28.797   9.023  50.701  1.00  0.00     0.154 HD
BRANCH  17  19
HETATM   19  C2  UNL     1      28.058   8.960  48.733  1.00  0.00     0.106 C 
HETATM   20  C1  UNL     1      26.873   9.819  48.663  1.00  0.00     0.037 C 
BRANCH  19  21
HETATM   21  C15 UNL     1      27.608   7.514  48.803  1.00  0.00    -0.036 A 
HETATM   22  C16 UNL     1      26.400   7.417  49.472  1.00  0.00     0.009 A 
HETATM   23  C17 UNL     1      25.775   6.181  49.665  1.00  0.00     0.001 A 
HETATM   24  C18 UNL     1      26.358   5.028  49.186  1.00  0.00     0.000 A 
HETATM   25  C19 UNL     1      27.560   5.166  48.527  1.00  0.00     0.001 A 
HETATM   26  C20 UNL     1      28.195   6.364  48.323  1.00  0.00     0.009 A 
ENDBRANCH  19  21
ENDBRANCH  17  19
ENDBRANCH  16  17
ENDBRANCH   1  16
TORSDOF 4
ENDMDL
MODEL 4
REMARK VINA RESULT:      -8.0      2.914      5.864
REMARK  4 active torsions:
REMARK  status: ('A' for Active; 'I' for Inactive)
REMARK    1  A    between atoms: C2_2  and  N1_3 
REMARK    2  A    between atoms: C2_2  and  C15_19 
REMARK    3  A    between atoms: N1_3  and  C3_4 
REMARK    4  A    between atoms: C3_4  and  C4_5 
ROOT
HETATM    1  C4  UNL     1      23.051   3.137  51.529  1.00  0.00    -0.023 C 
HETATM    2  C5  UNL     1      23.846   2.610  50.643  1.00  0.00     0.126 C 
HETATM    3  N2  UNL     1      25.034   2.081  51.159  1.00  0.00    -0.256 NA
HETATM    4  C6  UNL     1      26.203   2.597  50.843  1.00  0.00     0.203 C 
HETATM    5  N3  UNL     1      27.294   1.903  51.491  1.00  0.00    -0.373 N 
HETATM    6  C7  UNL     1      27.119   2.315  52.878  1.00  0.00     0.140 C 
HETATM    7  C8  UNL     1      28.192   1.801  53.735  1.00  0.00     0.027 C 
HETATM    8  C9  UNL     1      28.462   0.670  54.405  1.00  0.00     0.133 C 
HETATM    9  O1  UNL     1      27.614  -0.449  54.421  1.00  0.00    -0.360 OA
HETATM   10  C10 UNL     1      26.503  -0.720  53.593  1.00  0.00     0.202 C 
HETATM   11  C11 UNL     1      25.638   0.506  53.584  1.00  0.00     0.009 C 
HETATM   12  C12 UNL     1      25.774   1.820  53.307  1.00  0.00    -0.034 C 
HETATM   13  C13 UNL     1      24.499   2.546  53.468  1.00  0.00     0.010 C 
HETATM   14  C14 UNL     1      23.408   3.097  52.972  1.00  0.00     0.011 C 
HETATM   15  H10 UNL     1      27.968   1.286  50.962  1.00  0.00     0.161 HD
ENDROOT
BRANCH   1  16
HETATM   16  C3  UNL     1      21.741   3.785  51.381  1.00  0.00     0.155 C 
BRANCH  16  17
HETATM   17  N1  UNL     1      20.586   3.149  51.820  1.00  0.00    -0.410 N 
HETATM   18  H5  UNL     1      19.970   3.661  52.472  1.00  0.00     0.154 HD
BRANCH  17  19
HETATM   19  C2  UNL     1      20.192   1.889  51.363  1.00  0.00     0.106 C 
HETATM   20  C1  UNL     1      18.789   1.507  51.181  1.00  0.00     0.037 C 
BRANCH  19  21
HETATM   21  C15 UNL     1      20.858   0.875  52.273  1.00  0.00    -0.036 A 
HETATM   22  C16 UNL     1      20.440   1.053  53.580  1.00  0.00     0.009 A 
HETATM   23  C17 UNL     1      20.913   0.235  54.611  1.00  0.00     0.001 A 
HETATM   24  C18 UNL     1      21.813  -0.772  54.338  1.00  0.00     0.000 A 
HETATM   25  C19 UNL     1      22.205  -0.916  53.025  1.00  0.00     0.001 A 
HETATM   26  C20 UNL     1      21.757  -0.131  51.995  1.00  0.00     0.009 A 
ENDBRANCH  19  21
ENDBRANCH  17  19
ENDBRANCH  16  17
ENDBRANCH   1  16
TORSDOF 4
ENDMDL
MODEL 5
REMARK VINA RESULT:      -7.8      3.454      8.461
REMARK  4 active torsions:
REMARK  status: ('A' for Active; 'I' for Inactive)
REMARK    1  A    between atoms: C2_2  and  N1_3 
REMARK    2  A    between atoms: C2_2  and  C15_19 
REMARK    3  A    between atoms: N1_3  and  C3_4 
REMARK    4  A    between atoms: C3_4  and  C4_5 
ROOT
HETATM    1  C4  UNL     1      26.293   5.022  49.261  1.00  0.00    -0.023 C 
HETATM    2  C5  UNL     1      25.652   6.146  49.409  1.00  0.00     0.126 C 
HETATM    3  N2  UNL     1      26.366   7.286  49.025  1.00  0.00    -0.256 NA
HETATM    4  C6  UNL     1      26.712   8.202  49.904  1.00  0.00     0.203 C 
HETATM    5  N3  UNL     1      27.448   9.288  49.294  1.00  0.00    -0.373 N 
HETATM    6  C7  UNL     1      28.715   8.641  48.979  1.00  0.00     0.140 C 
HETATM    7  C8  UNL     1      29.685   9.591  48.426  1.00  0.00     0.027 C 
HETATM    8  C9  UNL     1      29.980  10.111  47.223  1.00  0.00     0.133 C 
HETATM    9  O1  UNL     1      29.292   9.786  46.043  1.00  0.00    -0.360 OA
HETATM   10  C10 UNL     1      28.066   9.100  45.903  1.00  0.00     0.202 C 
HETATM   11  C11 UNL     1      28.148   7.856  46.738  1.00  0.00     0.009 C 
HETATM   12  C12 UNL     1      28.407   7.534  48.023  1.00  0.00    -0.034 C 
HETATM   13  C13 UNL     1      28.310   6.079  48.250  1.00  0.00     0.010 C 
HETATM   14  C14 UNL     1      27.656   5.012  48.669  1.00  0.00     0.011 C 
HETATM   15  H10 UNL     1      27.038  10.253  49.174  1.00  0.00     0.161 HD
ENDROOT
BRANCH   1  16
HETATM   16  C3  UNL     1      25.890   3.640  49.552  1.00  0.00     0.155 C 
BRANCH  16  17
HETATM   17  N1  UNL     1      26.438   2.958  50.630  1.00  0.00    -0.410 N 
HETATM   18  H5  UNL     1      27.437   3.113  50.843  1.00  0.00     0.154 HD
BRANCH  17  19
HETATM   19  C2  UNL     1      25.684   2.138  51.474  1.00  0.00     0.106 C 
HETATM   20  C1  UNL     1      24.757   2.664  52.480  1.00  0.00     0.037 C 
BRANCH  19  21
HETATM   21  C15 UNL     1      26.667   1.207  52.157  1.00  0.00    -0.036 A 
HETATM   22  C16 UNL     1      27.683   1.933  52.754  1.00  0.00     0.009 A 
HETATM   23  C17 UNL     1      28.715   1.297  53.452  1.00  0.00     0.001 A 
HETATM   24  C18 UNL     1      28.736  -0.077  53.557  1.00  0.00     0.000 A 
HETATM   25  C19 UNL     1      27.708  -0.763  52.948  1.00  0.00     0.001 A 
HETATM   26  C20 UNL     1      26.684  -0.166  52.259  1.00  0.00     0.009 A 
ENDBRANCH  19  21
ENDBRANCH  17  19
ENDBRANCH  16  17
ENDBRANCH   1  16
TORSDOF 4
ENDMDL
MODEL 6
REMARK VINA RESULT:      -7.7      4.993      8.360
REMARK  4 active torsions:
REMARK  status: ('A' for Active; 'I' for Inactive)
REMARK    1  A    between atoms: C2_2  and  N1_3 
REMARK    2  A    between atoms: C2_2  and  C15_19 
REMARK    3  A    between atoms: N1_3  and  C3_4 
REMARK    4  A    between atoms: C3_4  and  C4_5 
ROOT
HETATM    1  C4  UNL     1      30.326   7.445  48.273  1.00  0.00    -0.023 C 
HETATM    2  C5  UNL     1      31.458   8.079  48.158  1.00  0.00     0.126 C 
HETATM    3  N2  UNL     1      32.544   7.280  47.787  1.00  0.00    -0.256 NA
HETATM    4  C6  UNL     1      33.561   7.092  48.602  1.00  0.00     0.203 C 
HETATM    5  N3  UNL     1      34.567   6.230  48.022  1.00  0.00    -0.373 N 
HETATM    6  C7  UNL     1      33.891   4.939  48.040  1.00  0.00     0.140 C 
HETATM    7  C8  UNL     1      34.769   3.860  47.577  1.00  0.00     0.027 C 
HETATM    8  C9  UNL     1      35.140   3.327  46.403  1.00  0.00     0.133 C 
HETATM    9  O1  UNL     1      34.673   3.779  45.158  1.00  0.00    -0.360 OA
HETATM   10  C10 UNL     1      33.971   4.968  44.864  1.00  0.00     0.202 C 
HETATM   11  C11 UNL     1      32.838   5.076  45.841  1.00  0.00     0.009 C 
HETATM   12  C12 UNL     1      32.675   5.078  47.181  1.00  0.00    -0.034 C 
HETATM   13  C13 UNL     1      31.257   5.249  47.557  1.00  0.00     0.010 C 
HETATM   14  C14 UNL     1      30.248   5.993  47.965  1.00  0.00     0.011 C 
HETATM   15  H10 UNL     1      35.510   6.588  47.709  1.00  0.00     0.161 HD
ENDROOT
BRANCH   1  16
HETATM   16  C3  UNL     1      28.988   7.926  48.642  1.00  0.00     0.155 C 
BRANCH  16  17
HETATM   17  N1  UNL     1      27.978   7.027  48.960  1.00  0.00    -0.410 N 
HETATM   18  H5  UNL     1      28.077   6.477  49.829  1.00  0.00     0.154 HD
BRANCH  17  19
HETATM   19  C2  UNL     1      26.813   6.892  48.201  1.00  0.00     0.106 C 
HETATM   20  C1  UNL     1      25.839   7.975  48.034  1.00  0.00     0.037 C 
BRANCH  19  21
HETATM   21  C15 UNL     1      26.094   5.668  48.733  1.00  0.00    -0.036 A 
HETATM   22  C16 UNL     1      27.003   4.668  49.032  1.00  0.00     0.009 A 
HETATM   23  C17 UNL     1      26.583   3.435  49.542  1.00  0.00     0.001 A 
HETATM   24  C18 UNL     1      25.243   3.195  49.759  1.00  0.00     0.000 A 
HETATM   25  C19 UNL     1      24.371   4.216  49.449  1.00  0.00     0.001 A 
HETATM   26  C20 UNL     1      24.754   5.433  48.948  1.00  0.00     0.009 A 
ENDBRANCH  19  21
ENDBRANCH  17  19
ENDBRANCH  16  17
ENDBRANCH   1  16
TORSDOF 4
ENDMDL
MODEL 7
REMARK VINA RESULT:      -7.7      3.036      7.274
REMARK  4 active torsions:
REMARK  status: ('A' for Active; 'I' for Inactive)
REMARK    1  A    between atoms: C2_2  and  N1_3 
REMARK    2  A    between atoms: C2_2  and  C15_19 
REMARK    3  A    between atoms: N1_3  and  C3_4 
REMARK    4  A    between atoms: C3_4  and  C4_5 
ROOT
HETATM    1  C4  UNL     1      23.374   1.654  52.018  1.00  0.00    -0.023 C 
HETATM    2  C5  UNL     1      22.900   1.791  50.813  1.00  0.00     0.126 C 
HETATM    3  N2  UNL     1      22.792   3.113  50.369  1.00  0.00    -0.256 NA
HETATM    4  C6  UNL     1      21.619   3.652  50.113  1.00  0.00     0.203 C 
HETATM    5  N3  UNL     1      21.738   5.026  49.676  1.00  0.00    -0.373 N 
HETATM    6  C7  UNL     1      22.142   5.691  50.908  1.00  0.00     0.140 C 
HETATM    7  C8  UNL     1      22.235   7.143  50.734  1.00  0.00     0.027 C 
HETATM    8  C9  UNL     1      23.145   8.028  50.296  1.00  0.00     0.133 C 
HETATM    9  O1  UNL     1      24.422   7.669  49.835  1.00  0.00    -0.360 OA
HETATM   10  C10 UNL     1      24.907   6.386  49.505  1.00  0.00     0.202 C 
HETATM   11  C11 UNL     1      24.558   5.466  50.639  1.00  0.00     0.009 C 
HETATM   12  C12 UNL     1      23.450   5.090  51.312  1.00  0.00    -0.034 C 
HETATM   13  C13 UNL     1      23.759   4.092  52.355  1.00  0.00     0.010 C 
HETATM   14  C14 UNL     1      23.804   2.849  52.792  1.00  0.00     0.011 C 
HETATM   15  H10 UNL     1      21.549   5.322  48.680  1.00  0.00     0.161 HD
ENDROOT
BRANCH   1  16
HETATM   16  C3  UNL     1      23.627   0.450  52.821  1.00  0.00     0.155 C 
BRANCH  16  17
HETATM   17  N1  UNL     1      24.875   0.232  53.391  1.00  0.00    -0.410 N 
HETATM   18  H5  UNL     1      24.954   0.288  54.419  1.00  0.00     0.154 HD
BRANCH  17  19
HETATM   19  C2  UNL     1      25.998  -0.131  52.643  1.00  0.00     0.106 C 
HETATM   20  C1  UNL     1      26.453  -1.517  52.506  1.00  0.00     0.037 C 
BRANCH  19  21
HETATM   21  C15 UNL     1      27.148   0.710  53.162  1.00  0.00    -0.036 A 
HETATM   22  C16 UNL     1      27.956  -0.042  53.997  1.00  0.00     0.009 A 
HETATM   23  C17 UNL     1      29.089   0.512  54.602  1.00  0.00     0.001 A 
HETATM   24  C18 UNL     1      29.422   1.829  54.372  1.00  0.00     0.000 A 
HETATM   25  C19 UNL     1      28.593   2.543  53.536  1.00  0.00     0.001 A 
HETATM   26  C20 UNL     1      27.477   2.027  52.929  1.00  0.00     0.009 A 
ENDBRANCH  19  21
ENDBRANCH  17  19
ENDBRANCH  16  17
ENDBRANCH   1  16
TORSDOF 4
ENDMDL
MODEL 8
REMARK VINA RESULT:      -7.5      4.374      7.571
REMARK  4 active torsions:
REMARK  status: ('A' for Active; 'I' for Inactive)
REMARK    1  A    between atoms: C2_2  and  N1_3 
REMARK    2  A    between atoms: C2_2  and  C15_19 
REMARK    3  A    between atoms: N1_3  and  C3_4 
REMARK    4  A    between atoms: C3_4  and  C4_5 
ROOT
HETATM    1  C4  UNL     1      23.662   2.395  51.781  1.00  0.00    -0.023 C 
HETATM    2  C5  UNL     1      22.818   2.915  52.626  1.00  0.00     0.126 C 
HETATM    3  N2  UNL     1      21.471   2.682  52.331  1.00  0.00    -0.256 NA
HETATM    4  C6  UNL     1      20.660   3.672  52.023  1.00  0.00     0.203 C 
HETATM    5  N3  UNL     1      19.318   3.206  51.749  1.00  0.00    -0.373 N 
HETATM    6  C7  UNL     1      19.500   2.523  50.474  1.00  0.00     0.140 C 
HETATM    7  C8  UNL     1      18.227   2.037  49.933  1.00  0.00     0.027 C 
HETATM    8  C9  UNL     1      17.445   0.956  50.074  1.00  0.00     0.133 C 
HETATM    9  O1  UNL     1      17.748  -0.121  50.923  1.00  0.00    -0.360 OA
HETATM   10  C10 UNL     1      18.729  -0.191  51.936  1.00  0.00     0.202 C 
HETATM   11  C11 UNL     1      20.019   0.304  51.350  1.00  0.00     0.009 C 
HETATM   12  C12 UNL     1      20.467   1.409  50.718  1.00  0.00    -0.034 C 
HETATM   13  C13 UNL     1      21.903   1.305  50.394  1.00  0.00     0.010 C 
HETATM   14  C14 UNL     1      23.170   1.578  50.641  1.00  0.00     0.011 C 
HETATM   15  H10 UNL     1      18.509   3.390  52.402  1.00  0.00     0.161 HD
ENDROOT
BRANCH   1  16
HETATM   16  C3  UNL     1      25.130   2.426  51.747  1.00  0.00     0.155 C 
BRANCH  16  17
HETATM   17  N1  UNL     1      25.872   1.701  52.671  1.00  0.00    -0.410 N 
HETATM   18  H5  UNL     1      26.482   2.225  53.319  1.00  0.00     0.154 HD
BRANCH  17  19
HETATM   19  C2  UNL     1      25.768   0.314  52.809  1.00  0.00     0.106 C 
HETATM   20  C1  UNL     1      24.867  -0.329  53.769  1.00  0.00     0.037 C 
BRANCH  19  21
HETATM   21  C15 UNL     1      27.176  -0.199  53.043  1.00  0.00    -0.036 A 
HETATM   22  C16 UNL     1      28.002   0.832  53.455  1.00  0.00     0.009 A 
HETATM   23  C17 UNL     1      29.354   0.610  53.738  1.00  0.00     0.001 A 
HETATM   24  C18 UNL     1      29.889  -0.654  53.610  1.00  0.00     0.000 A 
HETATM   25  C19 UNL     1      29.034  -1.652  53.198  1.00  0.00     0.001 A 
HETATM   26  C20 UNL     1      27.706  -1.463  52.915  1.00  0.00     0.009 A 
ENDBRANCH  19  21
ENDBRANCH  17  19
ENDBRANCH  16  17
ENDBRANCH   1  16
TORSDOF 4
ENDMDL
MODEL 9
REMARK VINA RESULT:      -7.5      4.104      6.130
REMARK  4 active torsions:
REMARK  status: ('A' for Active; 'I' for Inactive)
REMARK    1  A    between atoms: C2_2  and  N1_3 
REMARK    2  A    between atoms: C2_2  and  C15_19 
REMARK    3  A    between atoms: N1_3  and  C3_4 
REMARK    4  A    between atoms: C3_4  and  C4_5 
ROOT
HETATM    1  C4  UNL     1      27.164   5.761  48.628  1.00  0.00    -0.023 C 
HETATM    2  C5  UNL     1      26.040   6.390  48.823  1.00  0.00     0.126 C 
HETATM    3  N2  UNL     1      24.993   5.591  49.297  1.00  0.00    -0.256 NA
HETATM    4  C6  UNL     1      23.915   5.380  48.572  1.00  0.00     0.203 C 
HETATM    5  N3  UNL     1      22.967   4.523  49.249  1.00  0.00    -0.373 N 
HETATM    6  C7  UNL     1      23.651   3.236  49.200  1.00  0.00     0.140 C 
HETATM    7  C8  UNL     1      22.822   2.162  49.754  1.00  0.00     0.027 C 
HETATM    8  C9  UNL     1      22.552   1.649  50.965  1.00  0.00     0.133 C 
HETATM    9  O1  UNL     1      23.116   2.129  52.158  1.00  0.00    -0.360 OA
HETATM   10  C10 UNL     1      23.830   3.328  52.371  1.00  0.00     0.202 C 
HETATM   11  C11 UNL     1      24.878   3.425  51.302  1.00  0.00     0.009 C 
HETATM   12  C12 UNL     1      24.931   3.401  49.954  1.00  0.00    -0.034 C 
HETATM   13  C13 UNL     1      26.312   3.573  49.460  1.00  0.00     0.010 C 
HETATM   14  C14 UNL     1      27.278   4.317  48.957  1.00  0.00     0.011 C 
HETATM   15  H10 UNL     1      22.050   4.881  49.631  1.00  0.00     0.161 HD
ENDROOT
BRANCH   1  16
HETATM   16  C3  UNL     1      28.463   6.244  48.141  1.00  0.00     0.155 C 
BRANCH  16  17
HETATM   17  N1  UNL     1      29.632   5.929  48.823  1.00  0.00    -0.410 N 
HETATM   18  H5  UNL     1      29.586   5.193  49.546  1.00  0.00     0.154 HD
BRANCH  17  19
HETATM   19  C2  UNL     1      30.867   6.507  48.520  1.00  0.00     0.106 C 
HETATM   20  C1  UNL     1      31.013   7.899  48.083  1.00  0.00     0.037 C 
BRANCH  19  21
HETATM   21  C15 UNL     1      31.523   5.604  47.494  1.00  0.00    -0.036 A 
HETATM   22  C16 UNL     1      32.125   6.359  46.502  1.00  0.00     0.009 A 
HETATM   23  C17 UNL     1      32.801   5.752  45.438  1.00  0.00     0.001 A 
HETATM   24  C18 UNL     1      32.880   4.378  45.361  1.00  0.00     0.000 A 
HETATM   25  C19 UNL     1      32.267   3.664  46.367  1.00  0.00     0.001 A 
HETATM   26  C20 UNL     1      31.599   4.231  47.421  1.00  0.00     0.009 A 
ENDBRANCH  19  21
ENDBRANCH  17  19
ENDBRANCH  16  17
ENDBRANCH   1  16
TORSDOF 4
ENDMDL
