MODEL 1
REMARK VINA RESULT:      -8.2      0.000      0.000
REMARK  6 active torsions:
REMARK  status: ('A' for Active; 'I' for Inactive)
REMARK    1  A    between atoms: C4_4  and  C5_5 
REMARK    2  A    between atoms: C5_5  and  C6_6 
REMARK    3  A    between atoms: C6_6  and  N1_7 
REMARK    4  A    between atoms: C7_9  and  C8_10 
REMARK    5  A    between atoms: C17_21  and  C18_22 
REMARK    6  A    between atoms: C22_26  and  O3_27 
ROOT
HETATM    1  C1  UNL     1      15.413  -1.112  51.462  1.00  0.00     0.017 C 
HETATM    2  C2  UNL     1      16.309  -1.337  52.236  1.00  0.00    -0.089 C 
HETATM    3  C3  UNL     1      17.406  -1.615  53.153  1.00  0.00     0.063 C 
HETATM    4  C4  UNL     1      18.503  -0.888  52.900  1.00  0.00     0.010 C 
ENDROOT
BRANCH   4   5
HETATM    5  C5  UNL     1      18.516   0.068  51.791  1.00  0.00     0.019 C 
BRANCH   5   6
HETATM    6  C6  UNL     1      19.708   0.527  51.748  1.00  0.00     0.113 C 
BRANCH   6   7
HETATM    7  N1  UNL     1      20.979   1.081  51.595  1.00  0.00    -0.275 N 
HETATM    8  N2  UNL     1      21.990   0.258  52.148  1.00  0.00    -0.176 NA
HETATM    9  C7  UNL     1      23.017   0.987  52.501  1.00  0.00     0.067 C 
HETATM   10  C16 UNL     1      22.710   2.429  52.173  1.00  0.00     0.090 C 
HETATM   11  C17 UNL     1      21.672   2.221  51.077  1.00  0.00     0.129 C 
BRANCH   9  12
HETATM   12  C8  UNL     1      24.310   0.614  53.117  1.00  0.00    -0.007 A 
HETATM   13  C9  UNL     1      24.431  -0.345  54.067  1.00  0.00     0.016 A 
HETATM   14  C10 UNL     1      25.642  -0.691  54.629  1.00  0.00     0.040 A 
HETATM   15  C11 UNL     1      26.794  -0.030  54.206  1.00  0.00     0.102 A 
HETATM   16  C12 UNL     1      26.686   0.947  53.240  1.00  0.00     0.103 A 
HETATM   17  O2  UNL     1      27.994  -0.404  54.792  1.00  0.00    -0.346 OA
HETATM   18  C13 UNL     1      25.455   1.262  52.705  1.00  0.00     0.053 A 
HETATM   19  O1  UNL     1      27.910   1.512  52.923  1.00  0.00    -0.346 OA
HETATM   20  C14 UNL     1      28.912   1.618  53.908  1.00  0.00     0.202 C 
HETATM   21  C15 UNL     1      29.188   0.263  54.487  1.00  0.00     0.202 C 
ENDBRANCH   9  12
BRANCH  11  22
HETATM   22  C18 UNL     1      22.401   1.842  49.828  1.00  0.00     0.090 A 
HETATM   23  C19 UNL     1      21.445   1.498  48.716  1.00  0.00    -0.013 A 
HETATM   24  C20 UNL     1      21.581   2.304  47.676  1.00  0.00    -0.001 A 
HETATM   25  C21 UNL     1      22.632   3.266  47.976  1.00  0.00     0.033 A 
HETATM   26  C22 UNL     1      23.100   3.001  49.209  1.00  0.00     0.055 A 
BRANCH  26  27
HETATM   27  O3  UNL     1      24.118   3.828  49.667  1.00  0.00    -0.359 OA
HETATM   28  C23 UNL     1      25.487   3.478  49.533  1.00  0.00     0.209 C 
ENDBRANCH  26  27
ENDBRANCH  11  22
ENDBRANCH   6   7
ENDBRANCH   5   6
ENDBRANCH   4   5
TORSDOF 6
ENDMDL
MODEL 2
REMARK VINA RESULT:      -7.9      3.205      8.033
REMARK  6 active torsions:
REMARK  status: ('A' for Active; 'I' for Inactive)
REMARK    1  A    between atoms: C4_4  and  C5_5 
REMARK    2  A    between atoms: C5_5  and  C6_6 
REMARK    3  A    between atoms: C6_6  and  N1_7 
REMARK    4  A    between atoms: C7_9  and  C8_10 
REMARK    5  A    between atoms: C17_21  and  C18_22 
REMARK    6  A    between atoms: C22_26  and  O3_27 
ROOT
HETATM    1  C1  UNL     1      30.054  -0.849  53.400  1.00  0.00     0.017 C 
HETATM    2  C2  UNL     1      29.224  -0.410  54.156  1.00  0.00    -0.089 C 
HETATM    3  C3  UNL     1      28.219   0.140  55.054  1.00  0.00     0.063 C 
HETATM    4  C4  UNL     1      27.032   0.338  54.461  1.00  0.00     0.010 C 
ENDROOT
BRANCH   4   5
HETATM    5  C5  UNL     1      26.850   0.009  53.047  1.00  0.00     0.019 C 
BRANCH   5   6
HETATM    6  C6  UNL     1      25.810   0.654  52.676  1.00  0.00     0.113 C 
BRANCH   6   7
HETATM    7  N1  UNL     1      24.623   1.320  52.375  1.00  0.00    -0.275 N 
HETATM    8  N2  UNL     1      24.583   1.760  51.029  1.00  0.00    -0.176 NA
HETATM    9  C7  UNL     1      23.803   2.804  50.922  1.00  0.00     0.067 C 
HETATM   10  C16 UNL     1      23.250   3.125  52.289  1.00  0.00     0.090 C 
HETATM   11  C17 UNL     1      23.382   1.753  52.941  1.00  0.00     0.129 C 
BRANCH   9  12
HETATM   12  C8  UNL     1      23.431   3.625  49.747  1.00  0.00    -0.007 A 
HETATM   13  C9  UNL     1      23.668   4.957  49.667  1.00  0.00     0.016 A 
HETATM   14  C10 UNL     1      23.325   5.711  48.564  1.00  0.00     0.040 A 
HETATM   15  C11 UNL     1      22.708   5.082  47.484  1.00  0.00     0.102 A 
HETATM   16  C12 UNL     1      22.460   3.728  47.553  1.00  0.00     0.103 A 
HETATM   17  O2  UNL     1      22.377   5.871  46.392  1.00  0.00    -0.346 OA
HETATM   18  C13 UNL     1      22.820   3.012  48.674  1.00  0.00     0.053 A 
HETATM   19  O1  UNL     1      21.845   3.247  46.409  1.00  0.00    -0.346 OA
HETATM   20  C14 UNL     1      20.970   4.076  45.679  1.00  0.00     0.202 C 
HETATM   21  C15 UNL     1      21.681   5.339  45.299  1.00  0.00     0.202 C 
ENDBRANCH   9  12
BRANCH  11  22
HETATM   22  C18 UNL     1      22.268   0.898  52.428  1.00  0.00     0.090 A 
HETATM   23  C19 UNL     1      22.376  -0.513  52.943  1.00  0.00    -0.013 A 
HETATM   24  C20 UNL     1      21.327  -0.859  53.669  1.00  0.00    -0.001 A 
HETATM   25  C21 UNL     1      20.410   0.273  53.719  1.00  0.00     0.033 A 
HETATM   26  C22 UNL     1      20.952   1.278  53.008  1.00  0.00     0.055 A 
BRANCH  26  27
HETATM   27  O3  UNL     1      20.210   2.451  52.946  1.00  0.00    -0.359 OA
HETATM   28  C23 UNL     1      19.263   2.685  51.914  1.00  0.00     0.209 C 
ENDBRANCH  26  27
ENDBRANCH  11  22
ENDBRANCH   6   7
ENDBRANCH   5   6
ENDBRANCH   4   5
TORSDOF 6
ENDMDL
MODEL 3
REMARK VINA RESULT:      -7.8      3.620      7.523
REMARK  6 active torsions:
REMARK  status: ('A' for Active; 'I' for Inactive)
REMARK    1  A    between atoms: C4_4  and  C5_5 
REMARK    2  A    between atoms: C5_5  and  C6_6 
REMARK    3  A    between atoms: C6_6  and  N1_7 
REMARK    4  A    between atoms: C7_9  and  C8_10 
REMARK    5  A    between atoms: C17_21  and  C18_22 
REMARK    6  A    between atoms: C22_26  and  O3_27 
ROOT
HETATM    1  C1  UNL     1      29.225   7.962  46.768  1.00  0.00     0.017 C 
HETATM    2  C2  UNL     1      29.239   6.892  47.323  1.00  0.00    -0.089 C 
HETATM    3  C3  UNL     1      29.249   5.611  48.015  1.00  0.00     0.063 C 
HETATM    4  C4  UNL     1      28.075   5.313  48.592  1.00  0.00     0.010 C 
ENDROOT
BRANCH   4   5
HETATM    5  C5  UNL     1      26.947   6.239  48.490  1.00  0.00     0.019 C 
BRANCH   5   6
HETATM    6  C6  UNL     1      25.932   5.593  48.923  1.00  0.00     0.113 C 
BRANCH   6   7
HETATM    7  N1  UNL     1      24.824   4.964  49.490  1.00  0.00    -0.275 N 
HETATM    8  N2  UNL     1      25.179   4.143  50.589  1.00  0.00    -0.176 NA
HETATM    9  C7  UNL     1      24.304   3.182  50.731  1.00  0.00     0.067 C 
HETATM   10  C16 UNL     1      23.255   3.333  49.656  1.00  0.00     0.090 C 
HETATM   11  C17 UNL     1      23.406   4.822  49.367  1.00  0.00     0.129 C 
BRANCH   9  12
HETATM   12  C8  UNL     1      24.222   2.078  51.713  1.00  0.00    -0.007 A 
HETATM   13  C9  UNL     1      25.284   1.308  52.057  1.00  0.00     0.016 A 
HETATM   14  C10 UNL     1      25.199   0.287  52.980  1.00  0.00     0.040 A 
HETATM   15  C11 UNL     1      23.971   0.030  53.588  1.00  0.00     0.102 A 
HETATM   16  C12 UNL     1      22.883   0.805  53.248  1.00  0.00     0.103 A 
HETATM   17  O2  UNL     1      23.922  -1.004  54.511  1.00  0.00    -0.346 OA
HETATM   18  C13 UNL     1      23.013   1.816  52.320  1.00  0.00     0.053 A 
HETATM   19  O1  UNL     1      21.738   0.433  53.932  1.00  0.00    -0.346 OA
HETATM   20  C14 UNL     1      21.544  -0.914  54.298  1.00  0.00     0.202 C 
HETATM   21  C15 UNL     1      22.713  -1.385  55.109  1.00  0.00     0.202 C 
ENDBRANCH   9  12
BRANCH  11  22
HETATM   22  C18 UNL     1      22.727   5.569  50.470  1.00  0.00     0.090 A 
HETATM   23  C19 UNL     1      23.077   7.034  50.439  1.00  0.00    -0.013 A 
HETATM   24  C20 UNL     1      22.012   7.795  50.258  1.00  0.00    -0.001 A 
HETATM   25  C21 UNL     1      20.844   6.932  50.149  1.00  0.00     0.033 A 
HETATM   26  C22 UNL     1      21.255   5.658  50.270  1.00  0.00     0.055 A 
BRANCH  26  27
HETATM   27  O3  UNL     1      20.266   4.686  50.189  1.00  0.00    -0.359 OA
HETATM   28  C23 UNL     1      19.908   3.885  51.305  1.00  0.00     0.209 C 
ENDBRANCH  26  27
ENDBRANCH  11  22
ENDBRANCH   6   7
ENDBRANCH   5   6
ENDBRANCH   4   5
TORSDOF 6
ENDMDL
MODEL 4
REMARK VINA RESULT:      -7.6      6.396     11.147
REMARK  6 active torsions:
REMARK  status: ('A' for Active; 'I' for Inactive)
REMARK    1  A    between atoms: C4_4  and  C5_5 
REMARK    2  A    between atoms: C5_5  and  C6_6 
REMARK    3  A    between atoms: C6_6  and  N1_7 
REMARK    4  A    between atoms: C7_9  and  C8_10 
REMARK    5  A    between atoms: C17_21  and  C18_22 
REMARK    6  A    between atoms: C22_26  and  O3_27 
ROOT
HETATM    1  C1  UNL     1      35.334   3.610  45.607  1.00  0.00     0.017 C 
HETATM    2  C2  UNL     1      34.631   3.266  46.524  1.00  0.00    -0.089 C 
HETATM    3  C3  UNL     1      33.785   2.873  47.641  1.00  0.00     0.063 C 
HETATM    4  C4  UNL     1      32.724   3.675  47.808  1.00  0.00     0.010 C 
ENDROOT
BRANCH   4   5
HETATM    5  C5  UNL     1      32.511   4.814  46.913  1.00  0.00     0.019 C 
BRANCH   5   6
HETATM    6  C6  UNL     1      31.468   5.407  47.354  1.00  0.00     0.113 C 
BRANCH   6   7
HETATM    7  N1  UNL     1      30.299   6.074  47.720  1.00  0.00    -0.275 N 
HETATM    8  N2  UNL     1      29.437   5.258  48.493  1.00  0.00    -0.176 NA
HETATM    9  C7  UNL     1      28.198   5.649  48.344  1.00  0.00     0.067 C 
HETATM   10  C16 UNL     1      28.182   6.826  47.399  1.00  0.00     0.090 C 
HETATM   11  C17 UNL     1      29.611   7.322  47.593  1.00  0.00     0.129 C 
BRANCH   9  12
HETATM   12  C8  UNL     1      26.939   5.135  48.928  1.00  0.00    -0.007 A 
HETATM   13  C9  UNL     1      26.772   3.848  49.320  1.00  0.00     0.016 A 
HETATM   14  C10 UNL     1      25.597   3.382  49.871  1.00  0.00     0.040 A 
HETATM   15  C11 UNL     1      24.532   4.266  50.032  1.00  0.00     0.102 A 
HETATM   16  C12 UNL     1      24.687   5.577  49.638  1.00  0.00     0.103 A 
HETATM   17  O2  UNL     1      23.365   3.762  50.589  1.00  0.00    -0.346 OA
HETATM   18  C13 UNL     1      25.879   6.002  49.092  1.00  0.00     0.053 A 
HETATM   19  O1  UNL     1      23.548   6.332  49.860  1.00  0.00    -0.346 OA
HETATM   20  C14 UNL     1      22.277   5.729  49.778  1.00  0.00     0.202 C 
HETATM   21  C15 UNL     1      22.219   4.558  50.712  1.00  0.00     0.202 C 
ENDBRANCH   9  12
BRANCH  11  22
HETATM   22  C18 UNL     1      29.662   8.060  48.892  1.00  0.00     0.090 A 
HETATM   23  C19 UNL     1      31.072   8.459  49.243  1.00  0.00    -0.013 A 
HETATM   24  C20 UNL     1      31.209   9.771  49.334  1.00  0.00    -0.001 A 
HETATM   25  C21 UNL     1      29.918  10.387  49.056  1.00  0.00     0.033 A 
HETATM   26  C22 UNL     1      29.035   9.406  48.803  1.00  0.00     0.055 A 
BRANCH  26  27
HETATM   27  O3  UNL     1      27.738   9.812  48.512  1.00  0.00    -0.359 OA
HETATM   28  C23 UNL     1      27.395  10.395  47.264  1.00  0.00     0.209 C 
ENDBRANCH  26  27
ENDBRANCH  11  22
ENDBRANCH   6   7
ENDBRANCH   5   6
ENDBRANCH   4   5
TORSDOF 6
ENDMDL
MODEL 5
REMARK VINA RESULT:      -7.3      4.067      7.148
REMARK  6 active torsions:
REMARK  status: ('A' for Active; 'I' for Inactive)
REMARK    1  A    between atoms: C4_4  and  C5_5 
REMARK    2  A    between atoms: C5_5  and  C6_6 
REMARK    3  A    between atoms: C6_6  and  N1_7 
REMARK    4  A    between atoms: C7_9  and  C8_10 
REMARK    5  A    between atoms: C17_21  and  C18_22 
REMARK    6  A    between atoms: C22_26  and  O3_27 
ROOT
HETATM    1  C1  UNL     1      27.515  -1.414  52.752  1.00  0.00     0.017 C 
HETATM    2  C2  UNL     1      27.263  -0.403  53.358  1.00  0.00    -0.089 C 
HETATM    3  C3  UNL     1      26.956   0.830  54.069  1.00  0.00     0.063 C 
HETATM    4  C4  UNL     1      25.751   1.332  53.760  1.00  0.00     0.010 C 
ENDROOT
BRANCH   4   5
HETATM    5  C5  UNL     1      24.892   0.647  52.792  1.00  0.00     0.019 C 
BRANCH   5   6
HETATM    6  C6  UNL     1      24.632   1.514  51.890  1.00  0.00     0.113 C 
BRANCH   6   7
HETATM    7  N1  UNL     1      24.395   2.544  50.980  1.00  0.00    -0.275 N 
HETATM    8  N2  UNL     1      25.578   2.953  50.316  1.00  0.00    -0.176 NA
HETATM    9  C7  UNL     1      25.470   4.200  49.937  1.00  0.00     0.067 C 
HETATM   10  C16 UNL     1      24.115   4.710  50.364  1.00  0.00     0.090 C 
HETATM   11  C17 UNL     1      23.365   3.385  50.451  1.00  0.00     0.129 C 
BRANCH   9  12
HETATM   12  C8  UNL     1      26.414   5.083  49.216  1.00  0.00    -0.007 A 
HETATM   13  C9  UNL     1      27.646   4.684  48.815  1.00  0.00     0.016 A 
HETATM   14  C10 UNL     1      28.515   5.513  48.137  1.00  0.00     0.040 A 
HETATM   15  C11 UNL     1      28.115   6.816  47.848  1.00  0.00     0.102 A 
HETATM   16  C12 UNL     1      26.865   7.235  48.250  1.00  0.00     0.103 A 
HETATM   17  O2  UNL     1      29.014   7.621  47.164  1.00  0.00    -0.346 OA
HETATM   18  C13 UNL     1      26.028   6.374  48.926  1.00  0.00     0.053 A 
HETATM   19  O1  UNL     1      26.610   8.549  47.893  1.00  0.00    -0.346 OA
HETATM   20  C14 UNL     1      27.667   9.479  47.832  1.00  0.00     0.202 C 
HETATM   21  C15 UNL     1      28.728   8.968  46.905  1.00  0.00     0.202 C 
ENDBRANCH   9  12
BRANCH  11  22
HETATM   22  C18 UNL     1      23.033   2.959  49.058  1.00  0.00     0.090 A 
HETATM   23  C19 UNL     1      22.296   1.645  49.046  1.00  0.00    -0.013 A 
HETATM   24  C20 UNL     1      21.090   1.756  48.516  1.00  0.00    -0.001 A 
HETATM   25  C21 UNL     1      20.889   3.144  48.120  1.00  0.00     0.033 A 
HETATM   26  C22 UNL     1      22.002   3.831  48.431  1.00  0.00     0.055 A 
BRANCH  26  27
HETATM   27  O3  UNL     1      21.991   5.185  48.123  1.00  0.00    -0.359 OA
HETATM   28  C23 UNL     1      22.242   5.658  46.808  1.00  0.00     0.209 C 
ENDBRANCH  26  27
ENDBRANCH  11  22
ENDBRANCH   6   7
ENDBRANCH   5   6
ENDBRANCH   4   5
TORSDOF 6
ENDMDL
MODEL 6
REMARK VINA RESULT:      -7.3      2.922      7.857
REMARK  6 active torsions:
REMARK  status: ('A' for Active; 'I' for Inactive)
REMARK    1  A    between atoms: C4_4  and  C5_5 
REMARK    2  A    between atoms: C5_5  and  C6_6 
REMARK    3  A    between atoms: C6_6  and  N1_7 
REMARK    4  A    between atoms: C7_9  and  C8_10 
REMARK    5  A    between atoms: C17_21  and  C18_22 
REMARK    6  A    between atoms: C22_26  and  O3_27 
ROOT
HETATM    1  C1  UNL     1      27.154  -2.392  52.337  1.00  0.00     0.017 C 
HETATM    2  C2  UNL     1      27.191  -1.261  52.753  1.00  0.00    -0.089 C 
HETATM    3  C3  UNL     1      27.215   0.109  53.242  1.00  0.00     0.063 C 
HETATM    4  C4  UNL     1      26.112   0.445  53.928  1.00  0.00     0.010 C 
ENDROOT
BRANCH   4   5
HETATM    5  C5  UNL     1      25.037  -0.530  54.119  1.00  0.00     0.019 C 
BRANCH   5   6
HETATM    6  C6  UNL     1      24.021  -0.042  53.517  1.00  0.00     0.113 C 
BRANCH   6   7
HETATM    7  N1  UNL     1      22.972   0.474  52.756  1.00  0.00    -0.275 N 
HETATM    8  N2  UNL     1      21.706   0.173  53.316  1.00  0.00    -0.176 NA
HETATM    9  C7  UNL     1      20.796   0.145  52.377  1.00  0.00     0.067 C 
HETATM   10  C16 UNL     1      21.466   0.448  51.059  1.00  0.00     0.090 C 
HETATM   11  C17 UNL     1      22.683   1.214  51.566  1.00  0.00     0.129 C 
BRANCH   9  12
HETATM   12  C8  UNL     1      19.341  -0.118  52.440  1.00  0.00    -0.007 A 
HETATM   13  C9  UNL     1      18.793  -1.078  53.225  1.00  0.00     0.016 A 
HETATM   14  C10 UNL     1      17.435  -1.310  53.282  1.00  0.00     0.040 A 
HETATM   15  C11 UNL     1      16.585  -0.528  52.501  1.00  0.00     0.102 A 
HETATM   16  C12 UNL     1      17.129   0.452  51.698  1.00  0.00     0.103 A 
HETATM   17  O2  UNL     1      15.225  -0.789  52.584  1.00  0.00    -0.346 OA
HETATM   18  C13 UNL     1      18.492   0.650  51.672  1.00  0.00     0.053 A 
HETATM   19  O1  UNL     1      16.164   1.144  50.986  1.00  0.00    -0.346 OA
HETATM   20  C14 UNL     1      14.985   0.488  50.578  1.00  0.00     0.202 C 
HETATM   21  C15 UNL     1      14.306  -0.108  51.774  1.00  0.00     0.202 C 
ENDBRANCH   9  12
BRANCH  11  22
HETATM   22  C18 UNL     1      22.232   2.593  51.927  1.00  0.00     0.090 A 
HETATM   23  C19 UNL     1      23.305   3.344  52.672  1.00  0.00    -0.013 A 
HETATM   24  C20 UNL     1      23.689   4.432  52.025  1.00  0.00    -0.001 A 
HETATM   25  C21 UNL     1      22.924   4.526  50.790  1.00  0.00     0.033 A 
HETATM   26  C22 UNL     1      22.091   3.472  50.735  1.00  0.00     0.055 A 
BRANCH  26  27
HETATM   27  O3  UNL     1      21.275   3.395  49.613  1.00  0.00    -0.359 OA
HETATM   28  C23 UNL     1      21.701   3.862  48.342  1.00  0.00     0.209 C 
ENDBRANCH  26  27
ENDBRANCH  11  22
ENDBRANCH   6   7
ENDBRANCH   5   6
ENDBRANCH   4   5
TORSDOF 6
ENDMDL
MODEL 7
REMARK VINA RESULT:      -7.2      2.355      5.373
REMARK  6 active torsions:
REMARK  status: ('A' for Active; 'I' for Inactive)
REMARK    1  A    between atoms: C4_4  and  C5_5 
REMARK    2  A    between atoms: C5_5  and  C6_6 
REMARK    3  A    between atoms: C6_6  and  N1_7 
REMARK    4  A    between atoms: C7_9  and  C8_10 
REMARK    5  A    between atoms: C17_21  and  C18_22 
REMARK    6  A    between atoms: C22_26  and  O3_27 
ROOT
HETATM    1  C1  UNL     1      14.548  -0.696  50.689  1.00  0.00     0.017 C 
HETATM    2  C2  UNL     1      15.317  -1.050  51.547  1.00  0.00    -0.089 C 
HETATM    3  C3  UNL     1      16.259  -1.488  52.567  1.00  0.00     0.063 C 
HETATM    4  C4  UNL     1      17.504  -1.030  52.368  1.00  0.00     0.010 C 
ENDROOT
BRANCH   4   5
HETATM    5  C5  UNL     1      17.802  -0.181  51.213  1.00  0.00     0.019 C 
BRANCH   5   6
HETATM    6  C6  UNL     1      18.950   0.329  51.449  1.00  0.00     0.113 C 
BRANCH   6   7
HETATM    7  N1  UNL     1      20.251   0.787  51.653  1.00  0.00    -0.275 N 
HETATM    8  N2  UNL     1      20.321   2.202  51.680  1.00  0.00    -0.176 NA
HETATM    9  C7  UNL     1      21.511   2.598  51.310  1.00  0.00     0.067 C 
HETATM   10  C16 UNL     1      22.342   1.377  50.998  1.00  0.00     0.090 C 
HETATM   11  C17 UNL     1      21.599   0.347  51.842  1.00  0.00     0.129 C 
BRANCH   9  12
HETATM   12  C8  UNL     1      22.086   3.955  51.172  1.00  0.00    -0.007 A 
HETATM   13  C9  UNL     1      21.360   5.089  51.330  1.00  0.00     0.016 A 
HETATM   14  C10 UNL     1      21.908   6.349  51.208  1.00  0.00     0.040 A 
HETATM   15  C11 UNL     1      23.264   6.467  50.909  1.00  0.00     0.102 A 
HETATM   16  C12 UNL     1      24.014   5.323  50.746  1.00  0.00     0.103 A 
HETATM   17  O2  UNL     1      23.781   7.750  50.794  1.00  0.00    -0.346 OA
HETATM   18  C13 UNL     1      23.427   4.083  50.877  1.00  0.00     0.053 A 
HETATM   19  O1  UNL     1      25.340   5.599  50.455  1.00  0.00    -0.346 OA
HETATM   20  C14 UNL     1      25.672   6.757  49.723  1.00  0.00     0.202 C 
HETATM   21  C15 UNL     1      25.113   7.962  50.415  1.00  0.00     0.202 C 
ENDBRANCH   9  12
BRANCH  11  22
HETATM   22  C18 UNL     1      22.002   0.553  53.267  1.00  0.00     0.090 A 
HETATM   23  C19 UNL     1      21.066  -0.157  54.210  1.00  0.00    -0.013 A 
HETATM   24  C20 UNL     1      21.690  -1.072  54.933  1.00  0.00    -0.001 A 
HETATM   25  C21 UNL     1      23.097  -1.075  54.556  1.00  0.00     0.033 A 
HETATM   26  C22 UNL     1      23.273  -0.144  53.601  1.00  0.00     0.055 A 
BRANCH  26  27
HETATM   27  O3  UNL     1      24.567  -0.005  53.115  1.00  0.00    -0.359 OA
HETATM   28  C23 UNL     1      25.322   1.180  53.318  1.00  0.00     0.209 C 
ENDBRANCH  26  27
ENDBRANCH  11  22
ENDBRANCH   6   7
ENDBRANCH   5   6
ENDBRANCH   4   5
TORSDOF 6
ENDMDL
MODEL 8
REMARK VINA RESULT:      -7.2      2.399      2.696
REMARK  6 active torsions:
REMARK  status: ('A' for Active; 'I' for Inactive)
REMARK    1  A    between atoms: C4_4  and  C5_5 
REMARK    2  A    between atoms: C5_5  and  C6_6 
REMARK    3  A    between atoms: C6_6  and  N1_7 
REMARK    4  A    between atoms: C7_9  and  C8_10 
REMARK    5  A    between atoms: C17_21  and  C18_22 
REMARK    6  A    between atoms: C22_26  and  O3_27 
ROOT
HETATM    1  C1  UNL     1      15.935   4.090  52.209  1.00  0.00     0.017 C 
HETATM    2  C2  UNL     1      16.583   3.989  51.197  1.00  0.00    -0.089 C 
HETATM    3  C3  UNL     1      17.381   3.882  49.984  1.00  0.00     0.063 C 
HETATM    4  C4  UNL     1      18.630   3.449  50.210  1.00  0.00     0.010 C 
ENDROOT
BRANCH   4   5
HETATM    5  C5  UNL     1      19.068   3.138  51.572  1.00  0.00     0.019 C 
BRANCH   5   6
HETATM    6  C6  UNL     1      20.339   3.277  51.564  1.00  0.00     0.113 C 
BRANCH   6   7
HETATM    7  N1  UNL     1      21.723   3.388  51.440  1.00  0.00    -0.275 N 
HETATM    8  N2  UNL     1      22.390   2.190  51.795  1.00  0.00    -0.176 NA
HETATM    9  C7  UNL     1      23.600   2.457  52.210  1.00  0.00     0.067 C 
HETATM   10  C16 UNL     1      23.805   3.951  52.145  1.00  0.00     0.090 C 
HETATM   11  C17 UNL     1      22.767   4.300  51.085  1.00  0.00     0.129 C 
BRANCH   9  12
HETATM   12  C8  UNL     1      24.684   1.568  52.688  1.00  0.00    -0.007 A 
HETATM   13  C9  UNL     1      24.457   0.362  53.262  1.00  0.00     0.016 A 
HETATM   14  C10 UNL     1      25.474  -0.462  53.696  1.00  0.00     0.040 A 
HETATM   15  C11 UNL     1      26.793  -0.042  53.540  1.00  0.00     0.102 A 
HETATM   16  C12 UNL     1      27.040   1.183  52.957  1.00  0.00     0.103 A 
HETATM   17  O2  UNL     1      27.791  -0.896  53.987  1.00  0.00    -0.346 OA
HETATM   18  C13 UNL     1      25.992   1.975  52.538  1.00  0.00     0.053 A 
HETATM   19  O1  UNL     1      28.393   1.462  52.869  1.00  0.00    -0.346 OA
HETATM   20  C14 UNL     1      29.277   0.970  53.851  1.00  0.00     0.202 C 
HETATM   21  C15 UNL     1      29.140  -0.519  53.945  1.00  0.00     0.202 C 
ENDBRANCH   9  12
BRANCH  11  22
HETATM   22  C18 UNL     1      23.334   3.922  49.754  1.00  0.00     0.090 A 
HETATM   23  C19 UNL     1      22.290   3.291  48.870  1.00  0.00    -0.013 A 
HETATM   24  C20 UNL     1      22.087   3.988  47.765  1.00  0.00    -0.001 A 
HETATM   25  C21 UNL     1      22.964   5.151  47.788  1.00  0.00     0.033 A 
HETATM   26  C22 UNL     1      23.677   5.112  48.928  1.00  0.00     0.055 A 
BRANCH  26  27
HETATM   27  O3  UNL     1      24.574   6.154  49.123  1.00  0.00    -0.359 OA
HETATM   28  C23 UNL     1      25.842   5.949  49.729  1.00  0.00     0.209 C 
ENDBRANCH  26  27
ENDBRANCH  11  22
ENDBRANCH   6   7
ENDBRANCH   5   6
ENDBRANCH   4   5
TORSDOF 6
ENDMDL
MODEL 9
REMARK VINA RESULT:      -7.1      2.579      5.717
REMARK  6 active torsions:
REMARK  status: ('A' for Active; 'I' for Inactive)
REMARK    1  A    between atoms: C4_4  and  C5_5 
REMARK    2  A    between atoms: C5_5  and  C6_6 
REMARK    3  A    between atoms: C6_6  and  N1_7 
REMARK    4  A    between atoms: C7_9  and  C8_10 
REMARK    5  A    between atoms: C17_21  and  C18_22 
REMARK    6  A    between atoms: C22_26  and  O3_27 
ROOT
HETATM    1  C1  UNL     1      25.306   7.388  47.975  1.00  0.00     0.017 C 
HETATM    2  C2  UNL     1      24.963   7.605  49.110  1.00  0.00    -0.089 C 
HETATM    3  C3  UNL     1      24.530   7.879  50.472  1.00  0.00     0.063 C 
HETATM    4  C4  UNL     1      23.293   7.432  50.734  1.00  0.00     0.010 C 
ENDROOT
BRANCH   4   5
HETATM    5  C5  UNL     1      22.521   6.747  49.695  1.00  0.00     0.019 C 
BRANCH   5   6
HETATM    6  C6  UNL     1      22.483   5.519  50.051  1.00  0.00     0.113 C 
BRANCH   6   7
HETATM    7  N1  UNL     1      22.429   4.219  50.553  1.00  0.00    -0.275 N 
HETATM    8  N2  UNL     1      23.459   3.966  51.492  1.00  0.00    -0.176 NA
HETATM    9  C7  UNL     1      23.742   2.690  51.513  1.00  0.00     0.067 C 
HETATM   10  C16 UNL     1      22.848   1.989  50.518  1.00  0.00     0.090 C 
HETATM   11  C17 UNL     1      21.700   2.991  50.464  1.00  0.00     0.129 C 
BRANCH   9  12
HETATM   12  C8  UNL     1      24.727   1.924  52.309  1.00  0.00    -0.007 A 
HETATM   13  C9  UNL     1      24.388   0.891  53.118  1.00  0.00     0.016 A 
HETATM   14  C10 UNL     1      25.315   0.179  53.849  1.00  0.00     0.040 A 
HETATM   15  C11 UNL     1      26.660   0.533  53.757  1.00  0.00     0.102 A 
HETATM   16  C12 UNL     1      27.020   1.581  52.938  1.00  0.00     0.103 A 
HETATM   17  O2  UNL     1      27.565  -0.205  54.506  1.00  0.00    -0.346 OA
HETATM   18  C13 UNL     1      26.060   2.266  52.224  1.00  0.00     0.053 A 
HETATM   19  O1  UNL     1      28.385   1.813  52.949  1.00  0.00    -0.346 OA
HETATM   20  C14 UNL     1      29.133   1.555  54.115  1.00  0.00     0.202 C 
HETATM   21  C15 UNL     1      28.925   0.132  54.537  1.00  0.00     0.202 C 
ENDBRANCH   9  12
BRANCH  11  22
HETATM   22  C18 UNL     1      20.877   2.803  51.698  1.00  0.00     0.090 A 
HETATM   23  C19 UNL     1      19.574   3.554  51.609  1.00  0.00    -0.013 A 
HETATM   24  C20 UNL     1      18.530   2.746  51.675  1.00  0.00    -0.001 A 
HETATM   25  C21 UNL     1      19.015   1.380  51.813  1.00  0.00     0.033 A 
HETATM   26  C22 UNL     1      20.358   1.414  51.825  1.00  0.00     0.055 A 
BRANCH  26  27
HETATM   27  O3  UNL     1      21.000   0.189  51.950  1.00  0.00    -0.359 OA
HETATM   28  C23 UNL     1      20.914  -0.586  53.137  1.00  0.00     0.209 C 
ENDBRANCH  26  27
ENDBRANCH  11  22
ENDBRANCH   6   7
ENDBRANCH   5   6
ENDBRANCH   4   5
TORSDOF 6
ENDMDL
