MODEL 1
REMARK VINA RESULT:      -8.1      0.000      0.000
REMARK  1 active torsions:
REMARK  status: ('A' for Active; 'I' for Inactive)
REMARK    1  A    between atoms: C3_3  and  C4_4 
REMARK       I    between atoms: C7_8  and  N2_9 
ROOT
HETATM    1  C4  UNL     1      23.973   2.893  49.566  1.00  0.00     0.009 C 
HETATM    2  C5  UNL     1      23.734   2.461  50.811  1.00  0.00    -0.030 C 
HETATM    3  C6  UNL     1      22.469   1.897  51.342  1.00  0.00     0.177 C 
HETATM    4  N1  UNL     1      22.549   0.583  51.922  1.00  0.00    -0.220 N 
HETATM    5  C7  UNL     1      23.055  -0.060  53.122  1.00  0.00     0.697 C 
HETATM    6  N2  UNL     1      22.016  -0.706  53.894  1.00  0.00    -0.229 N 
HETATM    7  C8  UNL     1      22.175  -1.778  54.884  1.00  0.00     0.165 C 
HETATM    8  N3  UNL     1      24.164  -0.136  53.566  1.00  0.00    -0.059 NA
HETATM    9  C9  UNL     1      24.948  -0.594  54.546  1.00  0.00     0.248 C 
HETATM   10  N4  UNL     1      26.121  -0.580  54.973  1.00  0.00    -0.256 NA
HETATM   11  C10 UNL     1      27.342  -0.009  54.585  1.00  0.00     0.325 C 
HETATM   12  O1  UNL     1      27.285   1.426  54.322  1.00  0.00    -0.330 OA
HETATM   13  C11 UNL     1      26.346   1.788  53.316  1.00  0.00     0.071 A 
HETATM   14  C12 UNL     1      25.455   2.651  53.875  1.00  0.00     0.037 A 
HETATM   15  C13 UNL     1      24.447   3.071  53.043  1.00  0.00     0.014 A 
HETATM   16  C14 UNL     1      24.717   2.427  51.877  1.00  0.00    -0.028 A 
HETATM   17  C15 UNL     1      25.630   1.563  51.341  1.00  0.00     0.014 A 
HETATM   18  C16 UNL     1      26.651   1.131  52.158  1.00  0.00     0.037 A 
HETATM   19  H9  UNL     1      22.126  -0.163  51.288  1.00  0.00     0.178 HD
HETATM   20  H10 UNL     1      21.007  -0.405  53.766  1.00  0.00     0.177 HD
ENDROOT
BRANCH   1  21
HETATM   21  C3  UNL     1      23.033   2.894  48.485  1.00  0.00    -0.004 C 
HETATM   22  C2  UNL     1      22.608   3.996  47.900  1.00  0.00    -0.031 C 
HETATM   23  C1  UNL     1      23.038   5.369  48.269  1.00  0.00     0.036 C 
ENDBRANCH   1  21
TORSDOF 1
ENDMDL
MODEL 2
REMARK VINA RESULT:      -7.9      2.268      5.308
REMARK  1 active torsions:
REMARK  status: ('A' for Active; 'I' for Inactive)
REMARK    1  A    between atoms: C3_3  and  C4_4 
REMARK       I    between atoms: C7_8  and  N2_9 
ROOT
HETATM    1  C4  UNL     1      26.707   1.184  53.959  1.00  0.00     0.009 C 
HETATM    2  C5  UNL     1      25.552   0.952  53.322  1.00  0.00    -0.030 C 
HETATM    3  C6  UNL     1      24.718  -0.273  53.387  1.00  0.00     0.177 C 
HETATM    4  N1  UNL     1      23.352  -0.094  53.803  1.00  0.00    -0.220 N 
HETATM    5  C7  UNL     1      22.104   0.436  53.280  1.00  0.00     0.697 C 
HETATM    6  N2  UNL     1      21.061  -0.563  53.201  1.00  0.00    -0.229 N 
HETATM    7  C8  UNL     1      19.612  -0.337  53.143  1.00  0.00     0.165 C 
HETATM    8  N3  UNL     1      21.810   1.535  52.909  1.00  0.00    -0.059 NA
HETATM    9  C9  UNL     1      20.860   2.330  52.410  1.00  0.00     0.248 C 
HETATM   10  N4  UNL     1      20.647   3.486  51.988  1.00  0.00    -0.256 NA
HETATM   11  C10 UNL     1      21.391   4.662  51.813  1.00  0.00     0.325 C 
HETATM   12  O1  UNL     1      22.640   4.486  51.078  1.00  0.00    -0.330 OA
HETATM   13  C11 UNL     1      23.528   3.546  51.673  1.00  0.00     0.071 A 
HETATM   14  C12 UNL     1      23.766   2.568  50.756  1.00  0.00     0.037 A 
HETATM   15  C13 UNL     1      24.579   1.549  51.187  1.00  0.00     0.014 A 
HETATM   16  C14 UNL     1      24.874   1.905  52.465  1.00  0.00    -0.028 A 
HETATM   17  C15 UNL     1      24.621   2.905  53.363  1.00  0.00     0.014 A 
HETATM   18  C16 UNL     1      23.809   3.937  52.951  1.00  0.00     0.037 A 
HETATM   19  H9  UNL     1      23.186  -0.432  54.800  1.00  0.00     0.178 HD
HETATM   20  H10 UNL     1      21.322  -1.590  53.178  1.00  0.00     0.177 HD
ENDROOT
BRANCH   1  21
HETATM   21  C3  UNL     1      27.373   0.276  54.846  1.00  0.00    -0.004 C 
HETATM   22  C2  UNL     1      28.634  -0.076  54.703  1.00  0.00    -0.031 C 
HETATM   23  C1  UNL     1      29.531   0.411  53.623  1.00  0.00     0.036 C 
ENDBRANCH   1  21
TORSDOF 1
ENDMDL
MODEL 3
REMARK VINA RESULT:      -7.8      3.282      6.361
REMARK  1 active torsions:
REMARK  status: ('A' for Active; 'I' for Inactive)
REMARK    1  A    between atoms: C3_3  and  C4_4 
REMARK       I    between atoms: C7_8  and  N2_9 
ROOT
HETATM    1  C4  UNL     1      26.272   0.131  52.789  1.00  0.00     0.009 C 
HETATM    2  C5  UNL     1      26.065   1.420  52.490  1.00  0.00    -0.030 C 
HETATM    3  C6  UNL     1      27.069   2.410  52.027  1.00  0.00     0.177 C 
HETATM    4  N1  UNL     1      26.792   3.061  50.775  1.00  0.00    -0.220 N 
HETATM    5  C7  UNL     1      25.902   4.074  50.235  1.00  0.00     0.697 C 
HETATM    6  N2  UNL     1      26.610   5.219  49.706  1.00  0.00    -0.229 N 
HETATM    7  C8  UNL     1      26.118   6.201  48.732  1.00  0.00     0.165 C 
HETATM    8  N3  UNL     1      24.708   4.115  50.164  1.00  0.00    -0.059 NA
HETATM    9  C9  UNL     1      23.634   4.808  49.778  1.00  0.00     0.248 C 
HETATM   10  N4  UNL     1      22.385   4.803  49.792  1.00  0.00    -0.256 NA
HETATM   11  C10 UNL     1      21.373   3.961  50.279  1.00  0.00     0.325 C 
HETATM   12  O1  UNL     1      21.519   3.585  51.682  1.00  0.00    -0.330 OA
HETATM   13  C11 UNL     1      22.748   2.931  51.975  1.00  0.00     0.071 A 
HETATM   14  C12 UNL     1      23.392   3.669  52.921  1.00  0.00     0.037 A 
HETATM   15  C13 UNL     1      24.626   3.194  53.292  1.00  0.00     0.014 A 
HETATM   16  C14 UNL     1      24.775   2.081  52.527  1.00  0.00    -0.028 A 
HETATM   17  C15 UNL     1      24.102   1.357  51.583  1.00  0.00     0.014 A 
HETATM   18  C16 UNL     1      22.862   1.814  51.197  1.00  0.00     0.037 A 
HETATM   19  H9  UNL     1      27.407   2.693  49.985  1.00  0.00     0.178 HD
HETATM   20  H10 UNL     1      27.601   5.415  50.028  1.00  0.00     0.177 HD
ENDROOT
BRANCH   1  21
HETATM   21  C3  UNL     1      27.528  -0.555  52.717  1.00  0.00    -0.004 C 
HETATM   22  C2  UNL     1      28.427  -0.515  53.678  1.00  0.00    -0.031 C 
HETATM   23  C1  UNL     1      28.270   0.232  54.953  1.00  0.00     0.036 C 
ENDBRANCH   1  21
TORSDOF 1
ENDMDL
MODEL 4
REMARK VINA RESULT:      -7.4      3.204      6.451
REMARK  1 active torsions:
REMARK  status: ('A' for Active; 'I' for Inactive)
REMARK    1  A    between atoms: C3_3  and  C4_4 
REMARK       I    between atoms: C7_8  and  N2_9 
ROOT
HETATM    1  C4  UNL     1      23.920   0.442  53.213  1.00  0.00     0.009 C 
HETATM    2  C5  UNL     1      23.848   1.681  52.709  1.00  0.00    -0.030 C 
HETATM    3  C6  UNL     1      24.841   2.773  52.857  1.00  0.00     0.177 C 
HETATM    4  N1  UNL     1      25.361   3.333  51.639  1.00  0.00    -0.220 N 
HETATM    5  C7  UNL     1      24.930   4.201  50.556  1.00  0.00     0.697 C 
HETATM    6  N2  UNL     1      25.723   5.406  50.453  1.00  0.00    -0.229 N 
HETATM    7  C8  UNL     1      25.876   6.276  49.281  1.00  0.00     0.165 C 
HETATM    8  N3  UNL     1      24.044   4.084  49.759  1.00  0.00    -0.059 NA
HETATM    9  C9  UNL     1      23.399   4.616  48.718  1.00  0.00     0.248 C 
HETATM   10  N4  UNL     1      22.422   4.449  47.959  1.00  0.00    -0.256 NA
HETATM   11  C10 UNL     1      21.397   3.503  47.807  1.00  0.00     0.325 C 
HETATM   12  O1  UNL     1      20.661   3.205  49.031  1.00  0.00    -0.330 OA
HETATM   13  C11 UNL     1      21.481   2.727  50.092  1.00  0.00     0.071 A 
HETATM   14  C12 UNL     1      21.332   3.579  51.143  1.00  0.00     0.037 A 
HETATM   15  C13 UNL     1      22.094   3.284  52.247  1.00  0.00     0.014 A 
HETATM   16  C14 UNL     1      22.773   2.169  51.867  1.00  0.00    -0.028 A 
HETATM   17  C15 UNL     1      22.898   1.328  50.797  1.00  0.00     0.014 A 
HETATM   18  C16 UNL     1      22.142   1.605  49.681  1.00  0.00     0.037 A 
HETATM   19  H9  UNL     1      26.360   3.017  51.444  1.00  0.00     0.178 HD
HETATM   20  H10 UNL     1      26.275   5.741  51.294  1.00  0.00     0.177 HD
ENDROOT
BRANCH   1  21
HETATM   21  C3  UNL     1      24.992  -0.078  54.009  1.00  0.00    -0.004 C 
HETATM   22  C2  UNL     1      26.132  -0.497  53.497  1.00  0.00    -0.031 C 
HETATM   23  C1  UNL     1      26.463  -0.487  52.049  1.00  0.00     0.036 C 
ENDBRANCH   1  21
TORSDOF 1
ENDMDL
MODEL 5
REMARK VINA RESULT:      -7.0      3.484      6.439
REMARK  1 active torsions:
REMARK  status: ('A' for Active; 'I' for Inactive)
REMARK    1  A    between atoms: C3_3  and  C4_4 
REMARK       I    between atoms: C7_8  and  N2_9 
ROOT
HETATM    1  C4  UNL     1      24.863   0.640  52.404  1.00  0.00     0.009 C 
HETATM    2  C5  UNL     1      23.938   1.606  52.469  1.00  0.00    -0.030 C 
HETATM    3  C6  UNL     1      24.136   3.018  52.878  1.00  0.00     0.177 C 
HETATM    4  N1  UNL     1      23.742   4.020  51.925  1.00  0.00    -0.220 N 
HETATM    5  C7  UNL     1      22.527   4.603  51.380  1.00  0.00     0.697 C 
HETATM    6  N2  UNL     1      22.418   6.021  51.644  1.00  0.00    -0.229 N 
HETATM    7  C8  UNL     1      21.600   7.003  50.922  1.00  0.00     0.165 C 
HETATM    8  N3  UNL     1      21.624   4.110  50.769  1.00  0.00    -0.059 NA
HETATM    9  C9  UNL     1      20.449   4.300  50.162  1.00  0.00     0.248 C 
HETATM   10  N4  UNL     1      19.520   3.703  49.580  1.00  0.00    -0.256 NA
HETATM   11  C10 UNL     1      19.216   2.378  49.233  1.00  0.00     0.325 C 
HETATM   12  O1  UNL     1      19.309   1.426  50.336  1.00  0.00    -0.330 OA
HETATM   13  C11 UNL     1      20.591   1.386  50.952  1.00  0.00     0.071 A 
HETATM   14  C12 UNL     1      20.425   1.692  52.268  1.00  0.00     0.037 A 
HETATM   15  C13 UNL     1      21.581   1.739  53.007  1.00  0.00     0.014 A 
HETATM   16  C14 UNL     1      22.546   1.443  52.097  1.00  0.00    -0.028 A 
HETATM   17  C15 UNL     1      22.681   1.132  50.773  1.00  0.00     0.014 A 
HETATM   18  C16 UNL     1      21.534   1.079  50.013  1.00  0.00     0.037 A 
HETATM   19  H9  UNL     1      24.580   4.478  51.450  1.00  0.00     0.178 HD
HETATM   20  H10 UNL     1      22.972   6.448  52.441  1.00  0.00     0.177 HD
ENDROOT
BRANCH   1  21
HETATM   21  C3  UNL     1      26.253   0.788  52.722  1.00  0.00    -0.004 C 
HETATM   22  C2  UNL     1      27.092  -0.226  52.771  1.00  0.00    -0.031 C 
HETATM   23  C1  UNL     1      26.726  -1.641  52.504  1.00  0.00     0.036 C 
ENDBRANCH   1  21
TORSDOF 1
ENDMDL
MODEL 6
REMARK VINA RESULT:      -7.0      8.613     10.489
REMARK  1 active torsions:
REMARK  status: ('A' for Active; 'I' for Inactive)
REMARK    1  A    between atoms: C3_3  and  C4_4 
REMARK       I    between atoms: C7_8  and  N2_9 
ROOT
HETATM    1  C4  UNL     1      27.146   5.758  48.539  1.00  0.00     0.009 C 
HETATM    2  C5  UNL     1      27.683   6.939  48.207  1.00  0.00    -0.030 C 
HETATM    3  C6  UNL     1      27.312   8.276  48.730  1.00  0.00     0.177 C 
HETATM    4  N1  UNL     1      28.369   9.041  49.334  1.00  0.00    -0.220 N 
HETATM    5  C7  UNL     1      29.548   9.793  48.937  1.00  0.00     0.697 C 
HETATM    6  N2  UNL     1      29.474  11.190  49.306  1.00  0.00    -0.229 N 
HETATM    7  C8  UNL     1      30.588  12.131  49.463  1.00  0.00     0.165 C 
HETATM    8  N3  UNL     1      30.543   9.451  48.365  1.00  0.00    -0.059 NA
HETATM    9  C9  UNL     1      31.727   9.815  47.868  1.00  0.00     0.248 C 
HETATM   10  N4  UNL     1      32.708   9.396  47.219  1.00  0.00    -0.256 NA
HETATM   11  C10 UNL     1      33.094   8.187  46.620  1.00  0.00     0.325 C 
HETATM   12  O1  UNL     1      32.093   7.602  45.733  1.00  0.00    -0.330 OA
HETATM   13  C11 UNL     1      30.846   7.343  46.368  1.00  0.00     0.071 A 
HETATM   14  C12 UNL     1      29.889   8.042  45.697  1.00  0.00     0.037 A 
HETATM   15  C13 UNL     1      28.620   7.936  46.210  1.00  0.00     0.014 A 
HETATM   16  C14 UNL     1      28.785   7.115  47.281  1.00  0.00    -0.028 A 
HETATM   17  C15 UNL     1      29.765   6.419  47.931  1.00  0.00     0.014 A 
HETATM   18  C16 UNL     1      31.045   6.511  47.432  1.00  0.00     0.037 A 
HETATM   19  H9  UNL     1      28.293   9.067  50.398  1.00  0.00     0.178 HD
HETATM   20  H10 UNL     1      28.528  11.631  49.492  1.00  0.00     0.177 HD
ENDROOT
BRANCH   1  21
HETATM   21  C3  UNL     1      26.089   5.553  49.485  1.00  0.00    -0.004 C 
HETATM   22  C2  UNL     1      25.804   4.376  50.003  1.00  0.00    -0.031 C 
HETATM   23  C1  UNL     1      26.526   3.117  49.690  1.00  0.00     0.036 C 
ENDBRANCH   1  21
TORSDOF 1
ENDMDL
MODEL 7
REMARK VINA RESULT:      -6.9      3.287      6.032
REMARK  1 active torsions:
REMARK  status: ('A' for Active; 'I' for Inactive)
REMARK    1  A    between atoms: C3_3  and  C4_4 
REMARK       I    between atoms: C7_8  and  N2_9 
ROOT
HETATM    1  C4  UNL     1      22.570  -0.042  52.952  1.00  0.00     0.009 C 
HETATM    2  C5  UNL     1      22.189   0.829  52.009  1.00  0.00    -0.030 C 
HETATM    3  C6  UNL     1      20.867   0.913  51.342  1.00  0.00     0.177 C 
HETATM    4  N1  UNL     1      20.183   2.174  51.436  1.00  0.00    -0.220 N 
HETATM    5  C7  UNL     1      20.272   3.517  50.889  1.00  0.00     0.697 C 
HETATM    6  N2  UNL     1      19.095   3.897  50.138  1.00  0.00    -0.229 N 
HETATM    7  C8  UNL     1      18.641   5.256  49.819  1.00  0.00     0.165 C 
HETATM    8  N3  UNL     1      21.142   4.337  50.955  1.00  0.00    -0.059 NA
HETATM    9  C9  UNL     1      21.553   5.562  50.615  1.00  0.00     0.248 C 
HETATM   10  N4  UNL     1      22.526   6.341  50.680  1.00  0.00    -0.256 NA
HETATM   11  C10 UNL     1      23.825   6.310  51.209  1.00  0.00     0.325 C 
HETATM   12  O1  UNL     1      24.616   5.150  50.808  1.00  0.00    -0.330 OA
HETATM   13  C11 UNL     1      24.022   3.904  51.154  1.00  0.00     0.071 A 
HETATM   14  C12 UNL     1      23.849   3.197  50.004  1.00  0.00     0.037 A 
HETATM   15  C13 UNL     1      23.243   1.974  50.155  1.00  0.00     0.014 A 
HETATM   16  C14 UNL     1      23.015   1.903  51.493  1.00  0.00    -0.028 A 
HETATM   17  C15 UNL     1      23.208   2.633  52.632  1.00  0.00     0.014 A 
HETATM   18  C16 UNL     1      23.815   3.862  52.504  1.00  0.00     0.037 A 
HETATM   19  H9  UNL     1      19.366   2.140  52.122  1.00  0.00     0.178 HD
HETATM   20  H10 UNL     1      18.457   3.144  49.752  1.00  0.00     0.177 HD
ENDROOT
BRANCH   1  21
HETATM   21  C3  UNL     1      21.757  -1.082  53.511  1.00  0.00    -0.004 C 
HETATM   22  C2  UNL     1      22.023  -1.664  54.663  1.00  0.00    -0.031 C 
HETATM   23  C1  UNL     1      23.180  -1.329  55.532  1.00  0.00     0.036 C 
ENDBRANCH   1  21
TORSDOF 1
ENDMDL
MODEL 8
REMARK VINA RESULT:      -6.9      2.816      4.500
REMARK  1 active torsions:
REMARK  status: ('A' for Active; 'I' for Inactive)
REMARK    1  A    between atoms: C3_3  and  C4_4 
REMARK       I    between atoms: C7_8  and  N2_9 
ROOT
HETATM    1  C4  UNL     1      21.343   5.720  50.872  1.00  0.00     0.009 C 
HETATM    2  C5  UNL     1      22.229   4.722  50.978  1.00  0.00    -0.030 C 
HETATM    3  C6  UNL     1      23.698   4.835  51.149  1.00  0.00     0.177 C 
HETATM    4  N1  UNL     1      24.259   4.184  52.301  1.00  0.00    -0.220 N 
HETATM    5  C7  UNL     1      24.553   2.840  52.771  1.00  0.00     0.697 C 
HETATM    6  N2  UNL     1      25.963   2.628  53.016  1.00  0.00    -0.229 N 
HETATM    7  C8  UNL     1      26.576   1.601  53.868  1.00  0.00     0.165 C 
HETATM    8  N3  UNL     1      23.836   1.905  52.977  1.00  0.00    -0.059 NA
HETATM    9  C9  UNL     1      23.744   0.632  53.371  1.00  0.00     0.248 C 
HETATM   10  N4  UNL     1      22.940  -0.313  53.509  1.00  0.00    -0.256 NA
HETATM   11  C10 UNL     1      21.570  -0.529  53.292  1.00  0.00     0.325 C 
HETATM   12  O1  UNL     1      21.100  -0.153  51.963  1.00  0.00    -0.330 OA
HETATM   13  C11 UNL     1      21.338   1.211  51.635  1.00  0.00     0.071 A 
HETATM   14  C12 UNL     1      22.105   1.236  50.510  1.00  0.00     0.037 A 
HETATM   15  C13 UNL     1      22.465   2.488  50.076  1.00  0.00     0.014 A 
HETATM   16  C14 UNL     1      21.888   3.312  50.990  1.00  0.00    -0.028 A 
HETATM   17  C15 UNL     1      21.113   3.256  52.114  1.00  0.00     0.014 A 
HETATM   18  C16 UNL     1      20.739   2.011  52.566  1.00  0.00     0.037 A 
HETATM   19  H9  UNL     1      24.539   4.878  53.061  1.00  0.00     0.178 HD
HETATM   20  H10 UNL     1      26.676   3.259  52.548  1.00  0.00     0.177 HD
ENDROOT
BRANCH   1  21
HETATM   21  C3  UNL     1      21.649   7.120  50.904  1.00  0.00    -0.004 C 
HETATM   22  C2  UNL     1      20.973   8.021  50.221  1.00  0.00    -0.031 C 
HETATM   23  C1  UNL     1      19.816   7.721  49.339  1.00  0.00     0.036 C 
ENDBRANCH   1  21
TORSDOF 1
ENDMDL
MODEL 9
REMARK VINA RESULT:      -6.9      3.268      5.989
REMARK  1 active torsions:
REMARK  status: ('A' for Active; 'I' for Inactive)
REMARK    1  A    between atoms: C3_3  and  C4_4 
REMARK       I    between atoms: C7_8  and  N2_9 
ROOT
HETATM    1  C4  UNL     1      22.013   0.596  52.716  1.00  0.00     0.009 C 
HETATM    2  C5  UNL     1      21.928   1.648  51.892  1.00  0.00    -0.030 C 
HETATM    3  C6  UNL     1      20.828   2.640  51.807  1.00  0.00     0.177 C 
HETATM    4  N1  UNL     1      21.196   4.019  51.987  1.00  0.00    -0.220 N 
HETATM    5  C7  UNL     1      21.880   5.077  51.264  1.00  0.00     0.697 C 
HETATM    6  N2  UNL     1      21.030   6.219  51.003  1.00  0.00    -0.229 N 
HETATM    7  C8  UNL     1      21.449   7.593  50.702  1.00  0.00     0.165 C 
HETATM    8  N3  UNL     1      23.003   5.153  50.856  1.00  0.00    -0.059 NA
HETATM    9  C9  UNL     1      23.910   5.889  50.208  1.00  0.00     0.248 C 
HETATM   10  N4  UNL     1      25.077   5.869  49.765  1.00  0.00    -0.256 NA
HETATM   11  C10 UNL     1      26.139   4.954  49.726  1.00  0.00     0.325 C 
HETATM   12  O1  UNL     1      25.785   3.635  49.211  1.00  0.00    -0.330 OA
HETATM   13  C11 UNL     1      24.744   2.995  49.941  1.00  0.00     0.071 A 
HETATM   14  C12 UNL     1      23.728   2.741  49.072  1.00  0.00     0.037 A 
HETATM   15  C13 UNL     1      22.616   2.158  49.627  1.00  0.00     0.014 A 
HETATM   16  C14 UNL     1      22.950   2.037  50.939  1.00  0.00    -0.028 A 
HETATM   17  C15 UNL     1      23.989   2.299  51.787  1.00  0.00     0.014 A 
HETATM   18  C16 UNL     1      25.114   2.883  51.251  1.00  0.00     0.037 A 
HETATM   19  H9  UNL     1      20.899   4.395  52.940  1.00  0.00     0.178 HD
HETATM   20  H10 UNL     1      19.977   6.099  51.018  1.00  0.00     0.177 HD
ENDROOT
BRANCH   1  21
HETATM   21  C3  UNL     1      21.038   0.219  53.697  1.00  0.00    -0.004 C 
HETATM   22  C2  UNL     1      21.314  -0.557  54.725  1.00  0.00    -0.031 C 
HETATM   23  C1  UNL     1      22.650  -1.139  55.011  1.00  0.00     0.036 C 
ENDBRANCH   1  21
TORSDOF 1
ENDMDL
