MODEL 1
REMARK VINA RESULT:      -8.2      0.000      0.000
REMARK  5 active torsions:
REMARK  status: ('A' for Active; 'I' for Inactive)
REMARK    1  A    between atoms: C2_2  and  O1_3 
REMARK    2  A    between atoms: O1_3  and  C3_4 
REMARK    3  A    between atoms: C3_4  and  N1_6 
REMARK    4  A    between atoms: N1_6  and  C5_7 
REMARK    5  A    between atoms: N4_16  and  C12_17 
ROOT
HETATM    1  C5  UNL     1      26.045  -0.454  52.897  1.00  0.00     0.015 C 
HETATM    2  C6  UNL     1      25.190  -0.999  53.784  1.00  0.00     0.020 C 
HETATM    3  C7  UNL     1      23.788  -0.569  54.175  1.00  0.00     0.177 C 
HETATM    4  N2  UNL     1      23.456   0.552  53.407  1.00  0.00    -0.296 NA
HETATM    5  C8  UNL     1      22.478   1.277  53.175  1.00  0.00     0.134 C 
HETATM    6  C9  UNL     1      22.583   2.419  52.234  1.00  0.00     0.077 C 
HETATM    7  C10 UNL     1      21.282   3.058  52.171  1.00  0.00     0.102 C 
HETATM    8  N3  UNL     1      20.227   3.588  52.101  1.00  0.00    -0.191 NA
HETATM    9  C11 UNL     1      23.621   2.817  51.562  1.00  0.00     0.120 C 
HETATM   10  N4  UNL     1      24.930   2.893  51.053  1.00  0.00    -0.334 N 
HETATM   11  C18 UNL     1      25.883   1.825  51.301  1.00  0.00     0.081 C 
HETATM   12  C19 UNL     1      26.094   0.721  51.998  1.00  0.00     0.089 C 
ENDROOT
BRANCH  10  13
HETATM   13  C12 UNL     1      25.537   3.910  50.307  1.00  0.00     0.039 A 
HETATM   14  C13 UNL     1      26.636   3.695  49.514  1.00  0.00     0.030 A 
HETATM   15  C14 UNL     1      27.146   4.785  48.826  1.00  0.00     0.004 A 
HETATM   16  C15 UNL     1      26.550   6.018  48.952  1.00  0.00     0.019 A 
HETATM   17  C16 UNL     1      25.447   6.264  49.739  1.00  0.00     0.013 A 
HETATM   18 BR1  UNL     1      24.714   8.023  49.820  1.00  0.00    -0.051 Br
HETATM   19  C17 UNL     1      24.947   5.155  50.426  1.00  0.00     0.049 A 
ENDBRANCH  10  13
BRANCH   1  20
HETATM   20  N1  UNL     1      27.343  -0.842  52.526  1.00  0.00    -0.366 N 
HETATM   21  H8  UNL     1      27.404  -1.523  51.708  1.00  0.00     0.162 HD
BRANCH  20  22
HETATM   22  C3  UNL     1      28.585  -0.394  53.155  1.00  0.00     0.221 C 
HETATM   23  C4  UNL     1      29.473  -1.564  53.413  1.00  0.00     0.063 C 
BRANCH  22  24
HETATM   24  O1  UNL     1      28.387   0.322  54.330  1.00  0.00    -0.339 OA
BRANCH  24  25
HETATM   25  C2  UNL     1      29.059   1.502  54.659  1.00  0.00     0.127 C 
HETATM   26  C1  UNL     1      28.780   2.399  53.694  1.00  0.00     0.037 C 
ENDBRANCH  24  25
ENDBRANCH  22  24
ENDBRANCH  20  22
ENDBRANCH   1  20
TORSDOF 5
ENDMDL
MODEL 2
REMARK VINA RESULT:      -8.2      1.873      2.547
REMARK  5 active torsions:
REMARK  status: ('A' for Active; 'I' for Inactive)
REMARK    1  A    between atoms: C2_2  and  O1_3 
REMARK    2  A    between atoms: O1_3  and  C3_4 
REMARK    3  A    between atoms: C3_4  and  N1_6 
REMARK    4  A    between atoms: N1_6  and  C5_7 
REMARK    5  A    between atoms: N4_16  and  C12_17 
ROOT
HETATM    1  C5  UNL     1      26.316   0.871  52.717  1.00  0.00     0.015 C 
HETATM    2  C6  UNL     1      25.341   0.120  53.266  1.00  0.00     0.020 C 
HETATM    3  C7  UNL     1      23.858   0.068  52.949  1.00  0.00     0.177 C 
HETATM    4  N2  UNL     1      23.615   0.960  51.900  1.00  0.00    -0.296 NA
HETATM    5  C8  UNL     1      22.690   1.293  51.142  1.00  0.00     0.134 C 
HETATM    6  C9  UNL     1      22.890   2.343  50.114  1.00  0.00     0.077 C 
HETATM    7  C10 UNL     1      21.640   2.495  49.392  1.00  0.00     0.102 C 
HETATM    8  N3  UNL     1      20.632   2.628  48.788  1.00  0.00    -0.191 NA
HETATM    9  C11 UNL     1      23.963   3.031  49.861  1.00  0.00     0.120 C 
HETATM   10  N4  UNL     1      25.280   3.518  49.930  1.00  0.00    -0.334 N 
HETATM   11  C18 UNL     1      26.270   2.857  50.762  1.00  0.00     0.081 C 
HETATM   12  C19 UNL     1      26.439   1.936  51.695  1.00  0.00     0.089 C 
ENDROOT
BRANCH  10  13
HETATM   13  C12 UNL     1      25.850   4.635  49.307  1.00  0.00     0.039 A 
HETATM   14  C13 UNL     1      25.122   5.747  48.965  1.00  0.00     0.030 A 
HETATM   15  C14 UNL     1      25.803   6.786  48.350  1.00  0.00     0.004 A 
HETATM   16  C15 UNL     1      27.152   6.678  48.109  1.00  0.00     0.019 A 
HETATM   17  C16 UNL     1      27.908   5.575  48.440  1.00  0.00     0.013 A 
HETATM   18 BR1  UNL     1      29.775   5.556  48.055  1.00  0.00    -0.051 Br
HETATM   19  C17 UNL     1      27.207   4.537  49.058  1.00  0.00     0.049 A 
ENDBRANCH  10  13
BRANCH   1  20
HETATM   20  N1  UNL     1      27.691   0.927  53.000  1.00  0.00    -0.366 N 
HETATM   21  H8  UNL     1      28.322   1.158  52.172  1.00  0.00     0.162 HD
BRANCH  20  22
HETATM   22  C3  UNL     1      28.307   0.705  54.308  1.00  0.00     0.221 C 
HETATM   23  C4  UNL     1      29.372   1.722  54.545  1.00  0.00     0.063 C 
BRANCH  22  24
HETATM   24  O1  UNL     1      28.827  -0.575  54.468  1.00  0.00    -0.339 OA
BRANCH  24  25
HETATM   25  C2  UNL     1      29.687  -1.197  53.560  1.00  0.00     0.127 C 
HETATM   26  C1  UNL     1      29.102  -2.352  53.188  1.00  0.00     0.037 C 
ENDBRANCH  24  25
ENDBRANCH  22  24
ENDBRANCH  20  22
ENDBRANCH   1  20
TORSDOF 5
ENDMDL
MODEL 3
REMARK VINA RESULT:      -8.2      3.267      6.071
REMARK  5 active torsions:
REMARK  status: ('A' for Active; 'I' for Inactive)
REMARK    1  A    between atoms: C2_2  and  O1_3 
REMARK    2  A    between atoms: O1_3  and  C3_4 
REMARK    3  A    between atoms: C3_4  and  N1_6 
REMARK    4  A    between atoms: N1_6  and  C5_7 
REMARK    5  A    between atoms: N4_16  and  C12_17 
ROOT
HETATM    1  C5  UNL     1      23.089   2.541  49.723  1.00  0.00     0.015 C 
HETATM    2  C6  UNL     1      21.846   2.048  49.559  1.00  0.00     0.020 C 
HETATM    3  C7  UNL     1      21.091   1.019  50.380  1.00  0.00     0.177 C 
HETATM    4  N2  UNL     1      21.916   0.632  51.441  1.00  0.00    -0.296 NA
HETATM    5  C8  UNL     1      21.862  -0.053  52.474  1.00  0.00     0.134 C 
HETATM    6  C9  UNL     1      23.045  -0.192  53.358  1.00  0.00     0.077 C 
HETATM    7  C10 UNL     1      22.663  -1.037  54.474  1.00  0.00     0.102 C 
HETATM    8  N3  UNL     1      22.369  -1.719  55.394  1.00  0.00    -0.191 NA
HETATM    9  C11 UNL     1      24.227   0.326  53.210  1.00  0.00     0.120 C 
HETATM   10  N4  UNL     1      25.305   1.054  52.677  1.00  0.00    -0.334 N 
HETATM   11  C18 UNL     1      25.108   1.953  51.553  1.00  0.00     0.081 C 
HETATM   12  C19 UNL     1      24.243   2.333  50.627  1.00  0.00     0.089 C 
ENDROOT
BRANCH  10  13
HETATM   13  C12 UNL     1      26.654   1.048  53.050  1.00  0.00     0.039 A 
HETATM   14  C13 UNL     1      27.330   2.186  53.414  1.00  0.00     0.030 A 
HETATM   15  C14 UNL     1      28.665   2.048  53.761  1.00  0.00     0.004 A 
HETATM   16  C15 UNL     1      29.259   0.808  53.735  1.00  0.00     0.019 A 
HETATM   17  C16 UNL     1      28.607  -0.350  53.375  1.00  0.00     0.013 A 
HETATM   18 BR1  UNL     1      29.547  -2.010  53.387  1.00  0.00    -0.051 Br
HETATM   19  C17 UNL     1      27.263  -0.194  53.027  1.00  0.00     0.049 A 
ENDBRANCH  10  13
BRANCH   1  20
HETATM   20  N1  UNL     1      23.798   3.493  48.972  1.00  0.00    -0.366 N 
HETATM   21  H8  UNL     1      23.963   3.243  47.949  1.00  0.00     0.162 HD
BRANCH  20  22
HETATM   22  C3  UNL     1      24.309   4.770  49.470  1.00  0.00     0.221 C 
HETATM   23  C4  UNL     1      23.320   5.852  49.199  1.00  0.00     0.063 C 
BRANCH  22  24
HETATM   24  O1  UNL     1      25.549   5.116  48.944  1.00  0.00    -0.339 OA
BRANCH  24  25
HETATM   25  C2  UNL     1      26.742   4.447  49.227  1.00  0.00     0.127 C 
HETATM   26  C1  UNL     1      27.724   5.090  48.567  1.00  0.00     0.037 C 
ENDBRANCH  24  25
ENDBRANCH  22  24
ENDBRANCH  20  22
ENDBRANCH   1  20
TORSDOF 5
ENDMDL
MODEL 4
REMARK VINA RESULT:      -8.0      1.778      2.097
REMARK  5 active torsions:
REMARK  status: ('A' for Active; 'I' for Inactive)
REMARK    1  A    between atoms: C2_2  and  O1_3 
REMARK    2  A    between atoms: O1_3  and  C3_4 
REMARK    3  A    between atoms: C3_4  and  N1_6 
REMARK    4  A    between atoms: N1_6  and  C5_7 
REMARK    5  A    between atoms: N4_16  and  C12_17 
ROOT
HETATM    1  C5  UNL     1      24.502   0.421  53.170  1.00  0.00     0.015 C 
HETATM    2  C6  UNL     1      23.331  -0.168  53.483  1.00  0.00     0.020 C 
HETATM    3  C7  UNL     1      21.983  -0.081  52.794  1.00  0.00     0.177 C 
HETATM    4  N2  UNL     1      22.129   0.744  51.674  1.00  0.00    -0.296 NA
HETATM    5  C8  UNL     1      21.477   1.114  50.686  1.00  0.00     0.134 C 
HETATM    6  C9  UNL     1      22.064   2.047  49.693  1.00  0.00     0.077 C 
HETATM    7  C10 UNL     1      21.068   2.277  48.663  1.00  0.00     0.102 C 
HETATM    8  N3  UNL     1      20.271   2.471  47.812  1.00  0.00    -0.191 NA
HETATM    9  C11 UNL     1      23.245   2.588  49.694  1.00  0.00     0.120 C 
HETATM   10  N4  UNL     1      24.554   2.929  50.080  1.00  0.00    -0.334 N 
HETATM   11  C18 UNL     1      25.208   2.232  51.173  1.00  0.00     0.081 C 
HETATM   12  C19 UNL     1      25.016   1.378  52.164  1.00  0.00     0.089 C 
ENDROOT
BRANCH  10  13
HETATM   13  C12 UNL     1      25.401   3.920  49.571  1.00  0.00     0.039 A 
HETATM   14  C13 UNL     1      26.744   3.717  49.368  1.00  0.00     0.030 A 
HETATM   15  C14 UNL     1      27.476   4.779  48.861  1.00  0.00     0.004 A 
HETATM   16  C15 UNL     1      26.854   5.973  48.579  1.00  0.00     0.019 A 
HETATM   17  C16 UNL     1      25.510   6.205  48.772  1.00  0.00     0.013 A 
HETATM   18 BR1  UNL     1      24.771   7.907  48.333  1.00  0.00    -0.051 Br
HETATM   19  C17 UNL     1      24.787   5.125  49.284  1.00  0.00     0.049 A 
ENDBRANCH  10  13
BRANCH   1  20
HETATM   20  N1  UNL     1      25.756   0.347  53.799  1.00  0.00    -0.366 N 
HETATM   21  H8  UNL     1      25.832   0.847  54.737  1.00  0.00     0.162 HD
BRANCH  20  22
HETATM   22  C3  UNL     1      26.934  -0.350  53.282  1.00  0.00     0.221 C 
HETATM   23  C4  UNL     1      26.525  -1.635  52.647  1.00  0.00     0.063 C 
BRANCH  22  24
HETATM   24  O1  UNL     1      27.909  -0.584  54.246  1.00  0.00    -0.339 OA
BRANCH  24  25
HETATM   25  C2  UNL     1      29.177   0.003  54.246  1.00  0.00     0.127 C 
HETATM   26  C1  UNL     1      30.010  -0.851  53.621  1.00  0.00     0.037 C 
ENDBRANCH  24  25
ENDBRANCH  22  24
ENDBRANCH  20  22
ENDBRANCH   1  20
TORSDOF 5
ENDMDL
MODEL 5
REMARK VINA RESULT:      -8.0      1.672      2.336
REMARK  5 active torsions:
REMARK  status: ('A' for Active; 'I' for Inactive)
REMARK    1  A    between atoms: C2_2  and  O1_3 
REMARK    2  A    between atoms: O1_3  and  C3_4 
REMARK    3  A    between atoms: C3_4  and  N1_6 
REMARK    4  A    between atoms: N1_6  and  C5_7 
REMARK    5  A    between atoms: N4_16  and  C12_17 
ROOT
HETATM    1  C5  UNL     1      24.463  -0.180  53.880  1.00  0.00     0.015 C 
HETATM    2  C6  UNL     1      23.506  -0.889  54.512  1.00  0.00     0.020 C 
HETATM    3  C7  UNL     1      22.005  -0.675  54.555  1.00  0.00     0.177 C 
HETATM    4  N2  UNL     1      21.710   0.439  53.762  1.00  0.00    -0.296 NA
HETATM    5  C8  UNL     1      20.722   1.041  53.315  1.00  0.00     0.134 C 
HETATM    6  C9  UNL     1      20.886   2.244  52.462  1.00  0.00     0.077 C 
HETATM    7  C10 UNL     1      19.560   2.708  52.097  1.00  0.00     0.102 C 
HETATM    8  N3  UNL     1      18.488   3.096  51.784  1.00  0.00    -0.191 NA
HETATM    9  C11 UNL     1      21.987   2.818  52.081  1.00  0.00     0.120 C 
HETATM   10  N4  UNL     1      23.354   3.099  51.914  1.00  0.00    -0.334 N 
HETATM   11  C18 UNL     1      24.363   2.154  52.360  1.00  0.00     0.081 C 
HETATM   12  C19 UNL     1      24.557   1.046  53.055  1.00  0.00     0.089 C 
ENDROOT
BRANCH  10  13
HETATM   13  C12 UNL     1      23.970   4.233  51.371  1.00  0.00     0.039 A 
HETATM   14  C13 UNL     1      23.531   5.509  51.621  1.00  0.00     0.030 A 
HETATM   15  C14 UNL     1      24.225   6.548  51.022  1.00  0.00     0.004 A 
HETATM   16  C15 UNL     1      25.308   6.279  50.218  1.00  0.00     0.019 A 
HETATM   17  C16 UNL     1      25.772   5.010  49.949  1.00  0.00     0.013 A 
HETATM   18 BR1  UNL     1      27.291   4.776  48.821  1.00  0.00    -0.051 Br
HETATM   19  C17 UNL     1      25.060   3.975  50.560  1.00  0.00     0.049 A 
ENDBRANCH  10  13
BRANCH   1  20
HETATM   20  N1  UNL     1      25.854  -0.368  53.831  1.00  0.00    -0.366 N 
HETATM   21  H8  UNL     1      26.362  -0.298  54.766  1.00  0.00     0.162 HD
BRANCH  20  22
HETATM   22  C3  UNL     1      26.639  -0.651  52.630  1.00  0.00     0.221 C 
HETATM   23  C4  UNL     1      26.673  -2.121  52.382  1.00  0.00     0.063 C 
BRANCH  22  24
HETATM   24  O1  UNL     1      27.934  -0.147  52.680  1.00  0.00    -0.339 OA
BRANCH  24  25
HETATM   25  C2  UNL     1      28.700  -0.051  53.844  1.00  0.00     0.127 C 
HETATM   26  C1  UNL     1      29.816  -0.780  53.646  1.00  0.00     0.037 C 
ENDBRANCH  24  25
ENDBRANCH  22  24
ENDBRANCH  20  22
ENDBRANCH   1  20
TORSDOF 5
ENDMDL
MODEL 6
REMARK VINA RESULT:      -8.0      3.349      6.203
REMARK  5 active torsions:
REMARK  status: ('A' for Active; 'I' for Inactive)
REMARK    1  A    between atoms: C2_2  and  O1_3 
REMARK    2  A    between atoms: O1_3  and  C3_4 
REMARK    3  A    between atoms: C3_4  and  N1_6 
REMARK    4  A    between atoms: N1_6  and  C5_7 
REMARK    5  A    between atoms: N4_16  and  C12_17 
ROOT
HETATM    1  C5  UNL     1      21.293  -0.051  53.696  1.00  0.00     0.015 C 
HETATM    2  C6  UNL     1      21.412  -1.059  54.582  1.00  0.00     0.020 C 
HETATM    3  C7  UNL     1      22.655  -1.657  55.214  1.00  0.00     0.177 C 
HETATM    4  N2  UNL     1      23.760  -0.947  54.737  1.00  0.00    -0.296 NA
HETATM    5  C8  UNL     1      24.983  -0.864  54.933  1.00  0.00     0.134 C 
HETATM    6  C9  UNL     1      25.816   0.085  54.155  1.00  0.00     0.077 C 
HETATM    7  C10 UNL     1      27.184  -0.049  54.618  1.00  0.00     0.102 C 
HETATM    8  N3  UNL     1      28.304  -0.139  54.987  1.00  0.00    -0.191 NA
HETATM    9  C11 UNL     1      25.442   0.908  53.221  1.00  0.00     0.120 C 
HETATM   10  N4  UNL     1      24.634   1.610  52.309  1.00  0.00    -0.334 N 
HETATM   11  C18 UNL     1      23.187   1.507  52.371  1.00  0.00     0.081 C 
HETATM   12  C19 UNL     1      22.185   0.848  52.929  1.00  0.00     0.089 C 
ENDROOT
BRANCH  10  13
HETATM   13  C12 UNL     1      25.008   2.442  51.247  1.00  0.00     0.039 A 
HETATM   14  C13 UNL     1      26.318   2.680  50.914  1.00  0.00     0.030 A 
HETATM   15  C14 UNL     1      26.557   3.526  49.842  1.00  0.00     0.004 A 
HETATM   16  C15 UNL     1      25.503   4.085  49.158  1.00  0.00     0.019 A 
HETATM   17  C16 UNL     1      24.179   3.865  49.469  1.00  0.00     0.013 A 
HETATM   18 BR1  UNL     1      22.812   4.699  48.434  1.00  0.00    -0.051 Br
HETATM   19  C17 UNL     1      23.956   3.012  50.552  1.00  0.00     0.049 A 
ENDBRANCH  10  13
BRANCH   1  20
HETATM   20  N1  UNL     1      20.150   0.512  53.105  1.00  0.00    -0.366 N 
HETATM   21  H8  UNL     1      19.992   1.547  53.303  1.00  0.00     0.162 HD
BRANCH  20  22
HETATM   22  C3  UNL     1      19.188  -0.191  52.256  1.00  0.00     0.221 C 
HETATM   23  C4  UNL     1      19.067   0.505  50.943  1.00  0.00     0.063 C 
BRANCH  22  24
HETATM   24  O1  UNL     1      17.933  -0.333  52.837  1.00  0.00    -0.339 OA
BRANCH  24  25
HETATM   25  C2  UNL     1      17.252  -1.546  52.962  1.00  0.00     0.127 C 
HETATM   26  C1  UNL     1      18.072  -2.395  53.612  1.00  0.00     0.037 C 
ENDBRANCH  24  25
ENDBRANCH  22  24
ENDBRANCH  20  22
ENDBRANCH   1  20
TORSDOF 5
ENDMDL
MODEL 7
REMARK VINA RESULT:      -7.9      2.916      5.637
REMARK  5 active torsions:
REMARK  status: ('A' for Active; 'I' for Inactive)
REMARK    1  A    between atoms: C2_2  and  O1_3 
REMARK    2  A    between atoms: O1_3  and  C3_4 
REMARK    3  A    between atoms: C3_4  and  N1_6 
REMARK    4  A    between atoms: N1_6  and  C5_7 
REMARK    5  A    between atoms: N4_16  and  C12_17 
ROOT
HETATM    1  C5  UNL     1      26.291   2.307  51.358  1.00  0.00     0.015 C 
HETATM    2  C6  UNL     1      26.473   3.265  50.428  1.00  0.00     0.020 C 
HETATM    3  C7  UNL     1      25.454   4.134  49.714  1.00  0.00     0.177 C 
HETATM    4  N2  UNL     1      24.190   3.803  50.210  1.00  0.00    -0.296 NA
HETATM    5  C8  UNL     1      23.015   4.195  50.130  1.00  0.00     0.134 C 
HETATM    6  C9  UNL     1      21.931   3.507  50.874  1.00  0.00     0.077 C 
HETATM    7  C10 UNL     1      20.690   4.201  50.584  1.00  0.00     0.102 C 
HETATM    8  N3  UNL     1      19.670   4.757  50.365  1.00  0.00    -0.191 NA
HETATM    9  C11 UNL     1      22.020   2.472  51.655  1.00  0.00     0.120 C 
HETATM   10  N4  UNL     1      22.554   1.394  52.382  1.00  0.00    -0.334 N 
HETATM   11  C18 UNL     1      23.992   1.220  52.497  1.00  0.00     0.081 C 
HETATM   12  C19 UNL     1      25.160   1.643  52.045  1.00  0.00     0.089 C 
ENDROOT
BRANCH  10  13
HETATM   13  C12 UNL     1      21.893   0.358  53.052  1.00  0.00     0.039 A 
HETATM   14  C13 UNL     1      22.517  -0.453  53.967  1.00  0.00     0.030 A 
HETATM   15  C14 UNL     1      21.753  -1.446  54.560  1.00  0.00     0.004 A 
HETATM   16  C15 UNL     1      20.426  -1.585  54.227  1.00  0.00     0.019 A 
HETATM   17  C16 UNL     1      19.774  -0.787  53.314  1.00  0.00     0.013 A 
HETATM   18 BR1  UNL     1      17.926  -1.083  52.948  1.00  0.00    -0.051 Br
HETATM   19  C17 UNL     1      20.558   0.207  52.724  1.00  0.00     0.049 A 
ENDBRANCH  10  13
BRANCH   1  20
HETATM   20  N1  UNL     1      27.224   1.497  52.026  1.00  0.00    -0.366 N 
HETATM   21  H8  UNL     1      27.718   0.770  51.424  1.00  0.00     0.162 HD
BRANCH  20  22
HETATM   22  C3  UNL     1      27.566   1.576  53.447  1.00  0.00     0.221 C 
HETATM   23  C4  UNL     1      28.752   2.461  53.634  1.00  0.00     0.063 C 
BRANCH  22  24
HETATM   24  O1  UNL     1      27.801   0.337  54.032  1.00  0.00    -0.339 OA
BRANCH  24  25
HETATM   25  C2  UNL     1      29.065  -0.151  54.370  1.00  0.00     0.127 C 
HETATM   26  C1  UNL     1      29.371  -1.112  53.478  1.00  0.00     0.037 C 
ENDBRANCH  24  25
ENDBRANCH  22  24
ENDBRANCH  20  22
ENDBRANCH   1  20
TORSDOF 5
ENDMDL
MODEL 8
REMARK VINA RESULT:      -7.7      3.697      7.680
REMARK  5 active torsions:
REMARK  status: ('A' for Active; 'I' for Inactive)
REMARK    1  A    between atoms: C2_2  and  O1_3 
REMARK    2  A    between atoms: O1_3  and  C3_4 
REMARK    3  A    between atoms: C3_4  and  N1_6 
REMARK    4  A    between atoms: N1_6  and  C5_7 
REMARK    5  A    between atoms: N4_16  and  C12_17 
ROOT
HETATM    1  C5  UNL     1      23.836   3.422  49.519  1.00  0.00     0.015 C 
HETATM    2  C6  UNL     1      24.972   4.118  49.320  1.00  0.00     0.020 C 
HETATM    3  C7  UNL     1      26.321   3.995  50.002  1.00  0.00     0.177 C 
HETATM    4  N2  UNL     1      26.236   2.953  50.931  1.00  0.00    -0.296 NA
HETATM    5  C8  UNL     1      26.972   2.307  51.692  1.00  0.00     0.134 C 
HETATM    6  C9  UNL     1      26.424   1.224  52.544  1.00  0.00     0.077 C 
HETATM    7  C10 UNL     1      27.525   0.662  53.304  1.00  0.00     0.102 C 
HETATM    8  N3  UNL     1      28.411   0.187  53.927  1.00  0.00    -0.191 NA
HETATM    9  C11 UNL     1      25.195   0.812  52.634  1.00  0.00     0.120 C 
HETATM   10  N4  UNL     1      23.810   0.695  52.419  1.00  0.00    -0.334 N 
HETATM   11  C18 UNL     1      23.166   1.418  51.337  1.00  0.00     0.081 C 
HETATM   12  C19 UNL     1      23.345   2.355  50.421  1.00  0.00     0.089 C 
ENDROOT
BRANCH  10  13
HETATM   13  C12 UNL     1      22.857  -0.036  53.138  1.00  0.00     0.039 A 
HETATM   14  C13 UNL     1      23.178  -0.807  54.227  1.00  0.00     0.030 A 
HETATM   15  C14 UNL     1      22.143  -1.485  54.852  1.00  0.00     0.004 A 
HETATM   16  C15 UNL     1      20.857  -1.367  54.378  1.00  0.00     0.019 A 
HETATM   17  C16 UNL     1      20.505  -0.601  53.289  1.00  0.00     0.013 A 
HETATM   18 BR1  UNL     1      18.681  -0.519  52.739  1.00  0.00    -0.051 Br
HETATM   19  C17 UNL     1      21.560   0.074  52.670  1.00  0.00     0.049 A 
ENDBRANCH  10  13
BRANCH   1  20
HETATM   20  N1  UNL     1      22.582   3.526  48.894  1.00  0.00    -0.366 N 
HETATM   21  H8  UNL     1      21.914   4.241  49.317  1.00  0.00     0.162 HD
BRANCH  20  22
HETATM   22  C3  UNL     1      22.135   2.752  47.736  1.00  0.00     0.221 C 
HETATM   23  C4  UNL     1      21.885   3.665  46.583  1.00  0.00     0.063 C 
BRANCH  22  24
HETATM   24  O1  UNL     1      21.005   1.980  47.985  1.00  0.00    -0.339 OA
BRANCH  24  25
HETATM   25  C2  UNL     1      19.929   2.388  48.776  1.00  0.00     0.127 C 
HETATM   26  C1  UNL     1      19.725   1.425  49.695  1.00  0.00     0.037 C 
ENDBRANCH  24  25
ENDBRANCH  22  24
ENDBRANCH  20  22
ENDBRANCH   1  20
TORSDOF 5
ENDMDL
MODEL 9
REMARK VINA RESULT:      -7.3      3.217      5.542
REMARK  5 active torsions:
REMARK  status: ('A' for Active; 'I' for Inactive)
REMARK    1  A    between atoms: C2_2  and  O1_3 
REMARK    2  A    between atoms: O1_3  and  C3_4 
REMARK    3  A    between atoms: C3_4  and  N1_6 
REMARK    4  A    between atoms: N1_6  and  C5_7 
REMARK    5  A    between atoms: N4_16  and  C12_17 
ROOT
HETATM    1  C5  UNL     1      25.819  -0.320  53.770  1.00  0.00     0.015 C 
HETATM    2  C6  UNL     1      27.134  -0.026  53.792  1.00  0.00     0.020 C 
HETATM    3  C7  UNL     1      27.914   1.003  52.997  1.00  0.00     0.177 C 
HETATM    4  N2  UNL     1      27.008   1.691  52.184  1.00  0.00    -0.296 NA
HETATM    5  C8  UNL     1      26.982   2.667  51.420  1.00  0.00     0.134 C 
HETATM    6  C9  UNL     1      25.729   3.062  50.731  1.00  0.00     0.077 C 
HETATM    7  C10 UNL     1      26.020   4.233  49.925  1.00  0.00     0.102 C 
HETATM    8  N3  UNL     1      26.236   5.192  49.268  1.00  0.00    -0.191 NA
HETATM    9  C11 UNL     1      24.559   2.501  50.801  1.00  0.00     0.120 C 
HETATM   10  N4  UNL     1      23.524   1.619  51.158  1.00  0.00    -0.334 N 
HETATM   11  C18 UNL     1      23.712   0.651  52.224  1.00  0.00     0.081 C 
HETATM   12  C19 UNL     1      24.611   0.103  53.025  1.00  0.00     0.089 C 
ENDROOT
BRANCH  10  13
HETATM   13  C12 UNL     1      22.245   1.479  50.607  1.00  0.00     0.039 A 
HETATM   14  C13 UNL     1      21.932   1.897  49.338  1.00  0.00     0.030 A 
HETATM   15  C14 UNL     1      20.628   1.704  48.909  1.00  0.00     0.004 A 
HETATM   16  C15 UNL     1      19.709   1.112  49.744  1.00  0.00     0.019 A 
HETATM   17  C16 UNL     1      19.994   0.683  51.022  1.00  0.00     0.013 A 
HETATM   18 BR1  UNL     1      18.627  -0.129  52.075  1.00  0.00    -0.051 Br
HETATM   19  C17 UNL     1      21.311   0.886  51.438  1.00  0.00     0.049 A 
ENDBRANCH  10  13
BRANCH   1  20
HETATM   20  N1  UNL     1      25.084  -1.269  54.500  1.00  0.00    -0.366 N 
HETATM   21  H8  UNL     1      25.238  -2.286  54.221  1.00  0.00     0.162 HD
BRANCH  20  22
HETATM   22  C3  UNL     1      24.153  -0.978  55.590  1.00  0.00     0.221 C 
HETATM   23  C4  UNL     1      24.867  -1.042  56.898  1.00  0.00     0.063 C 
BRANCH  22  24
HETATM   24  O1  UNL     1      23.044  -1.817  55.613  1.00  0.00    -0.339 OA
BRANCH  24  25
HETATM   25  C2  UNL     1      21.943  -1.694  54.761  1.00  0.00     0.127 C 
HETATM   26  C1  UNL     1      21.464  -0.444  54.910  1.00  0.00     0.037 C 
ENDBRANCH  24  25
ENDBRANCH  22  24
ENDBRANCH  20  22
ENDBRANCH   1  20
TORSDOF 5
ENDMDL
