MODEL 1
REMARK VINA RESULT:      -7.0      0.000      0.000
REMARK  9 active torsions:
REMARK  status: ('A' for Active; 'I' for Inactive)
REMARK    1  A    between atoms: C2_2  and  O1_3 
REMARK    2  A    between atoms: O1_3  and  C3_4 
REMARK    3  A    between atoms: C6_7  and  N1_8 
REMARK    4  A    between atoms: N1_8  and  C7_9 
REMARK    5  A    between atoms: C9_11  and  O2_12 
REMARK    6  A    between atoms: C11_14  and  O3_15 
REMARK    7  A    between atoms: C13_17  and  O4_18 
REMARK    8  A    between atoms: C17_24  and  O5_25 
REMARK    9  A    between atoms: C19_27  and  O6_28 
ROOT
HETATM    1  C3  UNL     1      25.499   2.003  53.581  1.00  0.00     0.105 A 
HETATM    2  C4  UNL     1      24.780   3.104  53.143  1.00  0.00     0.057 A 
HETATM    3  C5  UNL     1      23.484   2.897  52.727  1.00  0.00     0.044 A 
HETATM    4  C6  UNL     1      22.809   4.007  52.302  1.00  0.00     0.142 A 
HETATM    5  N2  UNL     1      21.538   3.849  51.886  1.00  0.00    -0.224 NA
HETATM    6  C15 UNL     1      20.911   2.671  51.869  1.00  0.00     0.236 A 
HETATM    7  N3  UNL     1      21.575   1.575  52.287  1.00  0.00    -0.238 NA
HETATM    8  C16 UNL     1      22.848   1.682  52.712  1.00  0.00     0.108 A 
HETATM    9  C17 UNL     1      23.594   0.610  53.155  1.00  0.00     0.134 A 
HETATM   10  C19 UNL     1      24.907   0.737  53.591  1.00  0.00     0.137 A 
ENDROOT
BRANCH   4  11
HETATM   11  N1  UNL     1      23.288   5.346  52.239  1.00  0.00    -0.341 N 
HETATM   12  H7  UNL     1      23.096   6.146  52.882  1.00  0.00     0.167 HD
BRANCH  11  13
HETATM   13  C7  UNL     1      24.162   5.862  51.230  1.00  0.00     0.049 A 
HETATM   14  C8  UNL     1      24.383   7.181  51.299  1.00  0.00     0.067 A 
HETATM   15  C9  UNL     1      25.284   7.555  50.215  1.00  0.00     0.102 A 
HETATM   16  C11 UNL     1      25.581   6.444  49.519  1.00  0.00     0.114 A 
HETATM   17  C13 UNL     1      24.892   5.262  50.104  1.00  0.00     0.230 A 
BRANCH  15  18
HETATM   18  O2  UNL     1      25.815   8.808  49.858  1.00  0.00    -0.353 OA
HETATM   19  C10 UNL     1      27.144   9.142  50.268  1.00  0.00     0.210 C 
ENDBRANCH  15  18
BRANCH  16  20
HETATM   20  O3  UNL     1      26.410   6.373  48.408  1.00  0.00    -0.354 OA
HETATM   21  C12 UNL     1      27.532   5.493  48.518  1.00  0.00     0.209 C 
ENDBRANCH  16  20
BRANCH  17  22
HETATM   22  O4  UNL     1      24.052   4.645  49.186  1.00  0.00    -0.378 OA
HETATM   23  C14 UNL     1      24.371   3.290  49.199  1.00  0.00     0.203 C 
ENDBRANCH  17  22
ENDBRANCH  11  13
ENDBRANCH   4  11
BRANCH   1  24
HETATM   24  O1  UNL     1      26.793   2.068  54.020  1.00  0.00    -0.349 OA
BRANCH  24  25
HETATM   25  C2  UNL     1      27.945   2.191  53.246  1.00  0.00     0.171 C 
HETATM   26  C1  UNL     1      29.036   1.269  53.784  1.00  0.00     0.034 C 
ENDBRANCH  24  25
ENDBRANCH   1  24
BRANCH   9  27
HETATM   27  O5  UNL     1      22.986  -0.647  53.159  1.00  0.00    -0.351 OA
HETATM   28  C18 UNL     1      22.294  -1.162  54.265  1.00  0.00     0.210 C 
ENDBRANCH   9  27
BRANCH  10  29
HETATM   29  O6  UNL     1      25.559  -0.412  54.014  1.00  0.00    -0.351 OA
HETATM   30  C20 UNL     1      26.313  -1.190  53.135  1.00  0.00     0.210 C 
ENDBRANCH  10  29
TORSDOF 9
ENDMDL
MODEL 2
REMARK VINA RESULT:      -6.7      1.929      2.642
REMARK  9 active torsions:
REMARK  status: ('A' for Active; 'I' for Inactive)
REMARK    1  A    between atoms: C2_2  and  O1_3 
REMARK    2  A    between atoms: O1_3  and  C3_4 
REMARK    3  A    between atoms: C6_7  and  N1_8 
REMARK    4  A    between atoms: N1_8  and  C7_9 
REMARK    5  A    between atoms: C9_11  and  O2_12 
REMARK    6  A    between atoms: C11_14  and  O3_15 
REMARK    7  A    between atoms: C13_17  and  O4_18 
REMARK    8  A    between atoms: C17_24  and  O5_25 
REMARK    9  A    between atoms: C19_27  and  O6_28 
ROOT
HETATM    1  C3  UNL     1      26.264   0.124  53.982  1.00  0.00     0.105 A 
HETATM    2  C4  UNL     1      26.225   1.022  52.928  1.00  0.00     0.057 A 
HETATM    3  C5  UNL     1      25.022   1.192  52.278  1.00  0.00     0.044 A 
HETATM    4  C6  UNL     1      25.026   2.087  51.244  1.00  0.00     0.142 A 
HETATM    5  N2  UNL     1      23.870   2.283  50.579  1.00  0.00    -0.224 NA
HETATM    6  C15 UNL     1      22.733   1.652  50.880  1.00  0.00     0.236 A 
HETATM    7  N3  UNL     1      22.729   0.770  51.899  1.00  0.00    -0.238 NA
HETATM    8  C16 UNL     1      23.860   0.539  52.593  1.00  0.00     0.108 A 
HETATM    9  C17 UNL     1      23.937  -0.347  53.647  1.00  0.00     0.134 A 
HETATM   10  C19 UNL     1      25.111  -0.574  54.354  1.00  0.00     0.137 A 
ENDROOT
BRANCH   4  11
HETATM   11  N1  UNL     1      26.121   2.859  50.763  1.00  0.00    -0.341 N 
HETATM   12  H7  UNL     1      27.144   2.674  50.847  1.00  0.00     0.167 HD
BRANCH  11  13
HETATM   13  C7  UNL     1      26.008   4.091  50.045  1.00  0.00     0.049 A 
HETATM   14  C8  UNL     1      27.080   4.413  49.310  1.00  0.00     0.067 A 
HETATM   15  C9  UNL     1      26.817   5.684  48.642  1.00  0.00     0.102 A 
HETATM   16  C11 UNL     1      25.586   6.093  48.997  1.00  0.00     0.114 A 
HETATM   17  C13 UNL     1      24.958   5.114  49.925  1.00  0.00     0.230 A 
BRANCH  15  18
HETATM   18  O2  UNL     1      27.618   6.440  47.768  1.00  0.00    -0.353 OA
HETATM   19  C10 UNL     1      29.035   6.457  47.963  1.00  0.00     0.210 C 
ENDBRANCH  15  18
BRANCH  16  20
HETATM   20  O3  UNL     1      24.960   7.258  48.576  1.00  0.00    -0.354 OA
HETATM   21  C12 UNL     1      23.908   7.094  47.622  1.00  0.00     0.209 C 
ENDBRANCH  16  20
BRANCH  17  22
HETATM   22  O4  UNL     1      24.628   5.692  51.143  1.00  0.00    -0.378 OA
HETATM   23  C14 UNL     1      23.238   5.704  51.217  1.00  0.00     0.203 C 
ENDBRANCH  17  22
ENDBRANCH  11  13
ENDBRANCH   4  11
BRANCH   1  24
HETATM   24  O1  UNL     1      27.390  -0.140  54.713  1.00  0.00    -0.349 OA
BRANCH  24  25
HETATM   25  C2  UNL     1      28.699   0.237  54.418  1.00  0.00     0.171 C 
HETATM   26  C1  UNL     1      29.399  -0.875  53.641  1.00  0.00     0.034 C 
ENDBRANCH  24  25
ENDBRANCH   1  24
BRANCH   9  27
HETATM   27  O5  UNL     1      22.774  -1.034  54.004  1.00  0.00    -0.351 OA
HETATM   28  C18 UNL     1      21.796  -0.498  54.854  1.00  0.00     0.210 C 
ENDBRANCH   9  27
BRANCH  10  29
HETATM   29  O6  UNL     1      25.069  -1.489  55.395  1.00  0.00    -0.351 OA
HETATM   30  C20 UNL     1      24.963  -1.078  56.725  1.00  0.00     0.210 C 
ENDBRANCH  10  29
TORSDOF 9
ENDMDL
MODEL 3
REMARK VINA RESULT:      -6.5      2.189      4.230
REMARK  9 active torsions:
REMARK  status: ('A' for Active; 'I' for Inactive)
REMARK    1  A    between atoms: C2_2  and  O1_3 
REMARK    2  A    between atoms: O1_3  and  C3_4 
REMARK    3  A    between atoms: C6_7  and  N1_8 
REMARK    4  A    between atoms: N1_8  and  C7_9 
REMARK    5  A    between atoms: C9_11  and  O2_12 
REMARK    6  A    between atoms: C11_14  and  O3_15 
REMARK    7  A    between atoms: C13_17  and  O4_18 
REMARK    8  A    between atoms: C17_24  and  O5_25 
REMARK    9  A    between atoms: C19_27  and  O6_28 
ROOT
HETATM    1  C3  UNL     1      22.884   0.400  52.194  1.00  0.00     0.105 A 
HETATM    2  C4  UNL     1      23.698   1.304  51.532  1.00  0.00     0.057 A 
HETATM    3  C5  UNL     1      25.013   1.394  51.934  1.00  0.00     0.044 A 
HETATM    4  C6  UNL     1      25.783   2.297  51.255  1.00  0.00     0.142 A 
HETATM    5  N2  UNL     1      27.075   2.418  51.618  1.00  0.00    -0.224 NA
HETATM    6  C15 UNL     1      27.634   1.705  52.598  1.00  0.00     0.236 A 
HETATM    7  N3  UNL     1      26.875   0.815  53.267  1.00  0.00    -0.238 NA
HETATM    8  C16 UNL     1      25.578   0.658  52.943  1.00  0.00     0.108 A 
HETATM    9  C17 UNL     1      24.737  -0.230  53.579  1.00  0.00     0.134 A 
HETATM   10  C19 UNL     1      23.401  -0.381  53.232  1.00  0.00     0.137 A 
ENDROOT
BRANCH   4  11
HETATM   11  N1  UNL     1      25.387   3.150  50.187  1.00  0.00    -0.341 N 
HETATM   12  H7  UNL     1      25.264   2.926  49.175  1.00  0.00     0.167 HD
BRANCH  11  13
HETATM   13  C7  UNL     1      25.074   4.541  50.316  1.00  0.00     0.049 A 
HETATM   14  C8  UNL     1      26.016   5.374  49.857  1.00  0.00     0.067 A 
HETATM   15  C9  UNL     1      25.557   6.745  50.056  1.00  0.00     0.102 A 
HETATM   16  C11 UNL     1      24.344   6.697  50.633  1.00  0.00     0.114 A 
HETATM   17  C13 UNL     1      23.925   5.286  50.852  1.00  0.00     0.230 A 
BRANCH  15  18
HETATM   18  O2  UNL     1      26.174   7.970  49.746  1.00  0.00    -0.353 OA
HETATM   19  C10 UNL     1      27.221   7.994  48.772  1.00  0.00     0.210 C 
ENDBRANCH  15  18
BRANCH  16  20
HETATM   20  O3  UNL     1      23.564   7.789  50.988  1.00  0.00    -0.354 OA
HETATM   21  C12 UNL     1      22.542   8.158  50.059  1.00  0.00     0.209 C 
ENDBRANCH  16  20
BRANCH  17  22
HETATM   22  O4  UNL     1      23.687   5.017  52.193  1.00  0.00    -0.378 OA
HETATM   23  C14 UNL     1      22.329   4.736  52.311  1.00  0.00     0.203 C 
ENDBRANCH  17  22
ENDBRANCH  11  13
ENDBRANCH   4  11
BRANCH   1  24
HETATM   24  O1  UNL     1      21.562   0.210  51.897  1.00  0.00    -0.349 OA
BRANCH  24  25
HETATM   25  C2  UNL     1      20.723   1.064  51.183  1.00  0.00     0.171 C 
HETATM   26  C1  UNL     1      19.306   0.496  51.152  1.00  0.00     0.034 C 
ENDBRANCH  24  25
ENDBRANCH   1  24
BRANCH   9  27
HETATM   27  O5  UNL     1      25.271  -1.002  54.613  1.00  0.00    -0.351 OA
HETATM   28  C18 UNL     1      25.273  -0.594  55.955  1.00  0.00     0.210 C 
ENDBRANCH   9  27
BRANCH  10  29
HETATM   29  O6  UNL     1      22.650  -1.306  53.943  1.00  0.00    -0.351 OA
HETATM   30  C20 UNL     1      21.731  -0.909  54.916  1.00  0.00     0.210 C 
ENDBRANCH  10  29
TORSDOF 9
ENDMDL
MODEL 4
REMARK VINA RESULT:      -6.4      2.028      3.241
REMARK  9 active torsions:
REMARK  status: ('A' for Active; 'I' for Inactive)
REMARK    1  A    between atoms: C2_2  and  O1_3 
REMARK    2  A    between atoms: O1_3  and  C3_4 
REMARK    3  A    between atoms: C6_7  and  N1_8 
REMARK    4  A    between atoms: N1_8  and  C7_9 
REMARK    5  A    between atoms: C9_11  and  O2_12 
REMARK    6  A    between atoms: C11_14  and  O3_15 
REMARK    7  A    between atoms: C13_17  and  O4_18 
REMARK    8  A    between atoms: C17_24  and  O5_25 
REMARK    9  A    between atoms: C19_27  and  O6_28 
ROOT
HETATM    1  C3  UNL     1      24.017   0.583  52.811  1.00  0.00     0.105 A 
HETATM    2  C4  UNL     1      24.563   1.495  51.922  1.00  0.00     0.057 A 
HETATM    3  C5  UNL     1      23.759   1.954  50.902  1.00  0.00     0.044 A 
HETATM    4  C6  UNL     1      24.335   2.852  50.047  1.00  0.00     0.142 A 
HETATM    5  N2  UNL     1      23.584   3.325  49.034  1.00  0.00    -0.224 NA
HETATM    6  C15 UNL     1      22.316   2.963  48.827  1.00  0.00     0.236 A 
HETATM    7  N3  UNL     1      21.747   2.078  49.670  1.00  0.00    -0.238 NA
HETATM    8  C16 UNL     1      22.458   1.575  50.697  1.00  0.00     0.108 A 
HETATM    9  C17 UNL     1      21.949   0.666  51.601  1.00  0.00     0.134 A 
HETATM   10  C19 UNL     1      22.695   0.158  52.656  1.00  0.00     0.137 A 
ENDROOT
BRANCH   4  11
HETATM   11  N1  UNL     1      25.662   3.365  50.088  1.00  0.00    -0.341 N 
HETATM   12  H7  UNL     1      26.519   2.945  50.509  1.00  0.00     0.167 HD
BRANCH  11  13
HETATM   13  C7  UNL     1      26.079   4.616  49.531  1.00  0.00     0.049 A 
HETATM   14  C8  UNL     1      27.293   4.603  48.967  1.00  0.00     0.067 A 
HETATM   15  C9  UNL     1      27.576   5.937  48.448  1.00  0.00     0.102 A 
HETATM   16  C11 UNL     1      26.517   6.721  48.718  1.00  0.00     0.114 A 
HETATM   17  C13 UNL     1      25.465   5.949  49.434  1.00  0.00     0.230 A 
BRANCH  15  18
HETATM   18  O2  UNL     1      28.705   6.436  47.775  1.00  0.00    -0.353 OA
HETATM   19  C10 UNL     1      29.945   5.731  47.881  1.00  0.00     0.210 C 
ENDBRANCH  15  18
BRANCH  16  20
HETATM   20  O3  UNL     1      26.390   8.063  48.389  1.00  0.00    -0.354 OA
HETATM   21  C12 UNL     1      25.370   8.382  47.439  1.00  0.00     0.209 C 
ENDBRANCH  16  20
BRANCH  17  22
HETATM   22  O4  UNL     1      25.173   6.499  50.675  1.00  0.00    -0.378 OA
HETATM   23  C14 UNL     1      23.786   6.600  50.751  1.00  0.00     0.203 C 
ENDBRANCH  17  22
ENDBRANCH  11  13
ENDBRANCH   4  11
BRANCH   1  24
HETATM   24  O1  UNL     1      24.703   0.048  53.867  1.00  0.00    -0.349 OA
BRANCH  24  25
HETATM   25  C2  UNL     1      26.068  -0.225  53.939  1.00  0.00     0.171 C 
HETATM   26  C1  UNL     1      26.436  -1.312  52.931  1.00  0.00     0.034 C 
ENDBRANCH  24  25
ENDBRANCH   1  24
BRANCH   9  27
HETATM   27  O5  UNL     1      20.625   0.254  51.431  1.00  0.00    -0.351 OA
HETATM   28  C18 UNL     1      19.527   0.971  51.929  1.00  0.00     0.210 C 
ENDBRANCH   9  27
BRANCH  10  29
HETATM   29  O6  UNL     1      22.077  -0.752  53.502  1.00  0.00    -0.351 OA
HETATM   30  C20 UNL     1      21.502  -0.353  54.710  1.00  0.00     0.210 C 
ENDBRANCH  10  29
TORSDOF 9
ENDMDL
MODEL 5
REMARK VINA RESULT:      -6.3      4.006      8.539
REMARK  9 active torsions:
REMARK  status: ('A' for Active; 'I' for Inactive)
REMARK    1  A    between atoms: C2_2  and  O1_3 
REMARK    2  A    between atoms: O1_3  and  C3_4 
REMARK    3  A    between atoms: C6_7  and  N1_8 
REMARK    4  A    between atoms: N1_8  and  C7_9 
REMARK    5  A    between atoms: C9_11  and  O2_12 
REMARK    6  A    between atoms: C11_14  and  O3_15 
REMARK    7  A    between atoms: C13_17  and  O4_18 
REMARK    8  A    between atoms: C17_24  and  O5_25 
REMARK    9  A    between atoms: C19_27  and  O6_28 
ROOT
HETATM    1  C3  UNL     1      31.009   6.038  47.520  1.00  0.00     0.105 A 
HETATM    2  C4  UNL     1      29.665   5.863  47.804  1.00  0.00     0.057 A 
HETATM    3  C5  UNL     1      28.990   6.919  48.375  1.00  0.00     0.044 A 
HETATM    4  C6  UNL     1      27.666   6.707  48.641  1.00  0.00     0.142 A 
HETATM    5  N2  UNL     1      26.968   7.714  49.201  1.00  0.00    -0.224 NA
HETATM    6  C15 UNL     1      27.502   8.898  49.505  1.00  0.00     0.236 A 
HETATM    7  N3  UNL     1      28.807   9.109  49.244  1.00  0.00    -0.238 NA
HETATM    8  C16 UNL     1      29.548   8.132  48.685  1.00  0.00     0.108 A 
HETATM    9  C17 UNL     1      30.887   8.270  48.388  1.00  0.00     0.134 A 
HETATM   10  C19 UNL     1      31.637   7.253  47.811  1.00  0.00     0.137 A 
ENDROOT
BRANCH   4  11
HETATM   11  N1  UNL     1      26.907   5.527  48.398  1.00  0.00    -0.341 N 
HETATM   12  H7  UNL     1      26.766   5.006  47.504  1.00  0.00     0.167 HD
BRANCH  11  13
HETATM   13  C7  UNL     1      26.162   4.808  49.386  1.00  0.00     0.049 A 
HETATM   14  C8  UNL     1      26.712   3.650  49.771  1.00  0.00     0.067 A 
HETATM   15  C9  UNL     1      25.845   3.037  50.772  1.00  0.00     0.102 A 
HETATM   16  C11 UNL     1      24.790   3.850  50.961  1.00  0.00     0.114 A 
HETATM   17  C13 UNL     1      24.897   5.054  50.094  1.00  0.00     0.230 A 
BRANCH  15  18
HETATM   18  O2  UNL     1      25.976   1.829  51.479  1.00  0.00    -0.353 OA
HETATM   19  C10 UNL     1      27.096   1.651  52.350  1.00  0.00     0.210 C 
ENDBRANCH  15  18
BRANCH  16  20
HETATM   20  O3  UNL     1      23.735   3.629  51.835  1.00  0.00    -0.354 OA
HETATM   21  C12 UNL     1      23.421   4.703  52.724  1.00  0.00     0.209 C 
ENDBRANCH  16  20
BRANCH  17  22
HETATM   22  O4  UNL     1      23.813   5.172  49.234  1.00  0.00    -0.378 OA
HETATM   23  C14 UNL     1      23.414   6.505  49.273  1.00  0.00     0.203 C 
ENDBRANCH  17  22
ENDBRANCH  11  13
ENDBRANCH   4  11
BRANCH   1  24
HETATM   24  O1  UNL     1      31.797   5.073  46.953  1.00  0.00    -0.349 OA
BRANCH  24  25
HETATM   25  C2  UNL     1      32.327   3.943  47.571  1.00  0.00     0.171 C 
HETATM   26  C1  UNL     1      32.241   2.745  46.628  1.00  0.00     0.034 C 
ENDBRANCH  24  25
ENDBRANCH   1  24
BRANCH   9  27
HETATM   27  O5  UNL     1      31.496   9.491  48.686  1.00  0.00    -0.351 OA
HETATM   28  C18 UNL     1      31.581  10.550  47.770  1.00  0.00     0.210 C 
ENDBRANCH   9  27
BRANCH  10  29
HETATM   29  O6  UNL     1      32.977   7.505  47.557  1.00  0.00    -0.351 OA
HETATM   30  C20 UNL     1      33.966   7.217  48.498  1.00  0.00     0.210 C 
ENDBRANCH  10  29
TORSDOF 9
ENDMDL
MODEL 6
REMARK VINA RESULT:      -6.2      4.634      7.670
REMARK  9 active torsions:
REMARK  status: ('A' for Active; 'I' for Inactive)
REMARK    1  A    between atoms: C2_2  and  O1_3 
REMARK    2  A    between atoms: O1_3  and  C3_4 
REMARK    3  A    between atoms: C6_7  and  N1_8 
REMARK    4  A    between atoms: N1_8  and  C7_9 
REMARK    5  A    between atoms: C9_11  and  O2_12 
REMARK    6  A    between atoms: C11_14  and  O3_15 
REMARK    7  A    between atoms: C13_17  and  O4_18 
REMARK    8  A    between atoms: C17_24  and  O5_25 
REMARK    9  A    between atoms: C19_27  and  O6_28 
ROOT
HETATM    1  C3  UNL     1      26.205   4.167  49.750  1.00  0.00     0.105 A 
HETATM    2  C4  UNL     1      27.402   4.503  49.139  1.00  0.00     0.057 A 
HETATM    3  C5  UNL     1      27.478   5.728  48.514  1.00  0.00     0.044 A 
HETATM    4  C6  UNL     1      28.676   6.023  47.923  1.00  0.00     0.142 A 
HETATM    5  N2  UNL     1      28.792   7.211  47.299  1.00  0.00    -0.224 NA
HETATM    6  C15 UNL     1      27.805   8.106  47.231  1.00  0.00     0.236 A 
HETATM    7  N3  UNL     1      26.624   7.817  47.813  1.00  0.00    -0.238 NA
HETATM    8  C16 UNL     1      26.458   6.641  48.449  1.00  0.00     0.108 A 
HETATM    9  C17 UNL     1      25.283   6.272  49.068  1.00  0.00     0.134 A 
HETATM   10  C19 UNL     1      25.127   5.056  49.720  1.00  0.00     0.137 A 
ENDROOT
BRANCH   4  11
HETATM   11  N1  UNL     1      29.847   5.215  47.879  1.00  0.00    -0.341 N 
HETATM   12  H7  UNL     1      29.933   4.188  47.717  1.00  0.00     0.167 HD
BRANCH  11  13
HETATM   13  C7  UNL     1      31.184   5.692  48.061  1.00  0.00     0.049 A 
HETATM   14  C8  UNL     1      32.136   4.761  47.919  1.00  0.00     0.067 A 
HETATM   15  C9  UNL     1      33.434   5.393  48.132  1.00  0.00     0.102 A 
HETATM   16  C11 UNL     1      33.225   6.694  48.398  1.00  0.00     0.114 A 
HETATM   17  C13 UNL     1      31.769   7.003  48.377  1.00  0.00     0.230 A 
BRANCH  15  18
HETATM   18  O2  UNL     1      34.732   4.851  48.094  1.00  0.00    -0.353 OA
HETATM   19  C10 UNL     1      34.897   3.463  47.793  1.00  0.00     0.210 C 
ENDBRANCH  15  18
BRANCH  16  20
HETATM   20  O3  UNL     1      34.204   7.642  48.659  1.00  0.00    -0.354 OA
HETATM   21  C12 UNL     1      34.495   8.552  47.596  1.00  0.00     0.209 C 
ENDBRANCH  16  20
BRANCH  17  22
HETATM   22  O4  UNL     1      31.329   7.510  49.593  1.00  0.00    -0.378 OA
HETATM   23  C14 UNL     1      31.073   8.864  49.393  1.00  0.00     0.203 C 
ENDBRANCH  17  22
ENDBRANCH  11  13
ENDBRANCH   4  11
BRANCH   1  24
HETATM   24  O1  UNL     1      25.994   2.985  50.406  1.00  0.00    -0.349 OA
BRANCH  24  25
HETATM   25  C2  UNL     1      26.693   2.490  51.506  1.00  0.00     0.171 C 
HETATM   26  C1  UNL     1      26.404   1.001  51.680  1.00  0.00     0.034 C 
ENDBRANCH  24  25
ENDBRANCH   1  24
BRANCH   9  27
HETATM   27  O5  UNL     1      24.217   7.173  49.027  1.00  0.00    -0.351 OA
HETATM   28  C18 UNL     1      24.046   8.204  49.963  1.00  0.00     0.210 C 
ENDBRANCH   9  27
BRANCH  10  29
HETATM   29  O6  UNL     1      23.898   4.792  50.307  1.00  0.00    -0.351 OA
HETATM   30  C20 UNL     1      23.683   4.986  51.672  1.00  0.00     0.210 C 
ENDBRANCH  10  29
TORSDOF 9
ENDMDL
MODEL 7
REMARK VINA RESULT:      -6.2      2.226      7.581
REMARK  9 active torsions:
REMARK  status: ('A' for Active; 'I' for Inactive)
REMARK    1  A    between atoms: C2_2  and  O1_3 
REMARK    2  A    between atoms: O1_3  and  C3_4 
REMARK    3  A    between atoms: C6_7  and  N1_8 
REMARK    4  A    between atoms: N1_8  and  C7_9 
REMARK    5  A    between atoms: C9_11  and  O2_12 
REMARK    6  A    between atoms: C11_14  and  O3_15 
REMARK    7  A    between atoms: C13_17  and  O4_18 
REMARK    8  A    between atoms: C17_24  and  O5_25 
REMARK    9  A    between atoms: C19_27  and  O6_28 
ROOT
HETATM    1  C3  UNL     1      27.977   6.843  48.243  1.00  0.00     0.105 A 
HETATM    2  C4  UNL     1      27.000   5.993  48.733  1.00  0.00     0.057 A 
HETATM    3  C5  UNL     1      25.946   6.557  49.417  1.00  0.00     0.044 A 
HETATM    4  C6  UNL     1      25.003   5.684  49.884  1.00  0.00     0.142 A 
HETATM    5  N2  UNL     1      23.956   6.194  50.561  1.00  0.00    -0.224 NA
HETATM    6  C15 UNL     1      23.796   7.498  50.795  1.00  0.00     0.236 A 
HETATM    7  N3  UNL     1      24.725   8.359  50.336  1.00  0.00    -0.238 NA
HETATM    8  C16 UNL     1      25.791   7.898  49.654  1.00  0.00     0.108 A 
HETATM    9  C17 UNL     1      26.784   8.713  49.152  1.00  0.00     0.134 A 
HETATM   10  C19 UNL     1      27.877   8.222  48.450  1.00  0.00     0.137 A 
ENDROOT
BRANCH   4  11
HETATM   11  N1  UNL     1      24.983   4.268  49.745  1.00  0.00    -0.341 N 
HETATM   12  H7  UNL     1      24.747   3.691  48.908  1.00  0.00     0.167 HD
BRANCH  11  13
HETATM   13  C7  UNL     1      25.296   3.334  50.784  1.00  0.00     0.049 A 
HETATM   14  C8  UNL     1      26.603   3.096  50.950  1.00  0.00     0.067 A 
HETATM   15  C9  UNL     1      26.763   2.132  52.033  1.00  0.00     0.102 A 
HETATM   16  C11 UNL     1      25.539   1.814  52.491  1.00  0.00     0.114 A 
HETATM   17  C13 UNL     1      24.491   2.552  51.735  1.00  0.00     0.230 A 
BRANCH  15  18
HETATM   18  O2  UNL     1      27.924   1.564  52.588  1.00  0.00    -0.353 OA
HETATM   19  C10 UNL     1      28.651   2.295  53.579  1.00  0.00     0.210 C 
ENDBRANCH  15  18
BRANCH  16  20
HETATM   20  O3  UNL     1      25.257   0.928  53.521  1.00  0.00    -0.354 OA
HETATM   21  C12 UNL     1      25.266  -0.459  53.175  1.00  0.00     0.209 C 
ENDBRANCH  16  20
BRANCH  17  22
HETATM   22  O4  UNL     1      23.601   1.691  51.107  1.00  0.00    -0.378 OA
HETATM   23  C14 UNL     1      22.351   1.924  51.673  1.00  0.00     0.203 C 
ENDBRANCH  17  22
ENDBRANCH  11  13
ENDBRANCH   4  11
BRANCH   1  24
HETATM   24  O1  UNL     1      29.075   6.417  47.546  1.00  0.00    -0.349 OA
BRANCH  24  25
HETATM   25  C2  UNL     1      30.086   5.569  47.995  1.00  0.00     0.171 C 
HETATM   26  C1  UNL     1      31.078   6.350  48.854  1.00  0.00     0.034 C 
ENDBRANCH  24  25
ENDBRANCH   1  24
BRANCH   9  27
HETATM   27  O5  UNL     1      26.665  10.088  49.369  1.00  0.00    -0.351 OA
HETATM   28  C18 UNL     1      26.001  10.951  48.484  1.00  0.00     0.210 C 
ENDBRANCH   9  27
BRANCH  10  29
HETATM   29  O6  UNL     1      28.813   9.137  47.993  1.00  0.00    -0.351 OA
HETATM   30  C20 UNL     1      28.834   9.560  46.663  1.00  0.00     0.210 C 
ENDBRANCH  10  29
TORSDOF 9
ENDMDL
MODEL 8
REMARK VINA RESULT:      -6.2      1.594      2.066
REMARK  9 active torsions:
REMARK  status: ('A' for Active; 'I' for Inactive)
REMARK    1  A    between atoms: C2_2  and  O1_3 
REMARK    2  A    between atoms: O1_3  and  C3_4 
REMARK    3  A    between atoms: C6_7  and  N1_8 
REMARK    4  A    between atoms: N1_8  and  C7_9 
REMARK    5  A    between atoms: C9_11  and  O2_12 
REMARK    6  A    between atoms: C11_14  and  O3_15 
REMARK    7  A    between atoms: C13_17  and  O4_18 
REMARK    8  A    between atoms: C17_24  and  O5_25 
REMARK    9  A    between atoms: C19_27  and  O6_28 
ROOT
HETATM    1  C3  UNL     1      26.104   1.341  52.846  1.00  0.00     0.105 A 
HETATM    2  C4  UNL     1      25.502   2.558  52.569  1.00  0.00     0.057 A 
HETATM    3  C5  UNL     1      24.127   2.594  52.519  1.00  0.00     0.044 A 
HETATM    4  C6  UNL     1      23.572   3.812  52.243  1.00  0.00     0.142 A 
HETATM    5  N2  UNL     1      22.228   3.892  52.183  1.00  0.00    -0.224 NA
HETATM    6  C15 UNL     1      21.420   2.848  52.380  1.00  0.00     0.236 A 
HETATM    7  N3  UNL     1      21.966   1.646  52.652  1.00  0.00    -0.238 NA
HETATM    8  C16 UNL     1      23.305   1.515  52.722  1.00  0.00     0.108 A 
HETATM    9  C17 UNL     1      23.939   0.322  52.995  1.00  0.00     0.134 A 
HETATM   10  C19 UNL     1      25.321   0.204  53.064  1.00  0.00     0.137 A 
ENDROOT
BRANCH   4  11
HETATM   11  N1  UNL     1      24.247   5.042  52.001  1.00  0.00    -0.341 N 
HETATM   12  H7  UNL     1      24.803   5.629  52.661  1.00  0.00     0.167 HD
BRANCH  11  13
HETATM   13  C7  UNL     1      24.284   5.729  50.747  1.00  0.00     0.049 A 
HETATM   14  C8  UNL     1      25.473   5.711  50.131  1.00  0.00     0.067 A 
HETATM   15  C9  UNL     1      25.354   6.446  48.876  1.00  0.00     0.102 A 
HETATM   16  C11 UNL     1      24.089   6.890  48.772  1.00  0.00     0.114 A 
HETATM   17  C13 UNL     1      23.291   6.472  49.957  1.00  0.00     0.230 A 
BRANCH  15  18
HETATM   18  O2  UNL     1      26.309   6.712  47.878  1.00  0.00    -0.353 OA
HETATM   19  C10 UNL     1      27.248   7.772  48.080  1.00  0.00     0.210 C 
ENDBRANCH  15  18
BRANCH  16  20
HETATM   20  O3  UNL     1      23.567   7.633  47.723  1.00  0.00    -0.354 OA
HETATM   21  C12 UNL     1      22.659   6.946  46.858  1.00  0.00     0.209 C 
ENDBRANCH  16  20
BRANCH  17  22
HETATM   22  O4  UNL     1      22.766   7.563  50.639  1.00  0.00    -0.378 OA
HETATM   23  C14 UNL     1      21.393   7.355  50.730  1.00  0.00     0.203 C 
ENDBRANCH  17  22
ENDBRANCH  11  13
ENDBRANCH   4  11
BRANCH   1  24
HETATM   24  O1  UNL     1      27.459   1.164  52.926  1.00  0.00    -0.349 OA
BRANCH  24  25
HETATM   25  C2  UNL     1      28.281   1.405  54.025  1.00  0.00     0.171 C 
HETATM   26  C1  UNL     1      29.102   0.159  54.344  1.00  0.00     0.034 C 
ENDBRANCH  24  25
ENDBRANCH   1  24
BRANCH   9  27
HETATM   27  O5  UNL     1      23.139  -0.803  53.210  1.00  0.00    -0.351 OA
HETATM   28  C18 UNL     1      22.590  -1.128  54.459  1.00  0.00     0.210 C 
ENDBRANCH   9  27
BRANCH  10  29
HETATM   29  O6  UNL     1      25.847  -1.049  53.345  1.00  0.00    -0.351 OA
HETATM   30  C20 UNL     1      26.552  -1.778  52.387  1.00  0.00     0.210 C 
ENDBRANCH  10  29
TORSDOF 9
ENDMDL
MODEL 9
REMARK VINA RESULT:      -6.1      3.453      6.947
REMARK  9 active torsions:
REMARK  status: ('A' for Active; 'I' for Inactive)
REMARK    1  A    between atoms: C2_2  and  O1_3 
REMARK    2  A    between atoms: O1_3  and  C3_4 
REMARK    3  A    between atoms: C6_7  and  N1_8 
REMARK    4  A    between atoms: N1_8  and  C7_9 
REMARK    5  A    between atoms: C9_11  and  O2_12 
REMARK    6  A    between atoms: C11_14  and  O3_15 
REMARK    7  A    between atoms: C13_17  and  O4_18 
REMARK    8  A    between atoms: C17_24  and  O5_25 
REMARK    9  A    between atoms: C19_27  and  O6_28 
ROOT
HETATM    1  C3  UNL     1      24.071   1.920  51.434  1.00  0.00     0.105 A 
HETATM    2  C4  UNL     1      22.756   1.838  51.864  1.00  0.00     0.057 A 
HETATM    3  C5  UNL     1      22.469   0.944  52.872  1.00  0.00     0.044 A 
HETATM    4  C6  UNL     1      21.161   0.893  53.268  1.00  0.00     0.142 A 
HETATM    5  N2  UNL     1      20.836   0.031  54.251  1.00  0.00    -0.224 NA
HETATM    6  C15 UNL     1      21.721  -0.768  54.852  1.00  0.00     0.236 A 
HETATM    7  N3  UNL     1      23.011  -0.718  54.462  1.00  0.00    -0.238 NA
HETATM    8  C16 UNL     1      23.385   0.127  53.483  1.00  0.00     0.108 A 
HETATM    9  C17 UNL     1      24.682   0.237  53.029  1.00  0.00     0.134 A 
HETATM   10  C19 UNL     1      25.053   1.115  52.018  1.00  0.00     0.137 A 
ENDROOT
BRANCH   4  11
HETATM   11  N1  UNL     1      20.068   1.651  52.763  1.00  0.00    -0.341 N 
HETATM   12  H7  UNL     1      19.800   2.638  52.967  1.00  0.00     0.167 HD
BRANCH  11  13
HETATM   13  C7  UNL     1      19.088   1.168  51.838  1.00  0.00     0.049 A 
HETATM   14  C8  UNL     1      18.788   2.014  50.845  1.00  0.00     0.067 A 
HETATM   15  C9  UNL     1      17.784   1.387  49.992  1.00  0.00     0.102 A 
HETATM   16  C11 UNL     1      17.505   0.174  50.500  1.00  0.00     0.114 A 
HETATM   17  C13 UNL     1      18.312  -0.076  51.725  1.00  0.00     0.230 A 
BRANCH  15  18
HETATM   18  O2  UNL     1      17.148   1.859  48.830  1.00  0.00    -0.353 OA
HETATM   19  C10 UNL     1      16.724   3.225  48.775  1.00  0.00     0.210 C 
ENDBRANCH  15  18
BRANCH  16  20
HETATM   20  O3  UNL     1      16.600  -0.741  49.981  1.00  0.00    -0.354 OA
HETATM   21  C12 UNL     1      15.232  -0.547  50.351  1.00  0.00     0.209 C 
ENDBRANCH  16  20
BRANCH  17  22
HETATM   22  O4  UNL     1      17.511  -0.314  52.834  1.00  0.00    -0.378 OA
HETATM   23  C14 UNL     1      17.771  -1.619  53.243  1.00  0.00     0.203 C 
ENDBRANCH  17  22
ENDBRANCH  11  13
ENDBRANCH   4  11
BRANCH   1  24
HETATM   24  O1  UNL     1      24.493   2.764  50.443  1.00  0.00    -0.349 OA
BRANCH  24  25
HETATM   25  C2  UNL     1      24.732   4.134  50.543  1.00  0.00     0.171 C 
HETATM   26  C1  UNL     1      25.778   4.556  49.513  1.00  0.00     0.034 C 
ENDBRANCH  24  25
ENDBRANCH   1  24
BRANCH   9  27
HETATM   27  O5  UNL     1      25.649  -0.575  53.624  1.00  0.00    -0.351 OA
HETATM   28  C18 UNL     1      26.356  -0.209  54.780  1.00  0.00     0.210 C 
ENDBRANCH   9  27
BRANCH  10  29
HETATM   29  O6  UNL     1      26.388   1.138  51.642  1.00  0.00    -0.351 OA
HETATM   30  C20 UNL     1      27.280   2.071  52.173  1.00  0.00     0.210 C 
ENDBRANCH  10  29
TORSDOF 9
ENDMDL
