MODEL 1
REMARK VINA RESULT:      -7.0      0.000      0.000
REMARK  5 active torsions:
REMARK  status: ('A' for Active; 'I' for Inactive)
REMARK    1  A    between atoms: O1_2  and  C2_3 
REMARK    2  A    between atoms: C7_8  and  O2_9 
REMARK    3  A    between atoms: C9_11  and  O3_12 
REMARK    4  A    between atoms: O3_12  and  C10_13 
REMARK    5  A    between atoms: C10_13  and  C11_14 
ROOT
HETATM    1  C2  UNL     1      27.511   0.250  53.786  1.00  0.00     0.103 A 
HETATM    2  C3  UNL     1      27.780   1.154  52.777  1.00  0.00     0.071 A 
HETATM    3  C4  UNL     1      26.784   1.792  52.076  1.00  0.00     0.067 A 
HETATM    4  C5  UNL     1      25.464   1.524  52.387  1.00  0.00     0.026 A 
HETATM    5  C6  UNL     1      25.192   0.611  53.407  1.00  0.00     0.056 A 
HETATM    6  C7  UNL     1      26.195  -0.026  54.107  1.00  0.00     0.102 A 
HETATM    7  C9  UNL     1      24.715   2.270  51.566  1.00  0.00     0.079 A 
HETATM    8  C16 UNL     1      25.597   3.063  50.673  1.00  0.00     0.214 A 
HETATM    9  N1  UNL     1      26.916   2.647  51.122  1.00  0.00    -0.282 NA
ENDROOT
BRANCH   7  10
HETATM   10  O3  UNL     1      23.332   2.196  51.662  1.00  0.00    -0.348 OA
BRANCH  10  11
HETATM   11  C10 UNL     1      22.581   1.341  50.825  1.00  0.00     0.211 C 
BRANCH  11  12
HETATM   12  C11 UNL     1      21.417   0.752  51.537  1.00  0.00    -0.034 A 
HETATM   13  C12 UNL     1      20.260   0.816  50.914  1.00  0.00     0.015 A 
HETATM   14 BR1  UNL     1      20.163   1.633  49.194  1.00  0.00    -0.051 Br
HETATM   15  C13 UNL     1      18.994   0.304  51.426  1.00  0.00     0.020 A 
HETATM   16  C14 UNL     1      18.972  -0.285  52.626  1.00  0.00     0.005 A 
HETATM   17  P1  UNL     1      20.412  -0.526  53.735  1.00  0.00    -0.102 P 
HETATM   18  C15 UNL     1      21.867   0.208  52.845  1.00  0.00     0.073 A 
HETATM   19  H13 UNL     1      20.131   0.166  54.981  1.00  0.00     0.062 HD
ENDBRANCH  11  12
ENDBRANCH  10  11
ENDBRANCH   7  10
BRANCH   6  20
HETATM   20  O2  UNL     1      25.866  -0.932  55.120  1.00  0.00    -0.353 OA
HETATM   21  C8  UNL     1      24.498  -1.238  55.298  1.00  0.00     0.210 C 
ENDBRANCH   6  20
BRANCH   1  22
HETATM   22  O1  UNL     1      28.461  -0.431  54.535  1.00  0.00    -0.353 OA
HETATM   23  C1  UNL     1      29.671  -0.907  53.983  1.00  0.00     0.210 C 
ENDBRANCH   1  22
TORSDOF 5
ENDMDL
MODEL 2
REMARK VINA RESULT:      -6.9      3.259      5.072
REMARK  5 active torsions:
REMARK  status: ('A' for Active; 'I' for Inactive)
REMARK    1  A    between atoms: O1_2  and  C2_3 
REMARK    2  A    between atoms: C7_8  and  O2_9 
REMARK    3  A    between atoms: C9_11  and  O3_12 
REMARK    4  A    between atoms: O3_12  and  C10_13 
REMARK    5  A    between atoms: C10_13  and  C11_14 
ROOT
HETATM    1  C2  UNL     1      27.157  -0.408  53.608  1.00  0.00     0.103 A 
HETATM    2  C3  UNL     1      25.845  -0.826  53.710  1.00  0.00     0.071 A 
HETATM    3  C4  UNL     1      24.785  -0.011  53.384  1.00  0.00     0.067 A 
HETATM    4  C5  UNL     1      25.037   1.273  52.939  1.00  0.00     0.026 A 
HETATM    5  C6  UNL     1      26.363   1.695  52.836  1.00  0.00     0.056 A 
HETATM    6  C7  UNL     1      27.421   0.874  53.163  1.00  0.00     0.102 A 
HETATM    7  C9  UNL     1      23.847   1.837  52.698  1.00  0.00     0.079 A 
HETATM    8  C16 UNL     1      22.766   0.865  53.004  1.00  0.00     0.214 A 
HETATM    9  N1  UNL     1      23.530  -0.292  53.440  1.00  0.00    -0.282 NA
ENDROOT
BRANCH   7  10
HETATM   10  O3  UNL     1      23.802   3.145  52.233  1.00  0.00    -0.348 OA
BRANCH  10  11
HETATM   11  C10 UNL     1      23.813   3.433  50.850  1.00  0.00     0.211 C 
BRANCH  11  12
HETATM   12  C11 UNL     1      24.243   4.830  50.580  1.00  0.00    -0.034 A 
HETATM   13  C12 UNL     1      25.415   4.978  50.002  1.00  0.00     0.015 A 
HETATM   14 BR1  UNL     1      26.448   3.436  49.565  1.00  0.00    -0.051 Br
HETATM   15  C13 UNL     1      26.029   6.252  49.648  1.00  0.00     0.020 A 
HETATM   16  C14 UNL     1      25.373   7.385  49.919  1.00  0.00     0.005 A 
HETATM   17  P1  UNL     1      23.726   7.512  50.716  1.00  0.00    -0.102 P 
HETATM   18  C15 UNL     1      23.189   5.766  51.052  1.00  0.00     0.073 A 
HETATM   19  H13 UNL     1      23.886   8.277  51.940  1.00  0.00     0.062 HD
ENDBRANCH  11  12
ENDBRANCH  10  11
ENDBRANCH   7  10
BRANCH   6  20
HETATM   20  O2  UNL     1      28.731   1.348  53.041  1.00  0.00    -0.353 OA
HETATM   21  C8  UNL     1      29.083   2.486  53.802  1.00  0.00     0.210 C 
ENDBRANCH   6  20
BRANCH   1  22
HETATM   22  O1  UNL     1      28.274  -1.172  53.917  1.00  0.00    -0.353 OA
HETATM   23  C1  UNL     1      28.782  -2.166  53.052  1.00  0.00     0.210 C 
ENDBRANCH   1  22
TORSDOF 5
ENDMDL
MODEL 3
REMARK VINA RESULT:      -6.9      2.803      4.239
REMARK  5 active torsions:
REMARK  status: ('A' for Active; 'I' for Inactive)
REMARK    1  A    between atoms: O1_2  and  C2_3 
REMARK    2  A    between atoms: C7_8  and  O2_9 
REMARK    3  A    between atoms: C9_11  and  O3_12 
REMARK    4  A    between atoms: O3_12  and  C10_13 
REMARK    5  A    between atoms: C10_13  and  C11_14 
ROOT
HETATM    1  C2  UNL     1      26.081  -0.592  54.003  1.00  0.00     0.103 A 
HETATM    2  C3  UNL     1      25.116  -1.020  54.894  1.00  0.00     0.071 A 
HETATM    3  C4  UNL     1      23.771  -0.845  54.663  1.00  0.00     0.067 A 
HETATM    4  C5  UNL     1      23.364  -0.220  53.499  1.00  0.00     0.026 A 
HETATM    5  C6  UNL     1      24.338   0.212  52.598  1.00  0.00     0.056 A 
HETATM    6  C7  UNL     1      25.685   0.033  52.834  1.00  0.00     0.102 A 
HETATM    7  C9  UNL     1      22.026  -0.182  53.530  1.00  0.00     0.079 A 
HETATM    8  C16 UNL     1      21.541  -0.817  54.782  1.00  0.00     0.214 A 
HETATM    9  N1  UNL     1      22.790  -1.199  55.418  1.00  0.00    -0.282 NA
ENDROOT
BRANCH   7  10
HETATM   10  O3  UNL     1      21.344   0.399  52.470  1.00  0.00    -0.348 OA
BRANCH  10  11
HETATM   11  C10 UNL     1      21.341   1.798  52.277  1.00  0.00     0.211 C 
BRANCH  11  12
HETATM   12  C11 UNL     1      21.849   2.173  50.931  1.00  0.00    -0.034 A 
HETATM   13  C12 UNL     1      22.778   3.103  50.897  1.00  0.00     0.015 A 
HETATM   14 BR1  UNL     1      23.389   3.882  52.527  1.00  0.00    -0.051 Br
HETATM   15  C13 UNL     1      23.413   3.621  49.691  1.00  0.00     0.020 A 
HETATM   16  C14 UNL     1      23.044   3.130  48.503  1.00  0.00     0.005 A 
HETATM   17  P1  UNL     1      21.781   1.832  48.219  1.00  0.00    -0.102 P 
HETATM   18  C15 UNL     1      21.147   1.363  49.901  1.00  0.00     0.073 A 
HETATM   19  H13 UNL     1      20.738   2.405  47.385  1.00  0.00     0.062 HD
ENDBRANCH  11  12
ENDBRANCH  10  11
ENDBRANCH   7  10
BRANCH   6  20
HETATM   20  O2  UNL     1      26.620   0.485  51.897  1.00  0.00    -0.353 OA
HETATM   21  C8  UNL     1      26.639   1.870  51.617  1.00  0.00     0.210 C 
ENDBRANCH   6  20
BRANCH   1  22
HETATM   22  O1  UNL     1      27.452  -0.734  54.167  1.00  0.00    -0.353 OA
HETATM   23  C1  UNL     1      28.232   0.186  54.901  1.00  0.00     0.210 C 
ENDBRANCH   1  22
TORSDOF 5
ENDMDL
MODEL 4
REMARK VINA RESULT:      -6.9      2.533      3.666
REMARK  5 active torsions:
REMARK  status: ('A' for Active; 'I' for Inactive)
REMARK    1  A    between atoms: O1_2  and  C2_3 
REMARK    2  A    between atoms: C7_8  and  O2_9 
REMARK    3  A    between atoms: C9_11  and  O3_12 
REMARK    4  A    between atoms: O3_12  and  C10_13 
REMARK    5  A    between atoms: C10_13  and  C11_14 
ROOT
HETATM    1  C2  UNL     1      27.177   0.656  53.469  1.00  0.00     0.103 A 
HETATM    2  C3  UNL     1      26.730  -0.007  54.595  1.00  0.00     0.071 A 
HETATM    3  C4  UNL     1      25.441  -0.473  54.711  1.00  0.00     0.067 A 
HETATM    4  C5  UNL     1      24.557  -0.274  53.667  1.00  0.00     0.026 A 
HETATM    5  C6  UNL     1      25.009   0.396  52.529  1.00  0.00     0.056 A 
HETATM    6  C7  UNL     1      26.302   0.860  52.417  1.00  0.00     0.102 A 
HETATM    7  C9  UNL     1      23.392  -0.819  54.038  1.00  0.00     0.079 A 
HETATM    8  C16 UNL     1      23.528  -1.402  55.398  1.00  0.00     0.214 A 
HETATM    9  N1  UNL     1      24.917  -1.100  55.706  1.00  0.00    -0.282 NA
ENDROOT
BRANCH   7  10
HETATM   10  O3  UNL     1      22.312  -0.762  53.167  1.00  0.00    -0.348 OA
BRANCH  10  11
HETATM   11  C10 UNL     1      21.181   0.036  53.449  1.00  0.00     0.211 C 
BRANCH  11  12
HETATM   12  C11 UNL     1      20.549   0.558  52.210  1.00  0.00    -0.034 A 
HETATM   13  C12 UNL     1      19.333   0.129  51.950  1.00  0.00     0.015 A 
HETATM   14 BR1  UNL     1      18.493  -1.095  53.147  1.00  0.00    -0.051 Br
HETATM   15  C13 UNL     1      18.531   0.510  50.794  1.00  0.00     0.020 A 
HETATM   16  C14 UNL     1      19.043   1.365  49.903  1.00  0.00     0.005 A 
HETATM   17  P1  UNL     1      20.705   2.136  49.982  1.00  0.00    -0.102 P 
HETATM   18  C15 UNL     1      21.494   1.484  51.532  1.00  0.00     0.073 A 
HETATM   19  H13 UNL     1      21.435   1.737  48.791  1.00  0.00     0.062 HD
ENDBRANCH  11  12
ENDBRANCH  10  11
ENDBRANCH   7  10
BRANCH   6  20
HETATM   20  O2  UNL     1      26.704   1.525  51.255  1.00  0.00    -0.353 OA
HETATM   21  C8  UNL     1      26.173   2.816  51.030  1.00  0.00     0.210 C 
ENDBRANCH   6  20
BRANCH   1  22
HETATM   22  O1  UNL     1      28.460   1.153  53.280  1.00  0.00    -0.353 OA
HETATM   23  C1  UNL     1      28.886   2.388  53.816  1.00  0.00     0.210 C 
ENDBRANCH   1  22
TORSDOF 5
ENDMDL
MODEL 5
REMARK VINA RESULT:      -6.8      1.803      2.036
REMARK  5 active torsions:
REMARK  status: ('A' for Active; 'I' for Inactive)
REMARK    1  A    between atoms: O1_2  and  C2_3 
REMARK    2  A    between atoms: C7_8  and  O2_9 
REMARK    3  A    between atoms: C9_11  and  O3_12 
REMARK    4  A    between atoms: O3_12  and  C10_13 
REMARK    5  A    between atoms: C10_13  and  C11_14 
ROOT
HETATM    1  C2  UNL     1      26.674   0.337  54.022  1.00  0.00     0.103 A 
HETATM    2  C3  UNL     1      26.785   1.360  53.100  1.00  0.00     0.071 A 
HETATM    3  C4  UNL     1      25.743   1.729  52.282  1.00  0.00     0.067 A 
HETATM    4  C5  UNL     1      24.539   1.057  52.380  1.00  0.00     0.026 A 
HETATM    5  C6  UNL     1      24.427   0.024  53.312  1.00  0.00     0.056 A 
HETATM    6  C7  UNL     1      25.474  -0.342  54.131  1.00  0.00     0.102 A 
HETATM    7  C9  UNL     1      23.714   1.611  51.483  1.00  0.00     0.079 A 
HETATM    8  C16 UNL     1      24.422   2.700  50.765  1.00  0.00     0.214 A 
HETATM    9  N1  UNL     1      25.733   2.659  51.392  1.00  0.00    -0.282 NA
ENDROOT
BRANCH   7  10
HETATM   10  O3  UNL     1      22.419   1.123  51.367  1.00  0.00    -0.348 OA
BRANCH  10  11
HETATM   11  C10 UNL     1      21.337   1.747  52.027  1.00  0.00     0.211 C 
BRANCH  11  12
HETATM   12  C11 UNL     1      20.075   0.977  51.871  1.00  0.00    -0.034 A 
HETATM   13  C12 UNL     1      19.754   0.178  52.864  1.00  0.00     0.015 A 
HETATM   14 BR1  UNL     1      20.893   0.067  54.389  1.00  0.00    -0.051 Br
HETATM   15  C13 UNL     1      18.566  -0.666  52.921  1.00  0.00     0.020 A 
HETATM   16  C14 UNL     1      17.711  -0.650  51.893  1.00  0.00     0.005 A 
HETATM   17  P1  UNL     1      17.878   0.353  50.367  1.00  0.00    -0.102 P 
HETATM   18  C15 UNL     1      19.455   1.316  50.563  1.00  0.00     0.073 A 
HETATM   19  H13 UNL     1      17.937  -0.562  49.240  1.00  0.00     0.062 HD
ENDBRANCH  11  12
ENDBRANCH  10  11
ENDBRANCH   7  10
BRANCH   6  20
HETATM   20  O2  UNL     1      25.307  -1.384  55.047  1.00  0.00    -0.353 OA
HETATM   21  C8  UNL     1      24.161  -1.344  55.874  1.00  0.00     0.210 C 
ENDBRANCH   6  20
BRANCH   1  22
HETATM   22  O1  UNL     1      27.679  -0.090  54.880  1.00  0.00    -0.353 OA
HETATM   23  C1  UNL     1      29.033  -0.174  54.488  1.00  0.00     0.210 C 
ENDBRANCH   1  22
TORSDOF 5
ENDMDL
MODEL 6
REMARK VINA RESULT:      -6.6      3.563      7.196
REMARK  5 active torsions:
REMARK  status: ('A' for Active; 'I' for Inactive)
REMARK    1  A    between atoms: O1_2  and  C2_3 
REMARK    2  A    between atoms: C7_8  and  O2_9 
REMARK    3  A    between atoms: C9_11  and  O3_12 
REMARK    4  A    between atoms: O3_12  and  C10_13 
REMARK    5  A    between atoms: C10_13  and  C11_14 
ROOT
HETATM    1  C2  UNL     1      18.881  -0.510  52.704  1.00  0.00     0.103 A 
HETATM    2  C3  UNL     1      19.494  -1.085  53.800  1.00  0.00     0.071 A 
HETATM    3  C4  UNL     1      20.851  -1.009  54.009  1.00  0.00     0.067 A 
HETATM    4  C5  UNL     1      21.636  -0.333  53.093  1.00  0.00     0.026 A 
HETATM    5  C6  UNL     1      21.016   0.249  51.986  1.00  0.00     0.056 A 
HETATM    6  C7  UNL     1      19.655   0.170  51.782  1.00  0.00     0.102 A 
HETATM    7  C9  UNL     1      22.897  -0.412  53.533  1.00  0.00     0.079 A 
HETATM    8  C16 UNL     1      22.932  -1.181  54.803  1.00  0.00     0.214 A 
HETATM    9  N1  UNL     1      21.527  -1.504  54.987  1.00  0.00    -0.282 NA
ENDROOT
BRANCH   7  10
HETATM   10  O3  UNL     1      23.908   0.190  52.795  1.00  0.00    -0.348 OA
BRANCH  10  11
HETATM   11  C10 UNL     1      24.324   1.513  53.063  1.00  0.00     0.211 C 
BRANCH  11  12
HETATM   12  C11 UNL     1      24.667   2.248  51.817  1.00  0.00    -0.034 A 
HETATM   13  C12 UNL     1      25.944   2.309  51.509  1.00  0.00     0.015 A 
HETATM   14 BR1  UNL     1      27.226   1.474  52.647  1.00  0.00    -0.051 Br
HETATM   15  C13 UNL     1      26.502   2.976  50.339  1.00  0.00     0.020 A 
HETATM   16  C14 UNL     1      25.673   3.588  49.486  1.00  0.00     0.005 A 
HETATM   17  P1  UNL     1      23.848   3.681  49.637  1.00  0.00    -0.102 P 
HETATM   18  C15 UNL     1      23.419   2.762  51.193  1.00  0.00     0.073 A 
HETATM   19  H13 UNL     1      23.482   5.085  49.717  1.00  0.00     0.062 HD
ENDBRANCH  11  12
ENDBRANCH  10  11
ENDBRANCH   7  10
BRANCH   6  20
HETATM   20  O2  UNL     1      19.086   0.771  50.655  1.00  0.00    -0.353 OA
HETATM   21  C8  UNL     1      19.969   1.298  49.685  1.00  0.00     0.210 C 
ENDBRANCH   6  20
BRANCH   1  22
HETATM   22  O1  UNL     1      17.521  -0.545  52.428  1.00  0.00    -0.353 OA
HETATM   23  C1  UNL     1      16.716  -1.674  52.698  1.00  0.00     0.210 C 
ENDBRANCH   1  22
TORSDOF 5
ENDMDL
MODEL 7
REMARK VINA RESULT:      -6.5      1.949      2.455
REMARK  5 active torsions:
REMARK  status: ('A' for Active; 'I' for Inactive)
REMARK    1  A    between atoms: O1_2  and  C2_3 
REMARK    2  A    between atoms: C7_8  and  O2_9 
REMARK    3  A    between atoms: C9_11  and  O3_12 
REMARK    4  A    between atoms: O3_12  and  C10_13 
REMARK    5  A    between atoms: C10_13  and  C11_14 
ROOT
HETATM    1  C2  UNL     1      26.020   0.374  52.351  1.00  0.00     0.103 A 
HETATM    2  C3  UNL     1      26.751   1.235  51.556  1.00  0.00     0.071 A 
HETATM    3  C4  UNL     1      26.225   2.405  51.061  1.00  0.00     0.067 A 
HETATM    4  C5  UNL     1      24.918   2.738  51.366  1.00  0.00     0.026 A 
HETATM    5  C6  UNL     1      24.179   1.868  52.169  1.00  0.00     0.056 A 
HETATM    6  C7  UNL     1      24.711   0.696  52.664  1.00  0.00     0.102 A 
HETATM    7  C9  UNL     1      24.667   3.907  50.765  1.00  0.00     0.079 A 
HETATM    8  C16 UNL     1      25.878   4.357  50.030  1.00  0.00     0.214 A 
HETATM    9  N1  UNL     1      26.809   3.277  50.315  1.00  0.00    -0.282 NA
ENDROOT
BRANCH   7  10
HETATM   10  O3  UNL     1      23.412   4.483  50.906  1.00  0.00    -0.348 OA
BRANCH  10  11
HETATM   11  C10 UNL     1      22.431   4.361  49.897  1.00  0.00     0.211 C 
BRANCH  11  12
HETATM   12  C11 UNL     1      21.450   3.287  50.205  1.00  0.00    -0.034 A 
HETATM   13  C12 UNL     1      21.378   2.298  49.342  1.00  0.00     0.015 A 
HETATM   14 BR1  UNL     1      22.505   2.310  47.803  1.00  0.00    -0.051 Br
HETATM   15  C13 UNL     1      20.490   1.147  49.446  1.00  0.00     0.020 A 
HETATM   16  C14 UNL     1      19.665   1.058  50.495  1.00  0.00     0.005 A 
HETATM   17  P1  UNL     1      19.527   2.271  51.863  1.00  0.00    -0.102 P 
HETATM   18  C15 UNL     1      20.754   3.611  51.478  1.00  0.00     0.073 A 
HETATM   19  H13 UNL     1      18.163   2.770  51.875  1.00  0.00     0.062 HD
ENDBRANCH  11  12
ENDBRANCH  10  11
ENDBRANCH   7  10
BRANCH   6  20
HETATM   20  O2  UNL     1      23.927  -0.139  53.465  1.00  0.00    -0.353 OA
HETATM   21  C8  UNL     1      22.584  -0.340  53.071  1.00  0.00     0.210 C 
ENDBRANCH   6  20
BRANCH   1  22
HETATM   22  O1  UNL     1      26.482  -0.821  52.886  1.00  0.00    -0.353 OA
HETATM   23  C1  UNL     1      27.850  -1.068  53.131  1.00  0.00     0.210 C 
ENDBRANCH   1  22
TORSDOF 5
ENDMDL
MODEL 8
REMARK VINA RESULT:      -6.4      3.581      6.072
REMARK  5 active torsions:
REMARK  status: ('A' for Active; 'I' for Inactive)
REMARK    1  A    between atoms: O1_2  and  C2_3 
REMARK    2  A    between atoms: C7_8  and  O2_9 
REMARK    3  A    between atoms: C9_11  and  O3_12 
REMARK    4  A    between atoms: O3_12  and  C10_13 
REMARK    5  A    between atoms: C10_13  and  C11_14 
ROOT
HETATM    1  C2  UNL     1      23.318  -0.389  53.074  1.00  0.00     0.103 A 
HETATM    2  C3  UNL     1      24.663  -0.532  53.353  1.00  0.00     0.071 A 
HETATM    3  C4  UNL     1      25.605   0.371  52.920  1.00  0.00     0.067 A 
HETATM    4  C5  UNL     1      25.198   1.464  52.178  1.00  0.00     0.026 A 
HETATM    5  C6  UNL     1      23.839   1.610  51.897  1.00  0.00     0.056 A 
HETATM    6  C7  UNL     1      22.898   0.702  52.334  1.00  0.00     0.102 A 
HETATM    7  C9  UNL     1      26.300   2.168  51.892  1.00  0.00     0.079 A 
HETATM    8  C16 UNL     1      27.485   1.494  52.480  1.00  0.00     0.214 A 
HETATM    9  N1  UNL     1      26.877   0.339  53.118  1.00  0.00    -0.282 NA
ENDROOT
BRANCH   7  10
HETATM   10  O3  UNL     1      26.181   3.333  51.147  1.00  0.00    -0.348 OA
BRANCH  10  11
HETATM   11  C10 UNL     1      26.095   3.298  49.737  1.00  0.00     0.211 C 
BRANCH  11  12
HETATM   12  C11 UNL     1      26.244   4.651  49.139  1.00  0.00    -0.034 A 
HETATM   13  C12 UNL     1      25.138   5.343  48.980  1.00  0.00     0.015 A 
HETATM   14 BR1  UNL     1      23.471   4.587  49.513  1.00  0.00    -0.051 Br
HETATM   15  C13 UNL     1      25.053   6.685  48.415  1.00  0.00     0.020 A 
HETATM   16  C14 UNL     1      26.176   7.291  48.014  1.00  0.00     0.005 A 
HETATM   17  P1  UNL     1      27.868   6.591  48.102  1.00  0.00    -0.102 P 
HETATM   18  C15 UNL     1      27.681   4.902  48.851  1.00  0.00     0.073 A 
HETATM   19  H13 UNL     1      28.392   6.531  46.749  1.00  0.00     0.062 HD
ENDBRANCH  11  12
ENDBRANCH  10  11
ENDBRANCH   7  10
BRANCH   6  20
HETATM   20  O2  UNL     1      21.549   0.895  52.024  1.00  0.00    -0.353 OA
HETATM   21  C8  UNL     1      21.146   0.638  50.693  1.00  0.00     0.210 C 
ENDBRANCH   6  20
BRANCH   1  22
HETATM   22  O1  UNL     1      22.312  -1.257  53.477  1.00  0.00    -0.353 OA
HETATM   23  C1  UNL     1      21.885  -1.359  54.819  1.00  0.00     0.210 C 
ENDBRANCH   1  22
TORSDOF 5
ENDMDL
MODEL 9
REMARK VINA RESULT:      -6.4      3.283      4.404
REMARK  5 active torsions:
REMARK  status: ('A' for Active; 'I' for Inactive)
REMARK    1  A    between atoms: O1_2  and  C2_3 
REMARK    2  A    between atoms: C7_8  and  O2_9 
REMARK    3  A    between atoms: C9_11  and  O3_12 
REMARK    4  A    between atoms: O3_12  and  C10_13 
REMARK    5  A    between atoms: C10_13  and  C11_14 
ROOT
HETATM    1  C2  UNL     1      27.029  -0.155  52.997  1.00  0.00     0.103 A 
HETATM    2  C3  UNL     1      25.857  -0.847  53.233  1.00  0.00     0.071 A 
HETATM    3  C4  UNL     1      24.621  -0.247  53.166  1.00  0.00     0.067 A 
HETATM    4  C5  UNL     1      24.542   1.097  52.851  1.00  0.00     0.026 A 
HETATM    5  C6  UNL     1      25.726   1.796  52.613  1.00  0.00     0.056 A 
HETATM    6  C7  UNL     1      26.962   1.190  52.680  1.00  0.00     0.102 A 
HETATM    7  C9  UNL     1      23.243   1.418  52.854  1.00  0.00     0.079 A 
HETATM    8  C16 UNL     1      22.436   0.217  53.189  1.00  0.00     0.214 A 
HETATM    9  N1  UNL     1      23.470  -0.789  53.365  1.00  0.00    -0.282 NA
ENDROOT
BRANCH   7  10
HETATM   10  O3  UNL     1      22.870   2.724  52.566  1.00  0.00    -0.348 OA
BRANCH  10  11
HETATM   11  C10 UNL     1      22.533   3.119  51.252  1.00  0.00     0.211 C 
BRANCH  11  12
HETATM   12  C11 UNL     1      22.657   4.589  51.067  1.00  0.00    -0.034 A 
HETATM   13  C12 UNL     1      21.533   5.254  50.916  1.00  0.00     0.015 A 
HETATM   14 BR1  UNL     1      19.873   4.315  50.948  1.00  0.00    -0.051 Br
HETATM   15  C13 UNL     1      21.422   6.694  50.721  1.00  0.00     0.020 A 
HETATM   16  C14 UNL     1      22.537   7.431  50.686  1.00  0.00     0.005 A 
HETATM   17  P1  UNL     1      24.250   6.802  50.863  1.00  0.00    -0.102 P 
HETATM   18  C15 UNL     1      24.095   4.966  51.097  1.00  0.00     0.073 A 
HETATM   19  H13 UNL     1      24.972   7.136  49.648  1.00  0.00     0.062 HD
ENDBRANCH  11  12
ENDBRANCH  10  11
ENDBRANCH   7  10
BRANCH   6  20
HETATM   20  O2  UNL     1      28.117   1.937  52.432  1.00  0.00    -0.353 OA
HETATM   21  C8  UNL     1      28.665   2.663  53.514  1.00  0.00     0.210 C 
ENDBRANCH   6  20
BRANCH   1  22
HETATM   22  O1  UNL     1      28.308  -0.692  53.046  1.00  0.00    -0.353 OA
HETATM   23  C1  UNL     1      29.087  -0.701  54.224  1.00  0.00     0.210 C 
ENDBRANCH   1  22
TORSDOF 5
ENDMDL
