MODEL 1
REMARK VINA RESULT:      -7.0      0.000      0.000
REMARK  8 active torsions:
REMARK  status: ('A' for Active; 'I' for Inactive)
REMARK    1  A    between atoms: C2_2  and  P1_3 
REMARK    2  A    between atoms: P1_3  and  C3_4 
REMARK    3  A    between atoms: C7_9  and  O1_10 
REMARK    4  A    between atoms: C12_16  and  N2_17 
REMARK    5  A    between atoms: N2_17  and  C13_18 
REMARK    6  A    between atoms: C13_18  and  C14_19 
REMARK    7  A    between atoms: C14_19  and  C15_20 
REMARK    8  A    between atoms: C15_20  and  C16_21 
ROOT
HETATM    1  C3  UNL     1      26.716   1.952  53.501  1.00  0.00     0.307 C 
HETATM    2  N1  UNL     1      25.966   1.062  54.346  1.00  0.00     0.101 NA
HETATM    3  C4  UNL     1      25.361  -0.068  53.760  1.00  0.00     0.312 C 
HETATM    4  C5  UNL     1      23.987   0.369  53.302  1.00  0.00     0.006 A 
HETATM    5  C6  UNL     1      22.950  -0.450  53.695  1.00  0.00     0.048 A 
HETATM    6  C7  UNL     1      21.659  -0.113  53.313  1.00  0.00     0.069 A 
HETATM    7  C9  UNL     1      21.473   1.035  52.550  1.00  0.00     0.039 A 
HETATM    8  C10 UNL     1      22.497   1.839  52.164  1.00  0.00     0.040 A 
HETATM    9  C11 UNL     1      23.797   1.527  52.532  1.00  0.00     0.080 A 
HETATM   10  O2  UNL     1      24.798   2.419  52.085  1.00  0.00    -0.313 OA
HETATM   11  C12 UNL     1      26.187   2.117  52.133  1.00  0.00     0.400 C 
HETATM   12  H6  UNL     1      26.547   0.818  55.154  1.00  0.00     0.317 HD
ENDROOT
BRANCH  11  13
HETATM   13  N2  UNL     1      26.846   3.132  51.375  1.00  0.00     0.116 N 
HETATM   14  H16 UNL     1      26.763   4.060  51.796  1.00  0.00     0.319 HD
BRANCH  13  15
HETATM   15  C13 UNL     1      26.497   3.086  49.989  1.00  0.00     0.290 C 
BRANCH  15  16
HETATM   16  C14 UNL     1      25.921   4.371  49.502  1.00  0.00     0.102 C 
BRANCH  16  17
HETATM   17  C15 UNL     1      26.795   5.138  48.863  1.00  0.00    -0.136 C 
BRANCH  17  18
HETATM   18  C16 UNL     1      27.746   5.970  48.463  1.00  0.00     0.135 C 
HETATM   19 CL1  UNL     1      29.312   5.307  48.113  1.00  0.00    -0.088 Cl
ENDBRANCH  17  18
ENDBRANCH  16  17
ENDBRANCH  15  16
ENDBRANCH  13  15
ENDBRANCH  11  13
BRANCH   1  20
HETATM   20  P1  UNL     1      28.513   1.592  53.472  1.00  0.00    -0.067 P 
HETATM   21  H4  UNL     1      29.089   1.564  52.166  1.00  0.00     0.064 HD
BRANCH  20  22
HETATM   22  C2  UNL     1      28.985   0.146  54.474  1.00  0.00    -0.004 C 
HETATM   23  C1  UNL     1      29.333  -0.894  53.688  1.00  0.00     0.012 C 
ENDBRANCH  20  22
ENDBRANCH   1  20
BRANCH   6  24
HETATM   24  O1  UNL     1      20.692  -0.995  53.757  1.00  0.00    -0.356 OA
HETATM   25  C8  UNL     1      19.330  -0.846  53.413  1.00  0.00     0.210 C 
ENDBRANCH   6  24
TORSDOF 8
ENDMDL
MODEL 2
REMARK VINA RESULT:      -6.8      1.701      1.945
REMARK  8 active torsions:
REMARK  status: ('A' for Active; 'I' for Inactive)
REMARK    1  A    between atoms: C2_2  and  P1_3 
REMARK    2  A    between atoms: P1_3  and  C3_4 
REMARK    3  A    between atoms: C7_9  and  O1_10 
REMARK    4  A    between atoms: C12_16  and  N2_17 
REMARK    5  A    between atoms: N2_17  and  C13_18 
REMARK    6  A    between atoms: C13_18  and  C14_19 
REMARK    7  A    between atoms: C14_19  and  C15_20 
REMARK    8  A    between atoms: C15_20  and  C16_21 
ROOT
HETATM    1  C3  UNL     1      26.723   1.735  53.599  1.00  0.00     0.307 C 
HETATM    2  N1  UNL     1      25.980   0.792  54.391  1.00  0.00     0.101 NA
HETATM    3  C4  UNL     1      25.322  -0.265  53.731  1.00  0.00     0.312 C 
HETATM    4  C5  UNL     1      23.945   0.245  53.368  1.00  0.00     0.006 A 
HETATM    5  C6  UNL     1      22.900  -0.580  53.727  1.00  0.00     0.048 A 
HETATM    6  C7  UNL     1      21.607  -0.178  53.427  1.00  0.00     0.069 A 
HETATM    7  C9  UNL     1      21.425   1.037  52.777  1.00  0.00     0.039 A 
HETATM    8  C10 UNL     1      22.456   1.847  52.424  1.00  0.00     0.040 A 
HETATM    9  C11 UNL     1      23.760   1.472  52.711  1.00  0.00     0.080 A 
HETATM   10  O2  UNL     1      24.768   2.375  52.307  1.00  0.00    -0.313 OA
HETATM   11  C12 UNL     1      26.149   2.035  52.273  1.00  0.00     0.400 C 
HETATM   12  H6  UNL     1      26.582   0.462  55.151  1.00  0.00     0.317 HD
ENDROOT
BRANCH  11  13
HETATM   13  N2  UNL     1      26.808   3.098  51.583  1.00  0.00     0.116 N 
HETATM   14  H16 UNL     1      26.609   4.017  51.984  1.00  0.00     0.319 HD
BRANCH  13  15
HETATM   15  C13 UNL     1      26.618   3.023  50.167  1.00  0.00     0.290 C 
BRANCH  15  16
HETATM   16  C14 UNL     1      25.904   4.213  49.624  1.00  0.00     0.102 C 
BRANCH  16  17
HETATM   17  C15 UNL     1      24.631   3.982  49.329  1.00  0.00    -0.136 C 
BRANCH  17  18
HETATM   18  C16 UNL     1      23.360   3.997  48.951  1.00  0.00     0.135 C 
HETATM   19 CL1  UNL     1      22.638   2.493  48.471  1.00  0.00    -0.088 Cl
ENDBRANCH  17  18
ENDBRANCH  16  17
ENDBRANCH  15  16
ENDBRANCH  13  15
ENDBRANCH  11  13
BRANCH   1  20
HETATM   20  P1  UNL     1      28.507   1.335  53.468  1.00  0.00    -0.067 P 
HETATM   21  H4  UNL     1      29.019   1.352  52.136  1.00  0.00     0.064 HD
BRANCH  20  22
HETATM   22  C2  UNL     1      28.989  -0.165  54.383  1.00  0.00    -0.004 C 
HETATM   23  C1  UNL     1      29.776  -0.959  53.629  1.00  0.00     0.012 C 
ENDBRANCH  20  22
ENDBRANCH   1  20
BRANCH   6  24
HETATM   24  O1  UNL     1      20.632  -1.072  53.829  1.00  0.00    -0.356 OA
HETATM   25  C8  UNL     1      19.285  -0.942  53.422  1.00  0.00     0.210 C 
ENDBRANCH   6  24
TORSDOF 8
ENDMDL
MODEL 3
REMARK VINA RESULT:      -6.6      2.702      4.673
REMARK  8 active torsions:
REMARK  status: ('A' for Active; 'I' for Inactive)
REMARK    1  A    between atoms: C2_2  and  P1_3 
REMARK    2  A    between atoms: P1_3  and  C3_4 
REMARK    3  A    between atoms: C7_9  and  O1_10 
REMARK    4  A    between atoms: C12_16  and  N2_17 
REMARK    5  A    between atoms: N2_17  and  C13_18 
REMARK    6  A    between atoms: C13_18  and  C14_19 
REMARK    7  A    between atoms: C14_19  and  C15_20 
REMARK    8  A    between atoms: C15_20  and  C16_21 
ROOT
HETATM    1  C3  UNL     1      23.832   2.515  51.394  1.00  0.00     0.307 C 
HETATM    2  N1  UNL     1      22.573   1.931  51.015  1.00  0.00     0.101 NA
HETATM    3  C4  UNL     1      21.495   2.019  51.918  1.00  0.00     0.312 C 
HETATM    4  C5  UNL     1      21.586   0.805  52.816  1.00  0.00     0.006 A 
HETATM    5  C6  UNL     1      20.416   0.088  52.953  1.00  0.00     0.048 A 
HETATM    6  C7  UNL     1      20.422  -1.039  53.761  1.00  0.00     0.069 A 
HETATM    7  C9  UNL     1      21.608  -1.393  54.396  1.00  0.00     0.039 A 
HETATM    8  C10 UNL     1      22.758  -0.684  54.258  1.00  0.00     0.040 A 
HETATM    9  C11 UNL     1      22.782   0.447  53.457  1.00  0.00     0.080 A 
HETATM   10  O2  UNL     1      24.021   1.121  53.374  1.00  0.00    -0.313 OA
HETATM   11  C12 UNL     1      24.160   2.428  52.830  1.00  0.00     0.400 C 
HETATM   12  H6  UNL     1      22.328   2.271  50.080  1.00  0.00     0.317 HD
ENDROOT
BRANCH  11  13
HETATM   13  N2  UNL     1      25.484   2.858  53.149  1.00  0.00     0.116 N 
HETATM   14  H16 UNL     1      25.929   3.375  52.388  1.00  0.00     0.319 HD
BRANCH  13  15
HETATM   15  C13 UNL     1      26.283   1.798  53.681  1.00  0.00     0.290 C 
BRANCH  15  16
HETATM   16  C14 UNL     1      27.542   1.589  52.910  1.00  0.00     0.102 C 
BRANCH  16  17
HETATM   17  C15 UNL     1      28.398   0.765  53.501  1.00  0.00    -0.136 C 
BRANCH  17  18
HETATM   18  C16 UNL     1      29.418   0.023  53.907  1.00  0.00     0.135 C 
HETATM   19 CL1  UNL     1      29.433  -1.653  53.455  1.00  0.00    -0.088 Cl
ENDBRANCH  17  18
ENDBRANCH  16  17
ENDBRANCH  15  16
ENDBRANCH  13  15
ENDBRANCH  11  13
BRANCH   1  20
HETATM   20  P1  UNL     1      24.063   4.223  50.768  1.00  0.00    -0.067 P 
HETATM   21  H4  UNL     1      22.848   4.933  50.529  1.00  0.00     0.064 HD
BRANCH  20  22
HETATM   22  C2  UNL     1      25.227   4.339  49.372  1.00  0.00    -0.004 C 
HETATM   23  C1  UNL     1      26.432   3.832  49.704  1.00  0.00     0.012 C 
ENDBRANCH  20  22
ENDBRANCH   1  20
BRANCH   6  24
HETATM   24  O1  UNL     1      19.203  -1.688  53.833  1.00  0.00    -0.356 OA
HETATM   25  C8  UNL     1      18.087  -1.269  53.075  1.00  0.00     0.210 C 
ENDBRANCH   6  24
TORSDOF 8
ENDMDL
MODEL 4
REMARK VINA RESULT:      -6.6      3.520      6.381
REMARK  8 active torsions:
REMARK  status: ('A' for Active; 'I' for Inactive)
REMARK    1  A    between atoms: C2_2  and  P1_3 
REMARK    2  A    between atoms: P1_3  and  C3_4 
REMARK    3  A    between atoms: C7_9  and  O1_10 
REMARK    4  A    between atoms: C12_16  and  N2_17 
REMARK    5  A    between atoms: N2_17  and  C13_18 
REMARK    6  A    between atoms: C13_18  and  C14_19 
REMARK    7  A    between atoms: C14_19  and  C15_20 
REMARK    8  A    between atoms: C15_20  and  C16_21 
ROOT
HETATM    1  C3  UNL     1      24.411   3.497  50.913  1.00  0.00     0.307 C 
HETATM    2  N1  UNL     1      25.722   3.393  51.496  1.00  0.00     0.101 NA
HETATM    3  C4  UNL     1      26.532   2.298  51.133  1.00  0.00     0.312 C 
HETATM    4  C5  UNL     1      26.206   1.182  52.101  1.00  0.00     0.006 A 
HETATM    5  C6  UNL     1      27.297   0.584  52.696  1.00  0.00     0.048 A 
HETATM    6  C7  UNL     1      27.078  -0.447  53.597  1.00  0.00     0.069 A 
HETATM    7  C9  UNL     1      25.766  -0.830  53.858  1.00  0.00     0.039 A 
HETATM    8  C10 UNL     1      24.694  -0.239  53.271  1.00  0.00     0.040 A 
HETATM    9  C11 UNL     1      24.883   0.795  52.366  1.00  0.00     0.080 A 
HETATM   10  O2  UNL     1      23.711   1.349  51.805  1.00  0.00    -0.313 OA
HETATM   11  C12 UNL     1      23.723   2.213  50.675  1.00  0.00     0.400 C 
HETATM   12  H6  UNL     1      26.202   4.289  51.374  1.00  0.00     0.317 HD
ENDROOT
BRANCH  11  13
HETATM   13  N2  UNL     1      22.364   2.353  50.260  1.00  0.00     0.116 N 
HETATM   14  H16 UNL     1      21.778   2.809  50.962  1.00  0.00     0.319 HD
BRANCH  13  15
HETATM   15  C13 UNL     1      21.824   1.128  49.756  1.00  0.00     0.290 C 
BRANCH  15  16
HETATM   16  C14 UNL     1      20.435   0.877  50.233  1.00  0.00     0.102 C 
BRANCH  16  17
HETATM   17  C15 UNL     1      20.369   0.478  51.496  1.00  0.00    -0.136 C 
BRANCH  17  18
HETATM   18  C16 UNL     1      20.154   0.289  52.790  1.00  0.00     0.135 C 
HETATM   19 CL1  UNL     1      21.114  -0.904  53.608  1.00  0.00    -0.088 Cl
ENDBRANCH  17  18
ENDBRANCH  16  17
ENDBRANCH  15  16
ENDBRANCH  13  15
ENDBRANCH  11  13
BRANCH   1  20
HETATM   20  P1  UNL     1      24.358   4.559  49.420  1.00  0.00    -0.067 P 
HETATM   21  H4  UNL     1      24.312   3.841  48.187  1.00  0.00     0.064 HD
BRANCH  20  22
HETATM   22  C2  UNL     1      25.615   5.877  49.414  1.00  0.00    -0.004 C 
HETATM   23  C1  UNL     1      26.730   5.478  48.769  1.00  0.00     0.012 C 
ENDBRANCH  20  22
ENDBRANCH   1  20
BRANCH   6  24
HETATM   24  O1  UNL     1      28.233  -0.979  54.137  1.00  0.00    -0.356 OA
HETATM   25  C8  UNL     1      29.514  -0.502  53.781  1.00  0.00     0.210 C 
ENDBRANCH   6  24
TORSDOF 8
ENDMDL
MODEL 5
REMARK VINA RESULT:      -6.4      2.934      5.570
REMARK  8 active torsions:
REMARK  status: ('A' for Active; 'I' for Inactive)
REMARK    1  A    between atoms: C2_2  and  P1_3 
REMARK    2  A    between atoms: P1_3  and  C3_4 
REMARK    3  A    between atoms: C7_9  and  O1_10 
REMARK    4  A    between atoms: C12_16  and  N2_17 
REMARK    5  A    between atoms: N2_17  and  C13_18 
REMARK    6  A    between atoms: C13_18  and  C14_19 
REMARK    7  A    between atoms: C14_19  and  C15_20 
REMARK    8  A    between atoms: C15_20  and  C16_21 
ROOT
HETATM    1  C3  UNL     1      21.884   0.372  51.951  1.00  0.00     0.307 C 
HETATM    2  N1  UNL     1      22.580  -0.607  52.742  1.00  0.00     0.101 NA
HETATM    3  C4  UNL     1      23.352  -0.162  53.834  1.00  0.00     0.312 C 
HETATM    4  C5  UNL     1      24.735   0.125  53.294  1.00  0.00     0.006 A 
HETATM    5  C6  UNL     1      25.772  -0.443  54.004  1.00  0.00     0.048 A 
HETATM    6  C7  UNL     1      27.070  -0.225  53.569  1.00  0.00     0.069 A 
HETATM    7  C9  UNL     1      27.266   0.558  52.436  1.00  0.00     0.039 A 
HETATM    8  C10 UNL     1      26.243   1.116  51.739  1.00  0.00     0.040 A 
HETATM    9  C11 UNL     1      24.934   0.915  52.151  1.00  0.00     0.080 A 
HETATM   10  O2  UNL     1      23.936   1.534  51.366  1.00  0.00    -0.313 OA
HETATM   11  C12 UNL     1      22.584   1.662  51.788  1.00  0.00     0.400 C 
HETATM   12  H6  UNL     1      21.914  -1.340  53.008  1.00  0.00     0.317 HD
ENDROOT
BRANCH  11  13
HETATM   13  N2  UNL     1      21.955   2.548  50.861  1.00  0.00     0.116 N 
HETATM   14  H16 UNL     1      20.950   2.643  51.020  1.00  0.00     0.319 HD
BRANCH  13  15
HETATM   15  C13 UNL     1      22.308   2.254  49.507  1.00  0.00     0.290 C 
BRANCH  15  16
HETATM   16  C14 UNL     1      22.781   3.457  48.765  1.00  0.00     0.102 C 
BRANCH  16  17
HETATM   17  C15 UNL     1      23.987   3.870  49.133  1.00  0.00    -0.136 C 
BRANCH  17  18
HETATM   18  C16 UNL     1      25.062   4.467  49.626  1.00  0.00     0.135 C 
HETATM   19 CL1  UNL     1      26.607   3.734  49.330  1.00  0.00    -0.088 Cl
ENDBRANCH  17  18
ENDBRANCH  16  17
ENDBRANCH  15  16
ENDBRANCH  13  15
ENDBRANCH  11  13
BRANCH   1  20
HETATM   20  P1  UNL     1      20.145   0.628  52.469  1.00  0.00    -0.067 P 
HETATM   21  H4  UNL     1      19.877   1.916  53.023  1.00  0.00     0.064 HD
BRANCH  20  22
HETATM   22  C2  UNL     1      19.479  -0.724  53.492  1.00  0.00    -0.004 C 
HETATM   23  C1  UNL     1      18.227  -1.049  53.109  1.00  0.00     0.012 C 
ENDBRANCH  20  22
ENDBRANCH   1  20
BRANCH   6  24
HETATM   24  O1  UNL     1      28.036  -0.836  54.346  1.00  0.00    -0.356 OA
HETATM   25  C8  UNL     1      29.400  -0.842  53.977  1.00  0.00     0.210 C 
ENDBRANCH   6  24
TORSDOF 8
ENDMDL
MODEL 6
REMARK VINA RESULT:      -6.2      3.180      6.323
REMARK  8 active torsions:
REMARK  status: ('A' for Active; 'I' for Inactive)
REMARK    1  A    between atoms: C2_2  and  P1_3 
REMARK    2  A    between atoms: P1_3  and  C3_4 
REMARK    3  A    between atoms: C7_9  and  O1_10 
REMARK    4  A    between atoms: C12_16  and  N2_17 
REMARK    5  A    between atoms: N2_17  and  C13_18 
REMARK    6  A    between atoms: C13_18  and  C14_19 
REMARK    7  A    between atoms: C14_19  and  C15_20 
REMARK    8  A    between atoms: C15_20  and  C16_21 
ROOT
HETATM    1  C3  UNL     1      26.209   0.182  52.502  1.00  0.00     0.307 C 
HETATM    2  N1  UNL     1      26.922   1.088  51.643  1.00  0.00     0.101 NA
HETATM    3  C4  UNL     1      26.747   2.473  51.836  1.00  0.00     0.312 C 
HETATM    4  C5  UNL     1      25.563   2.879  50.986  1.00  0.00     0.006 A 
HETATM    5  C6  UNL     1      25.772   3.974  50.174  1.00  0.00     0.048 A 
HETATM    6  C7  UNL     1      24.732   4.406  49.365  1.00  0.00     0.069 A 
HETATM    7  C9  UNL     1      23.526   3.715  49.411  1.00  0.00     0.039 A 
HETATM    8  C10 UNL     1      23.324   2.638  50.212  1.00  0.00     0.040 A 
HETATM    9  C11 UNL     1      24.346   2.183  51.032  1.00  0.00     0.080 A 
HETATM   10  O2  UNL     1      24.045   1.058  51.831  1.00  0.00    -0.313 OA
HETATM   11  C12 UNL     1      24.864   0.630  52.912  1.00  0.00     0.400 C 
HETATM   12  H6  UNL     1      27.910   0.818  51.636  1.00  0.00     0.317 HD
ENDROOT
BRANCH  11  13
HETATM   13  N2  UNL     1      24.114  -0.359  53.618  1.00  0.00     0.116 N 
HETATM   14  H16 UNL     1      24.599  -1.257  53.681  1.00  0.00     0.319 HD
BRANCH  13  15
HETATM   15  C13 UNL     1      22.767  -0.455  53.148  1.00  0.00     0.290 C 
BRANCH  15  16
HETATM   16  C14 UNL     1      21.776   0.013  54.158  1.00  0.00     0.102 C 
BRANCH  16  17
HETATM   17  C15 UNL     1      20.520  -0.283  53.849  1.00  0.00    -0.136 C 
BRANCH  17  18
HETATM   18  C16 UNL     1      19.372  -0.744  53.372  1.00  0.00     0.135 C 
HETATM   19 CL1  UNL     1      18.744  -0.020  51.925  1.00  0.00    -0.088 Cl
ENDBRANCH  17  18
ENDBRANCH  16  17
ENDBRANCH  15  16
ENDBRANCH  13  15
ENDBRANCH  11  13
BRANCH   1  20
HETATM   20  P1  UNL     1      27.186  -0.376  53.949  1.00  0.00    -0.067 P 
HETATM   21  H4  UNL     1      26.540  -0.184  55.207  1.00  0.00     0.064 HD
BRANCH  20  22
HETATM   22  C2  UNL     1      28.905   0.229  53.947  1.00  0.00    -0.004 C 
HETATM   23  C1  UNL     1      29.753  -0.727  53.515  1.00  0.00     0.012 C 
ENDBRANCH  20  22
ENDBRANCH   1  20
BRANCH   6  24
HETATM   24  O1  UNL     1      25.041   5.508  48.590  1.00  0.00    -0.356 OA
HETATM   25  C8  UNL     1      26.083   6.398  48.936  1.00  0.00     0.210 C 
ENDBRANCH   6  24
TORSDOF 8
ENDMDL
MODEL 7
REMARK VINA RESULT:      -5.9      4.121      8.210
REMARK  8 active torsions:
REMARK  status: ('A' for Active; 'I' for Inactive)
REMARK    1  A    between atoms: C2_2  and  P1_3 
REMARK    2  A    between atoms: P1_3  and  C3_4 
REMARK    3  A    between atoms: C7_9  and  O1_10 
REMARK    4  A    between atoms: C12_16  and  N2_17 
REMARK    5  A    between atoms: N2_17  and  C13_18 
REMARK    6  A    between atoms: C13_18  and  C14_19 
REMARK    7  A    between atoms: C14_19  and  C15_20 
REMARK    8  A    between atoms: C15_20  and  C16_21 
ROOT
HETATM    1  C3  UNL     1      23.752   4.550  51.696  1.00  0.00     0.307 C 
HETATM    2  N1  UNL     1      24.290   5.862  51.451  1.00  0.00     0.101 NA
HETATM    3  C4  UNL     1      24.320   6.337  50.124  1.00  0.00     0.312 C 
HETATM    4  C5  UNL     1      25.636   5.881  49.534  1.00  0.00     0.006 A 
HETATM    5  C6  UNL     1      26.369   6.865  48.905  1.00  0.00     0.048 A 
HETATM    6  C7  UNL     1      27.588   6.523  48.340  1.00  0.00     0.069 A 
HETATM    7  C9  UNL     1      28.013   5.202  48.432  1.00  0.00     0.039 A 
HETATM    8  C10 UNL     1      27.288   4.235  49.051  1.00  0.00     0.040 A 
HETATM    9  C11 UNL     1      26.066   4.548  49.626  1.00  0.00     0.080 A 
HETATM   10  O2  UNL     1      25.382   3.479  50.246  1.00  0.00    -0.313 OA
HETATM   11  C12 UNL     1      24.017   3.554  50.640  1.00  0.00     0.400 C 
HETATM   12  H6  UNL     1      23.838   6.521  52.091  1.00  0.00     0.317 HD
ENDROOT
BRANCH  11  13
HETATM   13  N2  UNL     1      23.624   2.225  50.986  1.00  0.00     0.116 N 
HETATM   14  H16 UNL     1      22.744   2.192  51.505  1.00  0.00     0.319 HD
BRANCH  13  15
HETATM   15  C13 UNL     1      24.689   1.488  51.594  1.00  0.00     0.290 C 
BRANCH  15  16
HETATM   16  C14 UNL     1      24.457   1.241  53.045  1.00  0.00     0.102 C 
BRANCH  16  17
HETATM   17  C15 UNL     1      23.700   0.179  53.290  1.00  0.00    -0.136 C 
BRANCH  17  18
HETATM   18  C16 UNL     1      22.765  -0.755  53.396  1.00  0.00     0.135 C 
HETATM   19 CL1  UNL     1      21.754  -0.737  54.807  1.00  0.00    -0.088 Cl
ENDBRANCH  17  18
ENDBRANCH  16  17
ENDBRANCH  15  16
ENDBRANCH  13  15
ENDBRANCH  11  13
BRANCH   1  20
HETATM   20  P1  UNL     1      21.980   4.562  52.161  1.00  0.00    -0.067 P 
HETATM   21  H4  UNL     1      21.544   3.395  52.857  1.00  0.00     0.064 HD
BRANCH  20  22
HETATM   22  C2  UNL     1      20.867   5.014  50.791  1.00  0.00    -0.004 C 
HETATM   23  C1  UNL     1      20.182   3.939  50.351  1.00  0.00     0.012 C 
ENDBRANCH  20  22
ENDBRANCH   1  20
BRANCH   6  24
HETATM   24  O1  UNL     1      28.246   7.578  47.736  1.00  0.00    -0.356 OA
HETATM   25  C8  UNL     1      29.417   7.389  46.969  1.00  0.00     0.210 C 
ENDBRANCH   6  24
TORSDOF 8
ENDMDL
MODEL 8
REMARK VINA RESULT:      -5.8      4.156      7.205
REMARK  8 active torsions:
REMARK  status: ('A' for Active; 'I' for Inactive)
REMARK    1  A    between atoms: C2_2  and  P1_3 
REMARK    2  A    between atoms: P1_3  and  C3_4 
REMARK    3  A    between atoms: C7_9  and  O1_10 
REMARK    4  A    between atoms: C12_16  and  N2_17 
REMARK    5  A    between atoms: N2_17  and  C13_18 
REMARK    6  A    between atoms: C13_18  and  C14_19 
REMARK    7  A    between atoms: C14_19  and  C15_20 
REMARK    8  A    between atoms: C15_20  and  C16_21 
ROOT
HETATM    1  C3  UNL     1      23.517   3.422  51.639  1.00  0.00     0.307 C 
HETATM    2  N1  UNL     1      24.937   3.550  51.833  1.00  0.00     0.101 NA
HETATM    3  C4  UNL     1      25.787   2.627  51.192  1.00  0.00     0.312 C 
HETATM    4  C5  UNL     1      25.942   1.457  52.137  1.00  0.00     0.006 A 
HETATM    5  C6  UNL     1      27.242   1.059  52.369  1.00  0.00     0.048 A 
HETATM    6  C7  UNL     1      27.465  -0.008  53.227  1.00  0.00     0.069 A 
HETATM    7  C9  UNL     1      26.365  -0.629  53.810  1.00  0.00     0.039 A 
HETATM    8  C10 UNL     1      25.087  -0.235  53.579  1.00  0.00     0.040 A 
HETATM    9  C11 UNL     1      24.834   0.829  52.727  1.00  0.00     0.080 A 
HETATM   10  O2  UNL     1      23.475   1.168  52.545  1.00  0.00    -0.313 OA
HETATM   11  C12 UNL     1      23.021   2.037  51.514  1.00  0.00     0.400 C 
HETATM   12  H6  UNL     1      25.202   4.521  51.644  1.00  0.00     0.317 HD
ENDROOT
BRANCH  11  13
HETATM   13  N2  UNL     1      21.597   1.932  51.497  1.00  0.00     0.116 N 
HETATM   14  H16 UNL     1      21.184   1.963  52.431  1.00  0.00     0.319 HD
BRANCH  13  15
HETATM   15  C13 UNL     1      21.145   0.838  50.694  1.00  0.00     0.290 C 
BRANCH  15  16
HETATM   16  C14 UNL     1      19.773   0.389  51.061  1.00  0.00     0.102 C 
BRANCH  16  17
HETATM   17  C15 UNL     1      19.679  -0.084  52.297  1.00  0.00    -0.136 C 
BRANCH  17  18
HETATM   18  C16 UNL     1      19.370  -0.670  53.445  1.00  0.00     0.135 C 
HETATM   19 CL1  UNL     1      18.090  -1.842  53.439  1.00  0.00    -0.088 Cl
ENDBRANCH  17  18
ENDBRANCH  16  17
ENDBRANCH  15  16
ENDBRANCH  13  15
ENDBRANCH  11  13
BRANCH   1  20
HETATM   20  P1  UNL     1      22.865   4.478  50.291  1.00  0.00    -0.067 P 
HETATM   21  H4  UNL     1      23.254   4.068  48.979  1.00  0.00     0.064 HD
BRANCH  20  22
HETATM   22  C2  UNL     1      23.121   6.260  50.569  1.00  0.00    -0.004 C 
HETATM   23  C1  UNL     1      21.958   6.874  50.869  1.00  0.00     0.012 C 
ENDBRANCH  20  22
ENDBRANCH   1  20
BRANCH   6  24
HETATM   24  O1  UNL     1      28.799  -0.328  53.394  1.00  0.00    -0.356 OA
HETATM   25  C8  UNL     1      29.266  -1.658  53.303  1.00  0.00     0.210 C 
ENDBRANCH   6  24
TORSDOF 8
ENDMDL
MODEL 9
REMARK VINA RESULT:      -5.8      3.781      6.148
REMARK  8 active torsions:
REMARK  status: ('A' for Active; 'I' for Inactive)
REMARK    1  A    between atoms: C2_2  and  P1_3 
REMARK    2  A    between atoms: P1_3  and  C3_4 
REMARK    3  A    between atoms: C7_9  and  O1_10 
REMARK    4  A    between atoms: C12_16  and  N2_17 
REMARK    5  A    between atoms: N2_17  and  C13_18 
REMARK    6  A    between atoms: C13_18  and  C14_19 
REMARK    7  A    between atoms: C14_19  and  C15_20 
REMARK    8  A    between atoms: C15_20  and  C16_21 
ROOT
HETATM    1  C3  UNL     1      21.759   0.429  52.229  1.00  0.00     0.307 C 
HETATM    2  N1  UNL     1      22.505  -0.697  52.722  1.00  0.00     0.101 NA
HETATM    3  C4  UNL     1      23.364  -0.502  53.822  1.00  0.00     0.312 C 
HETATM    4  C5  UNL     1      24.704  -0.089  53.254  1.00  0.00     0.006 A 
HETATM    5  C6  UNL     1      25.788  -0.793  53.736  1.00  0.00     0.048 A 
HETATM    6  C7  UNL     1      27.050  -0.471  53.260  1.00  0.00     0.069 A 
HETATM    7  C9  UNL     1      27.164   0.548  52.321  1.00  0.00     0.039 A 
HETATM    8  C10 UNL     1      26.095   1.240  51.850  1.00  0.00     0.040 A 
HETATM    9  C11 UNL     1      24.820   0.940  52.306  1.00  0.00     0.080 A 
HETATM   10  O2  UNL     1      23.770   1.711  51.762  1.00  0.00    -0.313 OA
HETATM   11  C12 UNL     1      22.455   1.729  52.305  1.00  0.00     0.400 C 
HETATM   12  H6  UNL     1      21.856  -1.476  52.868  1.00  0.00     0.317 HD
ENDROOT
BRANCH  11  13
HETATM   13  N2  UNL     1      21.764   2.795  51.654  1.00  0.00     0.116 N 
HETATM   14  H16 UNL     1      21.860   2.769  50.637  1.00  0.00     0.319 HD
BRANCH  13  15
HETATM   15  C13 UNL     1      22.062   4.067  52.236  1.00  0.00     0.290 C 
BRANCH  15  16
HETATM   16  C14 UNL     1      22.541   5.057  51.231  1.00  0.00     0.102 C 
BRANCH  16  17
HETATM   17  C15 UNL     1      21.623   5.395  50.334  1.00  0.00    -0.136 C 
BRANCH  17  18
HETATM   18  C16 UNL     1      20.591   5.511  49.511  1.00  0.00     0.135 C 
HETATM   19 CL1  UNL     1      20.264   4.196  48.426  1.00  0.00    -0.088 Cl
ENDBRANCH  17  18
ENDBRANCH  16  17
ENDBRANCH  15  16
ENDBRANCH  13  15
ENDBRANCH  11  13
BRANCH   1  20
HETATM   20  P1  UNL     1      20.068   0.547  52.925  1.00  0.00    -0.067 P 
HETATM   21  H4  UNL     1      19.886   1.612  53.858  1.00  0.00     0.064 HD
BRANCH  20  22
HETATM   22  C2  UNL     1      19.418  -1.039  53.541  1.00  0.00    -0.004 C 
HETATM   23  C1  UNL     1      18.132  -1.210  53.173  1.00  0.00     0.012 C 
ENDBRANCH  20  22
ENDBRANCH   1  20
BRANCH   6  24
HETATM   24  O1  UNL     1      28.068  -1.233  53.803  1.00  0.00    -0.356 OA
HETATM   25  C8  UNL     1      29.416  -0.812  53.771  1.00  0.00     0.210 C 
ENDBRANCH   6  24
TORSDOF 8
ENDMDL
