MODEL 1
REMARK VINA RESULT:      -8.2      0.000      0.000
REMARK  12 active torsions:
REMARK  status: ('A' for Active; 'I' for Inactive)
REMARK    1  A    between atoms: C3_3  and  C4_5 
REMARK    2  A    between atoms: C5_7  and  C6_8 
REMARK    3  A    between atoms: C6_8  and  N1_9 
REMARK    4  A    between atoms: N1_9  and  C7_10 
REMARK    5  A    between atoms: C9_14  and  O1_15 
REMARK    6  A    between atoms: C10_16  and  C11_17 
REMARK    7  A    between atoms: C12_18  and  C13_19 
REMARK    8  A    between atoms: C12_18  and  C20_28 
REMARK    9  A    between atoms: C13_19  and  C14_20 
REMARK   10  A    between atoms: C14_20  and  C15_21 
REMARK   11  A    between atoms: C15_21  and  N4_22 
REMARK   12  A    between atoms: C20_28  and  O3_29 
ROOT
HETATM    1  C7  UNL     1      26.896   0.060  53.427  1.00  0.00     0.139 A 
HETATM    2  N2  UNL     1      27.562  -0.395  54.501  1.00  0.00    -0.224 NA
HETATM    3  C8  UNL     1      28.615   0.240  55.038  1.00  0.00     0.238 A 
HETATM    4  N3  UNL     1      29.024   1.403  54.459  1.00  0.00    -0.217 NA
HETATM    5  C9  UNL     1      28.370   1.895  53.366  1.00  0.00     0.177 A 
HETATM    6  C10 UNL     1      27.261   1.227  52.801  1.00  0.00     0.063 A 
ENDROOT
BRANCH   6   7
HETATM    7  C11 UNL     1      26.806   1.935  51.636  1.00  0.00     0.025 C 
HETATM    8  C12 UNL     1      25.742   2.779  51.372  1.00  0.00    -0.055 C 
BRANCH   8   9
HETATM    9  C13 UNL     1      26.007   3.075  49.953  1.00  0.00     0.038 C 
BRANCH   9  10
HETATM   10  C14 UNL     1      25.900   4.460  49.476  1.00  0.00     0.034 C 
BRANCH  10  11
HETATM   11  C15 UNL     1      27.000   5.128  48.779  1.00  0.00     0.273 C 
BRANCH  11  12
HETATM   12  N4  UNL     1      26.947   6.539  48.527  1.00  0.00     0.092 N 
HETATM   13  C16 UNL     1      28.222   7.142  48.496  1.00  0.00     0.298 C 
HETATM   14  C17 UNL     1      28.275   8.607  48.907  1.00  0.00     0.198 C 
HETATM   15  O2  UNL     1      27.528   8.897  50.032  1.00  0.00    -0.388 OA
HETATM   16  C18 UNL     1      26.195   8.594  49.645  1.00  0.00     0.198 C 
HETATM   17  C19 UNL     1      26.149   7.092  49.612  1.00  0.00     0.298 C 
ENDBRANCH  11  12
ENDBRANCH  10  11
ENDBRANCH   9  10
ENDBRANCH   8   9
BRANCH   8  18
HETATM   18  C20 UNL     1      24.991   2.852  52.648  1.00  0.00     0.201 C 
BRANCH  18  19
HETATM   19  O3  UNL     1      23.845   3.591  52.653  1.00  0.00    -0.392 OA
HETATM   20  C21 UNL     1      22.794   3.259  51.904  1.00  0.00     0.201 C 
ENDBRANCH  18  19
ENDBRANCH   8  18
ENDBRANCH   6   7
BRANCH   1  21
HETATM   21  N1  UNL     1      25.770  -0.547  52.806  1.00  0.00    -0.370 N 
HETATM   22  H8  UNL     1      25.648  -0.785  51.824  1.00  0.00     0.161 HD
BRANCH  21  23
HETATM   23  C6  UNL     1      24.733  -0.815  53.781  1.00  0.00     0.150 C 
BRANCH  23  24
HETATM   24  C5  UNL     1      23.456  -0.196  53.372  1.00  0.00     0.019 C 
HETATM   25  C4  UNL     1      22.178  -0.039  53.625  1.00  0.00     0.070 C 
HETATM   26 CL1  UNL     1      22.279  -1.058  55.063  1.00  0.00    -0.081 Cl
BRANCH  25  27
HETATM   27  C3  UNL     1      20.788   0.315  53.640  1.00  0.00     0.133 C 
HETATM   28  C2  UNL     1      19.837   0.490  52.752  1.00  0.00     0.013 C 
HETATM   29  C1  UNL     1      19.761   0.381  51.283  1.00  0.00     0.039 C 
HETATM   30  F1  UNL     1      20.960   0.385  54.980  1.00  0.00    -0.205 F 
ENDBRANCH  25  27
ENDBRANCH  23  24
ENDBRANCH  21  23
ENDBRANCH   1  21
BRANCH   5  31
HETATM   31  O1  UNL     1      29.038   3.088  53.023  1.00  0.00    -0.344 OA
HETATM   32  H10 UNL     1      29.740   3.073  52.281  1.00  0.00     0.219 HD
ENDBRANCH   5  31
TORSDOF 12
ENDMDL
MODEL 2
REMARK VINA RESULT:      -8.1      1.354      1.741
REMARK  12 active torsions:
REMARK  status: ('A' for Active; 'I' for Inactive)
REMARK    1  A    between atoms: C3_3  and  C4_5 
REMARK    2  A    between atoms: C5_7  and  C6_8 
REMARK    3  A    between atoms: C6_8  and  N1_9 
REMARK    4  A    between atoms: N1_9  and  C7_10 
REMARK    5  A    between atoms: C9_14  and  O1_15 
REMARK    6  A    between atoms: C10_16  and  C11_17 
REMARK    7  A    between atoms: C12_18  and  C13_19 
REMARK    8  A    between atoms: C12_18  and  C20_28 
REMARK    9  A    between atoms: C13_19  and  C14_20 
REMARK   10  A    between atoms: C14_20  and  C15_21 
REMARK   11  A    between atoms: C15_21  and  N4_22 
REMARK   12  A    between atoms: C20_28  and  O3_29 
ROOT
HETATM    1  C7  UNL     1      26.918  -0.000  53.448  1.00  0.00     0.139 A 
HETATM    2  N2  UNL     1      27.602  -0.404  54.531  1.00  0.00    -0.224 NA
HETATM    3  C8  UNL     1      28.642   0.273  55.040  1.00  0.00     0.238 A 
HETATM    4  N3  UNL     1      29.019   1.427  54.422  1.00  0.00    -0.217 NA
HETATM    5  C9  UNL     1      28.346   1.868  53.319  1.00  0.00     0.177 A 
HETATM    6  C10 UNL     1      27.250   1.155  52.782  1.00  0.00     0.063 A 
ENDROOT
BRANCH   6   7
HETATM    7  C11 UNL     1      26.770   1.814  51.599  1.00  0.00     0.025 C 
HETATM    8  C12 UNL     1      25.721   2.675  51.329  1.00  0.00    -0.055 C 
BRANCH   8   9
HETATM    9  C13 UNL     1      25.939   2.887  49.888  1.00  0.00     0.038 C 
BRANCH   9  10
HETATM   10  C14 UNL     1      26.769   4.015  49.446  1.00  0.00     0.034 C 
BRANCH  10  11
HETATM   11  C15 UNL     1      26.209   5.348  49.216  1.00  0.00     0.273 C 
BRANCH  11  12
HETATM   12  N4  UNL     1      24.971   5.730  49.833  1.00  0.00     0.092 N 
HETATM   13  C16 UNL     1      23.896   5.787  48.922  1.00  0.00     0.298 C 
HETATM   14  C17 UNL     1      22.785   6.770  49.265  1.00  0.00     0.198 C 
HETATM   15  O2  UNL     1      23.244   8.001  49.692  1.00  0.00    -0.388 OA
HETATM   16  C18 UNL     1      23.957   7.705  50.885  1.00  0.00     0.198 C 
HETATM   17  C19 UNL     1      25.220   7.044  50.410  1.00  0.00     0.298 C 
ENDBRANCH  11  12
ENDBRANCH  10  11
ENDBRANCH   9  10
ENDBRANCH   8   9
BRANCH   8  18
HETATM   18  C20 UNL     1      25.022   2.837  52.626  1.00  0.00     0.201 C 
BRANCH  18  19
HETATM   19  O3  UNL     1      23.971   3.704  52.661  1.00  0.00    -0.392 OA
HETATM   20  C21 UNL     1      22.833   3.452  52.015  1.00  0.00     0.201 C 
ENDBRANCH  18  19
ENDBRANCH   8  18
ENDBRANCH   6   7
BRANCH   1  21
HETATM   21  N1  UNL     1      25.804  -0.654  52.854  1.00  0.00    -0.370 N 
HETATM   22  H8  UNL     1      25.704  -0.975  51.893  1.00  0.00     0.161 HD
BRANCH  21  23
HETATM   23  C6  UNL     1      24.743  -0.834  53.824  1.00  0.00     0.150 C 
BRANCH  23  24
HETATM   24  C5  UNL     1      23.490  -0.209  53.353  1.00  0.00     0.019 C 
HETATM   25  C4  UNL     1      22.211  -0.012  53.563  1.00  0.00     0.070 C 
HETATM   26 CL1  UNL     1      22.252  -0.964  55.050  1.00  0.00    -0.081 Cl
BRANCH  25  27
HETATM   27  C3  UNL     1      20.828   0.370  53.526  1.00  0.00     0.133 C 
HETATM   28  C2  UNL     1      19.928   0.607  52.600  1.00  0.00     0.013 C 
HETATM   29  C1  UNL     1      19.925   0.569  51.125  1.00  0.00     0.039 C 
HETATM   30  F1  UNL     1      20.933   0.374  54.874  1.00  0.00    -0.205 F 
ENDBRANCH  25  27
ENDBRANCH  23  24
ENDBRANCH  21  23
ENDBRANCH   1  21
BRANCH   5  31
HETATM   31  O1  UNL     1      28.981   3.065  52.933  1.00  0.00    -0.344 OA
HETATM   32  H10 UNL     1      28.412   3.886  52.718  1.00  0.00     0.219 HD
ENDBRANCH   5  31
TORSDOF 12
ENDMDL
MODEL 3
REMARK VINA RESULT:      -7.7      3.656      6.189
REMARK  12 active torsions:
REMARK  status: ('A' for Active; 'I' for Inactive)
REMARK    1  A    between atoms: C3_3  and  C4_5 
REMARK    2  A    between atoms: C5_7  and  C6_8 
REMARK    3  A    between atoms: C6_8  and  N1_9 
REMARK    4  A    between atoms: N1_9  and  C7_10 
REMARK    5  A    between atoms: C9_14  and  O1_15 
REMARK    6  A    between atoms: C10_16  and  C11_17 
REMARK    7  A    between atoms: C12_18  and  C13_19 
REMARK    8  A    between atoms: C12_18  and  C20_28 
REMARK    9  A    between atoms: C13_19  and  C14_20 
REMARK   10  A    between atoms: C14_20  and  C15_21 
REMARK   11  A    between atoms: C15_21  and  N4_22 
REMARK   12  A    between atoms: C20_28  and  O3_29 
ROOT
HETATM    1  C7  UNL     1      23.329  -0.268  53.452  1.00  0.00     0.139 A 
HETATM    2  N2  UNL     1      23.751  -0.771  54.623  1.00  0.00    -0.224 NA
HETATM    3  C8  UNL     1      22.957  -1.452  55.462  1.00  0.00     0.238 A 
HETATM    4  N3  UNL     1      21.655  -1.637  55.102  1.00  0.00    -0.217 NA
HETATM    5  C9  UNL     1      21.192  -1.139  53.919  1.00  0.00     0.177 A 
HETATM    6  C10 UNL     1      22.029  -0.422  53.035  1.00  0.00     0.063 A 
ENDROOT
BRANCH   6   7
HETATM    7  C11 UNL     1      21.271   0.029  51.900  1.00  0.00     0.025 C 
HETATM    8  C12 UNL     1      20.512   1.154  51.629  1.00  0.00    -0.055 C 
BRANCH   8   9
HETATM    9  C13 UNL     1      20.094   0.845  50.251  1.00  0.00     0.038 C 
BRANCH   9  10
HETATM   10  C14 UNL     1      21.038   1.066  49.148  1.00  0.00     0.034 C 
BRANCH  10  11
HETATM   11  C15 UNL     1      21.225   2.383  48.537  1.00  0.00     0.273 C 
BRANCH  11  12
HETATM   12  N4  UNL     1      22.534   2.965  48.458  1.00  0.00     0.092 N 
HETATM   13  C16 UNL     1      23.339   2.667  49.577  1.00  0.00     0.298 C 
HETATM   14  C17 UNL     1      24.399   3.702  49.929  1.00  0.00     0.198 C 
HETATM   15  O2  UNL     1      23.943   5.005  49.878  1.00  0.00    -0.388 OA
HETATM   16  C18 UNL     1      23.581   5.188  48.516  1.00  0.00     0.198 C 
HETATM   17  C19 UNL     1      22.310   4.401  48.360  1.00  0.00     0.298 C 
ENDBRANCH  11  12
ENDBRANCH  10  11
ENDBRANCH   9  10
ENDBRANCH   8   9
BRANCH   8  18
HETATM   18  C20 UNL     1      20.568   1.956  52.875  1.00  0.00     0.201 C 
BRANCH  18  19
HETATM   19  O3  UNL     1      20.289   3.286  52.770  1.00  0.00    -0.392 OA
HETATM   20  C21 UNL     1      20.914   4.066  51.887  1.00  0.00     0.201 C 
ENDBRANCH  18  19
ENDBRANCH   8  18
ENDBRANCH   6   7
BRANCH   1  21
HETATM   21  N1  UNL     1      24.108   0.456  52.507  1.00  0.00    -0.370 N 
HETATM   22  H8  UNL     1      24.327   0.199  51.547  1.00  0.00     0.161 HD
BRANCH  21  23
HETATM   23  C6  UNL     1      24.598   1.688  53.089  1.00  0.00     0.150 C 
BRANCH  23  24
HETATM   24  C5  UNL     1      25.927   1.487  53.702  1.00  0.00     0.019 C 
HETATM   25  C4  UNL     1      27.229   1.535  53.548  1.00  0.00     0.070 C 
HETATM   26 CL1  UNL     1      27.068   2.085  51.877  1.00  0.00    -0.081 Cl
BRANCH  25  27
HETATM   27  C3  UNL     1      28.657   1.490  53.681  1.00  0.00     0.133 C 
HETATM   28  C2  UNL     1      29.585   0.562  53.705  1.00  0.00     0.013 C 
HETATM   29  C1  UNL     1      29.582  -0.908  53.584  1.00  0.00     0.039 C 
HETATM   30  F1  UNL     1      28.554   2.835  53.779  1.00  0.00    -0.205 F 
ENDBRANCH  25  27
ENDBRANCH  23  24
ENDBRANCH  21  23
ENDBRANCH   1  21
BRANCH   5  31
HETATM   31  O1  UNL     1      19.830  -1.498  53.856  1.00  0.00    -0.344 OA
HETATM   32  H10 UNL     1      19.119  -0.808  54.105  1.00  0.00     0.219 HD
ENDBRANCH   5  31
TORSDOF 12
ENDMDL
MODEL 4
REMARK VINA RESULT:      -7.5      2.716      3.611
REMARK  12 active torsions:
REMARK  status: ('A' for Active; 'I' for Inactive)
REMARK    1  A    between atoms: C3_3  and  C4_5 
REMARK    2  A    between atoms: C5_7  and  C6_8 
REMARK    3  A    between atoms: C6_8  and  N1_9 
REMARK    4  A    between atoms: N1_9  and  C7_10 
REMARK    5  A    between atoms: C9_14  and  O1_15 
REMARK    6  A    between atoms: C10_16  and  C11_17 
REMARK    7  A    between atoms: C12_18  and  C13_19 
REMARK    8  A    between atoms: C12_18  and  C20_28 
REMARK    9  A    between atoms: C13_19  and  C14_20 
REMARK   10  A    between atoms: C14_20  and  C15_21 
REMARK   11  A    between atoms: C15_21  and  N4_22 
REMARK   12  A    between atoms: C20_28  and  O3_29 
ROOT
HETATM    1  C7  UNL     1      27.168   0.093  54.738  1.00  0.00     0.139 A 
HETATM    2  N2  UNL     1      28.341  -0.560  54.781  1.00  0.00    -0.224 NA
HETATM    3  C8  UNL     1      29.464  -0.093  54.217  1.00  0.00     0.238 A 
HETATM    4  N3  UNL     1      29.405   1.104  53.568  1.00  0.00    -0.217 NA
HETATM    5  C9  UNL     1      28.229   1.794  53.505  1.00  0.00     0.177 A 
HETATM    6  C10 UNL     1      27.045   1.303  54.100  1.00  0.00     0.063 A 
ENDROOT
BRANCH   6   7
HETATM    7  C11 UNL     1      25.955   2.200  53.834  1.00  0.00     0.025 C 
HETATM    8  C12 UNL     1      25.150   2.445  52.735  1.00  0.00    -0.055 C 
BRANCH   8   9
HETATM    9  C13 UNL     1      24.281   3.496  53.293  1.00  0.00     0.038 C 
BRANCH   9  10
HETATM   10  C14 UNL     1      23.251   4.104  52.441  1.00  0.00     0.034 C 
BRANCH  10  11
HETATM   11  C15 UNL     1      23.425   5.426  51.836  1.00  0.00     0.273 C 
BRANCH  11  12
HETATM   12  N4  UNL     1      22.761   5.751  50.606  1.00  0.00     0.092 N 
HETATM   13  C16 UNL     1      21.679   6.639  50.782  1.00  0.00     0.298 C 
HETATM   14  C17 UNL     1      20.553   6.525  49.764  1.00  0.00     0.198 C 
HETATM   15  O2  UNL     1      20.189   5.222  49.480  1.00  0.00    -0.388 OA
HETATM   16  C18 UNL     1      21.361   4.657  48.909  1.00  0.00     0.198 C 
HETATM   17  C19 UNL     1      22.294   4.479  50.074  1.00  0.00     0.298 C 
ENDBRANCH  11  12
ENDBRANCH  10  11
ENDBRANCH   9  10
ENDBRANCH   8   9
BRANCH   8  18
HETATM   18  C20 UNL     1      25.657   1.531  51.684  1.00  0.00     0.201 C 
BRANCH  18  19
HETATM   19  O3  UNL     1      26.483   2.066  50.741  1.00  0.00    -0.392 OA
HETATM   20  C21 UNL     1      26.197   3.216  50.131  1.00  0.00     0.201 C 
ENDBRANCH  18  19
ENDBRANCH   8  18
ENDBRANCH   6   7
BRANCH   1  21
HETATM   21  N1  UNL     1      25.939  -0.330  55.317  1.00  0.00    -0.370 N 
HETATM   22  H8  UNL     1      25.629  -0.221  56.280  1.00  0.00     0.161 HD
BRANCH  21  23
HETATM   23  C6  UNL     1      25.107  -0.980  54.325  1.00  0.00     0.150 C 
BRANCH  23  24
HETATM   24  C5  UNL     1      23.680  -0.881  54.691  1.00  0.00     0.019 C 
HETATM   25  C4  UNL     1      22.448  -0.697  54.279  1.00  0.00     0.070 C 
HETATM   26 CL1  UNL     1      22.973  -0.532  52.601  1.00  0.00    -0.081 Cl
BRANCH  25  27
HETATM   27  C3  UNL     1      21.030  -0.531  54.136  1.00  0.00     0.133 C 
HETATM   28  C2  UNL     1      20.220   0.379  53.647  1.00  0.00     0.013 C 
HETATM   29  C1  UNL     1      20.408   1.683  52.982  1.00  0.00     0.039 C 
HETATM   30  F1  UNL     1      20.964  -1.734  54.751  1.00  0.00    -0.205 F 
ENDBRANCH  25  27
ENDBRANCH  23  24
ENDBRANCH  21  23
ENDBRANCH   1  21
BRANCH   5  31
HETATM   31  O1  UNL     1      28.509   2.967  52.774  1.00  0.00    -0.344 OA
HETATM   32  H10 UNL     1      29.473   3.168  52.502  1.00  0.00     0.219 HD
ENDBRANCH   5  31
TORSDOF 12
ENDMDL
MODEL 5
REMARK VINA RESULT:      -7.3      3.147      5.888
REMARK  12 active torsions:
REMARK  status: ('A' for Active; 'I' for Inactive)
REMARK    1  A    between atoms: C3_3  and  C4_5 
REMARK    2  A    between atoms: C5_7  and  C6_8 
REMARK    3  A    between atoms: C6_8  and  N1_9 
REMARK    4  A    between atoms: N1_9  and  C7_10 
REMARK    5  A    between atoms: C9_14  and  O1_15 
REMARK    6  A    between atoms: C10_16  and  C11_17 
REMARK    7  A    between atoms: C12_18  and  C13_19 
REMARK    8  A    between atoms: C12_18  and  C20_28 
REMARK    9  A    between atoms: C13_19  and  C14_20 
REMARK   10  A    between atoms: C14_20  and  C15_21 
REMARK   11  A    between atoms: C15_21  and  N4_22 
REMARK   12  A    between atoms: C20_28  and  O3_29 
ROOT
HETATM    1  C7  UNL     1      23.447   0.258  53.450  1.00  0.00     0.139 A 
HETATM    2  N2  UNL     1      23.899  -0.746  54.218  1.00  0.00    -0.224 NA
HETATM    3  C8  UNL     1      23.113  -1.454  55.043  1.00  0.00     0.238 A 
HETATM    4  N3  UNL     1      21.791  -1.130  55.101  1.00  0.00    -0.217 NA
HETATM    5  C9  UNL     1      21.297  -0.114  54.334  1.00  0.00     0.177 A 
HETATM    6  C10 UNL     1      22.124   0.630  53.464  1.00  0.00     0.063 A 
ENDROOT
BRANCH   6   7
HETATM    7  C11 UNL     1      21.358   1.665  52.826  1.00  0.00     0.025 C 
HETATM    8  C12 UNL     1      20.752   1.796  51.589  1.00  0.00    -0.055 C 
BRANCH   8   9
HETATM    9  C13 UNL     1      20.171   3.141  51.739  1.00  0.00     0.038 C 
BRANCH   9  10
HETATM   10  C14 UNL     1      21.020   4.319  51.522  1.00  0.00     0.034 C 
BRANCH  10  11
HETATM   11  C15 UNL     1      22.066   4.343  50.497  1.00  0.00     0.273 C 
BRANCH  11  12
HETATM   12  N4  UNL     1      23.420   4.659  50.853  1.00  0.00     0.092 N 
HETATM   13  C16 UNL     1      23.732   6.024  50.676  1.00  0.00     0.298 C 
HETATM   14  C17 UNL     1      25.189   6.337  50.366  1.00  0.00     0.198 C 
HETATM   15  O2  UNL     1      25.755   5.491  49.432  1.00  0.00    -0.388 OA
HETATM   16  C18 UNL     1      25.699   4.213  50.050  1.00  0.00     0.198 C 
HETATM   17  C19 UNL     1      24.247   3.831  49.986  1.00  0.00     0.298 C 
ENDBRANCH  11  12
ENDBRANCH  10  11
ENDBRANCH   9  10
ENDBRANCH   8   9
BRANCH   8  18
HETATM   18  C20 UNL     1      21.069   0.535  50.877  1.00  0.00     0.201 C 
BRANCH  18  19
HETATM   19  O3  UNL     1      21.592   0.644  49.623  1.00  0.00    -0.392 OA
HETATM   20  C21 UNL     1      21.029   1.417  48.694  1.00  0.00     0.201 C 
ENDBRANCH  18  19
ENDBRANCH   8  18
ENDBRANCH   6   7
BRANCH   1  21
HETATM   21  N1  UNL     1      24.211   1.048  52.547  1.00  0.00    -0.370 N 
HETATM   22  H8  UNL     1      24.310   0.931  51.541  1.00  0.00     0.161 HD
BRANCH  21  23
HETATM   23  C6  UNL     1      24.888   2.116  53.253  1.00  0.00     0.150 C 
BRANCH  23  24
HETATM   24  C5  UNL     1      26.346   2.057  53.022  1.00  0.00     0.019 C 
HETATM   25  C4  UNL     1      27.512   1.633  53.448  1.00  0.00     0.070 C 
HETATM   26 CL1  UNL     1      26.779   0.857  54.856  1.00  0.00    -0.081 Cl
BRANCH  25  27
HETATM   27  C3  UNL     1      28.896   1.313  53.654  1.00  0.00     0.133 C 
HETATM   28  C2  UNL     1      29.635   0.228  53.655  1.00  0.00     0.013 C 
HETATM   29  C1  UNL     1      29.371  -1.205  53.419  1.00  0.00     0.039 C 
HETATM   30  F1  UNL     1      29.034   2.644  53.850  1.00  0.00    -0.205 F 
ENDBRANCH  25  27
ENDBRANCH  23  24
ENDBRANCH  21  23
ENDBRANCH   1  21
BRANCH   5  31
HETATM   31  O1  UNL     1      19.920  -0.042  54.630  1.00  0.00    -0.344 OA
HETATM   32  H10 UNL     1      19.447  -0.863  55.011  1.00  0.00     0.219 HD
ENDBRANCH   5  31
TORSDOF 12
ENDMDL
MODEL 6
REMARK VINA RESULT:      -7.2      2.443      3.632
REMARK  12 active torsions:
REMARK  status: ('A' for Active; 'I' for Inactive)
REMARK    1  A    between atoms: C3_3  and  C4_5 
REMARK    2  A    between atoms: C5_7  and  C6_8 
REMARK    3  A    between atoms: C6_8  and  N1_9 
REMARK    4  A    between atoms: N1_9  and  C7_10 
REMARK    5  A    between atoms: C9_14  and  O1_15 
REMARK    6  A    between atoms: C10_16  and  C11_17 
REMARK    7  A    between atoms: C12_18  and  C13_19 
REMARK    8  A    between atoms: C12_18  and  C20_28 
REMARK    9  A    between atoms: C13_19  and  C14_20 
REMARK   10  A    between atoms: C14_20  and  C15_21 
REMARK   11  A    between atoms: C15_21  and  N4_22 
REMARK   12  A    between atoms: C20_28  and  O3_29 
ROOT
HETATM    1  C7  UNL     1      26.139   0.090  53.412  1.00  0.00     0.139 A 
HETATM    2  N2  UNL     1      26.866  -0.380  54.439  1.00  0.00    -0.224 NA
HETATM    3  C8  UNL     1      27.997   0.200  54.867  1.00  0.00     0.238 A 
HETATM    4  N3  UNL     1      28.425   1.321  54.222  1.00  0.00    -0.217 NA
HETATM    5  C9  UNL     1      27.711   1.826  53.174  1.00  0.00     0.177 A 
HETATM    6  C10 UNL     1      26.519   1.216  52.723  1.00  0.00     0.063 A 
ENDROOT
BRANCH   6   7
HETATM    7  C11 UNL     1      26.010   1.922  51.580  1.00  0.00     0.025 C 
HETATM    8  C12 UNL     1      25.021   2.871  51.391  1.00  0.00    -0.055 C 
BRANCH   8   9
HETATM    9  C13 UNL     1      25.147   3.075  49.938  1.00  0.00     0.038 C 
BRANCH   9  10
HETATM   10  C14 UNL     1      24.764   4.369  49.358  1.00  0.00     0.034 C 
BRANCH  10  11
HETATM   11  C15 UNL     1      23.392   4.656  48.937  1.00  0.00     0.273 C 
BRANCH  11  12
HETATM   12  N4  UNL     1      22.683   3.730  48.100  1.00  0.00     0.092 N 
HETATM   13  C16 UNL     1      22.211   4.317  46.907  1.00  0.00     0.298 C 
HETATM   14  C17 UNL     1      20.954   3.696  46.313  1.00  0.00     0.198 C 
HETATM   15  O2  UNL     1      19.974   3.421  47.248  1.00  0.00    -0.388 OA
HETATM   16  C18 UNL     1      20.578   2.463  48.106  1.00  0.00     0.198 C 
HETATM   17  C19 UNL     1      21.570   3.256  48.910  1.00  0.00     0.298 C 
ENDBRANCH  11  12
ENDBRANCH  10  11
ENDBRANCH   9  10
ENDBRANCH   8   9
BRANCH   8  18
HETATM   18  C20 UNL     1      24.438   3.083  52.738  1.00  0.00     0.201 C 
BRANCH  18  19
HETATM   19  O3  UNL     1      23.708   4.219  52.927  1.00  0.00    -0.392 OA
HETATM   20  C21 UNL     1      22.471   4.344  52.449  1.00  0.00     0.201 C 
ENDBRANCH  18  19
ENDBRANCH   8  18
ENDBRANCH   6   7
BRANCH   1  21
HETATM   21  N1  UNL     1      24.930  -0.461  52.905  1.00  0.00    -0.370 N 
HETATM   22  H8  UNL     1      24.744  -0.810  51.967  1.00  0.00     0.161 HD
BRANCH  21  23
HETATM   23  C6  UNL     1      23.909  -0.478  53.933  1.00  0.00     0.150 C 
BRANCH  23  24
HETATM   24  C5  UNL     1      22.583  -0.168  53.360  1.00  0.00     0.019 C 
HETATM   25  C4  UNL     1      21.304  -0.457  53.325  1.00  0.00     0.070 C 
HETATM   26 CL1  UNL     1      21.505  -1.748  54.513  1.00  0.00    -0.081 Cl
BRANCH  25  27
HETATM   27  C3  UNL     1      19.893  -0.537  53.076  1.00  0.00     0.133 C 
HETATM   28  C2  UNL     1      19.035   0.026  52.256  1.00  0.00     0.013 C 
HETATM   29  C1  UNL     1      19.139   1.017  51.169  1.00  0.00     0.039 C 
HETATM   30  F1  UNL     1      19.904  -1.438  54.084  1.00  0.00    -0.205 F 
ENDBRANCH  25  27
ENDBRANCH  23  24
ENDBRANCH  21  23
ENDBRANCH   1  21
BRANCH   5  31
HETATM   31  O1  UNL     1      28.418   2.967  52.740  1.00  0.00    -0.344 OA
HETATM   32  H10 UNL     1      29.150   2.863  52.036  1.00  0.00     0.219 HD
ENDBRANCH   5  31
TORSDOF 12
ENDMDL
MODEL 7
REMARK VINA RESULT:      -7.1      3.663      5.948
REMARK  12 active torsions:
REMARK  status: ('A' for Active; 'I' for Inactive)
REMARK    1  A    between atoms: C3_3  and  C4_5 
REMARK    2  A    between atoms: C5_7  and  C6_8 
REMARK    3  A    between atoms: C6_8  and  N1_9 
REMARK    4  A    between atoms: N1_9  and  C7_10 
REMARK    5  A    between atoms: C9_14  and  O1_15 
REMARK    6  A    between atoms: C10_16  and  C11_17 
REMARK    7  A    between atoms: C12_18  and  C13_19 
REMARK    8  A    between atoms: C12_18  and  C20_28 
REMARK    9  A    between atoms: C13_19  and  C14_20 
REMARK   10  A    between atoms: C14_20  and  C15_21 
REMARK   11  A    between atoms: C15_21  and  N4_22 
REMARK   12  A    between atoms: C20_28  and  O3_29 
ROOT
HETATM    1  C7  UNL     1      23.491   4.284  51.436  1.00  0.00     0.139 A 
HETATM    2  N2  UNL     1      22.174   4.342  51.697  1.00  0.00    -0.224 NA
HETATM    3  C8  UNL     1      21.248   4.589  50.760  1.00  0.00     0.238 A 
HETATM    4  N3  UNL     1      21.670   4.792  49.480  1.00  0.00    -0.217 NA
HETATM    5  C9  UNL     1      23.001   4.740  49.179  1.00  0.00     0.177 A 
HETATM    6  C10 UNL     1      23.977   4.479  50.166  1.00  0.00     0.063 A 
ENDROOT
BRANCH   6   7
HETATM    7  C11 UNL     1      25.290   4.537  49.584  1.00  0.00     0.025 C 
HETATM    8  C12 UNL     1      26.236   5.534  49.430  1.00  0.00    -0.055 C 
BRANCH   8   9
HETATM    9  C13 UNL     1      27.295   4.768  48.749  1.00  0.00     0.038 C 
BRANCH   9  10
HETATM   10  C14 UNL     1      28.544   5.445  48.377  1.00  0.00     0.034 C 
BRANCH  10  11
HETATM   11  C15 UNL     1      28.553   6.713  47.646  1.00  0.00     0.273 C 
BRANCH  11  12
HETATM   12  N4  UNL     1      29.679   7.597  47.744  1.00  0.00     0.092 N 
HETATM   13  C16 UNL     1      30.898   6.916  47.945  1.00  0.00     0.298 C 
HETATM   14  C17 UNL     1      31.971   7.686  48.704  1.00  0.00     0.198 C 
HETATM   15  O2  UNL     1      31.495   8.357  49.813  1.00  0.00    -0.388 OA
HETATM   16  C18 UNL     1      30.574   9.296  49.276  1.00  0.00     0.198 C 
HETATM   17  C19 UNL     1      29.387   8.466  48.875  1.00  0.00     0.298 C 
ENDBRANCH  11  12
ENDBRANCH  10  11
ENDBRANCH   9  10
ENDBRANCH   8   9
BRANCH   8  18
HETATM   18  C20 UNL     1      25.610   6.744  50.015  1.00  0.00     0.201 C 
BRANCH  18  19
HETATM   19  O3  UNL     1      25.615   7.875  49.256  1.00  0.00    -0.392 OA
HETATM   20  C21 UNL     1      24.855   7.992  48.167  1.00  0.00     0.201 C 
ENDBRANCH  18  19
ENDBRANCH   8  18
ENDBRANCH   6   7
BRANCH   1  21
HETATM   21  N1  UNL     1      24.531   4.020  52.369  1.00  0.00    -0.370 N 
HETATM   22  H8  UNL     1      25.224   4.670  52.737  1.00  0.00     0.161 HD
BRANCH  21  23
HETATM   23  C6  UNL     1      24.508   2.631  52.778  1.00  0.00     0.150 C 
BRANCH  23  24
HETATM   24  C5  UNL     1      25.747   2.275  53.498  1.00  0.00     0.019 C 
HETATM   25  C4  UNL     1      27.012   1.940  53.413  1.00  0.00     0.070 C 
HETATM   26 CL1  UNL     1      26.973   2.021  51.649  1.00  0.00    -0.081 Cl
BRANCH  25  27
HETATM   27  C3  UNL     1      28.380   1.568  53.636  1.00  0.00     0.133 C 
HETATM   28  C2  UNL     1      29.081   0.457  53.629  1.00  0.00     0.013 C 
HETATM   29  C1  UNL     1      28.771  -0.960  53.362  1.00  0.00     0.039 C 
HETATM   30  F1  UNL     1      28.561   2.890  53.860  1.00  0.00    -0.205 F 
ENDBRANCH  25  27
ENDBRANCH  23  24
ENDBRANCH  21  23
ENDBRANCH   1  21
BRANCH   5  31
HETATM   31  O1  UNL     1      23.093   4.991  47.795  1.00  0.00    -0.344 OA
HETATM   32  H10 UNL     1      22.250   5.243  47.275  1.00  0.00     0.219 HD
ENDBRANCH   5  31
TORSDOF 12
ENDMDL
MODEL 8
REMARK VINA RESULT:      -7.1      3.483      6.781
REMARK  12 active torsions:
REMARK  status: ('A' for Active; 'I' for Inactive)
REMARK    1  A    between atoms: C3_3  and  C4_5 
REMARK    2  A    between atoms: C5_7  and  C6_8 
REMARK    3  A    between atoms: C6_8  and  N1_9 
REMARK    4  A    between atoms: N1_9  and  C7_10 
REMARK    5  A    between atoms: C9_14  and  O1_15 
REMARK    6  A    between atoms: C10_16  and  C11_17 
REMARK    7  A    between atoms: C12_18  and  C13_19 
REMARK    8  A    between atoms: C12_18  and  C20_28 
REMARK    9  A    between atoms: C13_19  and  C14_20 
REMARK   10  A    between atoms: C14_20  and  C15_21 
REMARK   11  A    between atoms: C15_21  and  N4_22 
REMARK   12  A    between atoms: C20_28  and  O3_29 
ROOT
HETATM    1  C7  UNL     1      26.736   1.940  52.106  1.00  0.00     0.139 A 
HETATM    2  N2  UNL     1      27.968   2.372  52.425  1.00  0.00    -0.224 NA
HETATM    3  C8  UNL     1      28.592   2.040  53.564  1.00  0.00     0.238 A 
HETATM    4  N3  UNL     1      27.938   1.224  54.438  1.00  0.00    -0.217 NA
HETATM    5  C9  UNL     1      26.686   0.767  54.147  1.00  0.00     0.177 A 
HETATM    6  C10 UNL     1      26.028   1.116  52.946  1.00  0.00     0.063 A 
ENDROOT
BRANCH   6   7
HETATM    7  C11 UNL     1      24.711   0.542  52.926  1.00  0.00     0.025 C 
HETATM    8  C12 UNL     1      23.429   1.059  52.999  1.00  0.00    -0.055 C 
BRANCH   8   9
HETATM    9  C13 UNL     1      22.652  -0.188  52.894  1.00  0.00     0.038 C 
BRANCH   9  10
HETATM   10  C14 UNL     1      21.404  -0.193  52.121  1.00  0.00     0.034 C 
BRANCH  10  11
HETATM   11  C15 UNL     1      21.288   0.484  50.828  1.00  0.00     0.273 C 
BRANCH  11  12
HETATM   12  N4  UNL     1      20.219   1.411  50.590  1.00  0.00     0.092 N 
HETATM   13  C16 UNL     1      20.510   2.336  49.565  1.00  0.00     0.298 C 
HETATM   14  C17 UNL     1      19.824   3.691  49.677  1.00  0.00     0.198 C 
HETATM   15  O2  UNL     1      19.843   4.220  50.953  1.00  0.00    -0.388 OA
HETATM   16  C18 UNL     1      19.102   3.284  51.724  1.00  0.00     0.198 C 
HETATM   17  C19 UNL     1      20.020   2.101  51.857  1.00  0.00     0.298 C 
ENDBRANCH  11  12
ENDBRANCH  10  11
ENDBRANCH   9  10
ENDBRANCH   8   9
BRANCH   8  18
HETATM   18  C20 UNL     1      23.620   2.521  53.154  1.00  0.00     0.201 C 
BRANCH  18  19
HETATM   19  O3  UNL     1      23.339   3.302  52.072  1.00  0.00    -0.392 OA
HETATM   20  C21 UNL     1      23.111   4.610  52.193  1.00  0.00     0.201 C 
ENDBRANCH  18  19
ENDBRANCH   8  18
ENDBRANCH   6   7
BRANCH   1  21
HETATM   21  N1  UNL     1      26.012   2.239  50.919  1.00  0.00    -0.370 N 
HETATM   22  H8  UNL     1      25.103   1.881  50.632  1.00  0.00     0.161 HD
BRANCH  21  23
HETATM   23  C6  UNL     1      26.749   3.176  50.096  1.00  0.00     0.150 C 
BRANCH  23  24
HETATM   24  C5  UNL     1      25.979   4.420  49.898  1.00  0.00     0.019 C 
HETATM   25  C4  UNL     1      25.923   5.603  49.333  1.00  0.00     0.070 C 
HETATM   26 CL1  UNL     1      27.495   5.371  48.562  1.00  0.00    -0.081 Cl
BRANCH  25  27
HETATM   27  C3  UNL     1      25.582   6.914  48.862  1.00  0.00     0.133 C 
HETATM   28  C2  UNL     1      25.935   8.149  49.135  1.00  0.00     0.013 C 
HETATM   29  C1  UNL     1      26.890   8.769  50.073  1.00  0.00     0.039 C 
HETATM   30  F1  UNL     1      24.738   6.251  48.039  1.00  0.00    -0.205 F 
ENDBRANCH  25  27
ENDBRANCH  23  24
ENDBRANCH  21  23
ENDBRANCH   1  21
BRANCH   5  31
HETATM   31  O1  UNL     1      26.304  -0.036  55.241  1.00  0.00    -0.344 OA
HETATM   32  H10 UNL     1      27.017  -0.357  55.899  1.00  0.00     0.219 HD
ENDBRANCH   5  31
TORSDOF 12
ENDMDL
MODEL 9
REMARK VINA RESULT:      -6.9      3.297      7.618
REMARK  12 active torsions:
REMARK  status: ('A' for Active; 'I' for Inactive)
REMARK    1  A    between atoms: C3_3  and  C4_5 
REMARK    2  A    between atoms: C5_7  and  C6_8 
REMARK    3  A    between atoms: C6_8  and  N1_9 
REMARK    4  A    between atoms: N1_9  and  C7_10 
REMARK    5  A    between atoms: C9_14  and  O1_15 
REMARK    6  A    between atoms: C10_16  and  C11_17 
REMARK    7  A    between atoms: C12_18  and  C13_19 
REMARK    8  A    between atoms: C12_18  and  C20_28 
REMARK    9  A    between atoms: C13_19  and  C14_20 
REMARK   10  A    between atoms: C14_20  and  C15_21 
REMARK   11  A    between atoms: C15_21  and  N4_22 
REMARK   12  A    between atoms: C20_28  and  O3_29 
ROOT
HETATM    1  C7  UNL     1      24.877   4.426  50.520  1.00  0.00     0.139 A 
HETATM    2  N2  UNL     1      25.757   5.272  49.961  1.00  0.00    -0.224 NA
HETATM    3  C8  UNL     1      25.574   6.600  49.912  1.00  0.00     0.238 A 
HETATM    4  N3  UNL     1      24.434   7.109  50.458  1.00  0.00    -0.217 NA
HETATM    5  C9  UNL     1      23.518   6.278  51.035  1.00  0.00     0.177 A 
HETATM    6  C10 UNL     1      23.711   4.880  51.088  1.00  0.00     0.063 A 
ENDROOT
BRANCH   6   7
HETATM    7  C11 UNL     1      22.572   4.251  51.698  1.00  0.00     0.025 C 
HETATM    8  C12 UNL     1      21.392   3.710  51.216  1.00  0.00    -0.055 C 
BRANCH   8   9
HETATM    9  C13 UNL     1      20.787   3.267  52.484  1.00  0.00     0.038 C 
BRANCH   9  10
HETATM   10  C14 UNL     1      20.365   1.868  52.628  1.00  0.00     0.034 C 
BRANCH  10  11
HETATM   11  C15 UNL     1      20.933   0.797  51.807  1.00  0.00     0.273 C 
BRANCH  11  12
HETATM   12  N4  UNL     1      21.635  -0.292  52.422  1.00  0.00     0.092 N 
HETATM   13  C16 UNL     1      20.974  -0.801  53.560  1.00  0.00     0.298 C 
HETATM   14  C17 UNL     1      21.867  -1.426  54.623  1.00  0.00     0.198 C 
HETATM   15  O2  UNL     1      23.004  -0.691  54.898  1.00  0.00    -0.388 OA
HETATM   16  C18 UNL     1      23.716  -0.689  53.668  1.00  0.00     0.198 C 
HETATM   17  C19 UNL     1      22.937   0.248  52.789  1.00  0.00     0.298 C 
ENDBRANCH  11  12
ENDBRANCH  10  11
ENDBRANCH   9  10
ENDBRANCH   8   9
BRANCH   8  18
HETATM   18  C20 UNL     1      21.451   3.921  49.750  1.00  0.00     0.201 C 
BRANCH  18  19
HETATM   19  O3  UNL     1      20.279   3.820  49.061  1.00  0.00    -0.392 OA
HETATM   20  C21 UNL     1      19.660   2.651  48.898  1.00  0.00     0.201 C 
ENDBRANCH  18  19
ENDBRANCH   8  18
ENDBRANCH   6   7
BRANCH   1  21
HETATM   21  N1  UNL     1      25.002   3.013  50.619  1.00  0.00    -0.370 N 
HETATM   22  H8  UNL     1      24.271   2.310  50.524  1.00  0.00     0.161 HD
BRANCH  21  23
HETATM   23  C6  UNL     1      26.375   2.641  50.888  1.00  0.00     0.150 C 
BRANCH  23  24
HETATM   24  C5  UNL     1      26.443   1.617  51.951  1.00  0.00     0.019 C 
HETATM   25  C4  UNL     1      27.063   1.181  53.022  1.00  0.00     0.070 C 
HETATM   26 CL1  UNL     1      28.224   2.511  52.960  1.00  0.00    -0.081 Cl
BRANCH  25  27
HETATM   27  C3  UNL     1      27.520   0.477  54.185  1.00  0.00     0.133 C 
HETATM   28  C2  UNL     1      28.549  -0.274  54.503  1.00  0.00     0.013 C 
HETATM   29  C1  UNL     1      29.754  -0.737  53.788  1.00  0.00     0.039 C 
HETATM   30  F1  UNL     1      26.389   0.953  54.752  1.00  0.00    -0.205 F 
ENDBRANCH  25  27
ENDBRANCH  23  24
ENDBRANCH  21  23
ENDBRANCH   1  21
BRANCH   5  31
HETATM   31  O1  UNL     1      22.476   7.111  51.491  1.00  0.00    -0.344 OA
HETATM   32  H10 UNL     1      21.731   6.712  52.065  1.00  0.00     0.219 HD
ENDBRANCH   5  31
TORSDOF 12
ENDMDL
