MODEL 1
REMARK VINA RESULT:      -6.9      0.000      0.000
REMARK  6 active torsions:
REMARK  status: ('A' for Active; 'I' for Inactive)
REMARK    1  A    between atoms: C2_2  and  C3_3 
REMARK    2  A    between atoms: C5_6  and  C6_7 
REMARK    3  A    between atoms: C6_7  and  O2_8 
REMARK    4  A    between atoms: C8_10  and  O3_11 
REMARK    5  A    between atoms: C11_14  and  N1_15 
REMARK    6  A    between atoms: N1_15  and  C12_16 
ROOT
HETATM    1  C3  UNL     1      22.390   0.037  53.630  1.00  0.00    -0.048 C 
HETATM    2  C4  UNL     1      22.903   0.475  52.527  1.00  0.00     0.185 C 
HETATM    3  O1  UNL     1      23.267   1.024  51.338  1.00  0.00    -0.365 OA
HETATM    4  C5  UNL     1      23.359   2.442  51.159  1.00  0.00     0.202 C 
HETATM    5  C8  UNL     1      24.490   3.005  51.900  1.00  0.00     0.080 C 
HETATM    6  C10 UNL     1      25.588   2.836  52.578  1.00  0.00     0.085 C 
HETATM    7  C11 UNL     1      26.576   1.933  53.136  1.00  0.00     0.133 C 
HETATM    8  N2  UNL     1      26.992   0.789  53.255  1.00  0.00    -0.224 NA
HETATM    9  C13 UNL     1      26.819  -0.512  52.934  1.00  0.00     0.234 C 
HETATM   10  N3  UNL     1      25.751  -1.163  52.965  1.00  0.00    -0.254 NA
HETATM   11  C14 UNL     1      24.463  -0.769  53.327  1.00  0.00     0.118 C 
HETATM   12  C15 UNL     1      23.458  -0.794  54.167  1.00  0.00     0.025 C 
ENDROOT
BRANCH   7  13
HETATM   13  N1  UNL     1      27.605   2.658  53.874  1.00  0.00    -0.319 N 
HETATM   14  H17 UNL     1      27.427   3.472  54.556  1.00  0.00     0.169 HD
BRANCH  13  15
HETATM   15  C12 UNL     1      29.008   2.442  53.832  1.00  0.00     0.354 C 
HETATM   16  O4  UNL     1      29.551   2.312  54.948  1.00  0.00    -0.283 OA
ENDBRANCH  13  15
ENDBRANCH   7  13
BRANCH   5  17
HETATM   17  O3  UNL     1      24.046   4.342  51.687  1.00  0.00    -0.357 OA
HETATM   18  C9  UNL     1      23.262   4.894  52.718  1.00  0.00     0.209 C 
ENDBRANCH   5  17
BRANCH   4  19
HETATM   19  C6  UNL     1      23.419   2.755  49.672  1.00  0.00     0.205 C 
BRANCH  19  20
HETATM   20  O2  UNL     1      22.457   2.014  49.013  1.00  0.00    -0.393 OA
HETATM   21  C7  UNL     1      22.416   2.165  47.650  1.00  0.00     0.201 C 
ENDBRANCH  19  20
ENDBRANCH   4  19
BRANCH   1  22
HETATM   22  C2  UNL     1      21.372  -0.176  54.705  1.00  0.00     0.032 C 
HETATM   23  C1  UNL     1      20.472  -1.297  54.164  1.00  0.00     0.010 C 
ENDBRANCH   1  22
TORSDOF 6
ENDMDL
MODEL 2
REMARK VINA RESULT:      -5.9      3.747      5.167
REMARK  6 active torsions:
REMARK  status: ('A' for Active; 'I' for Inactive)
REMARK    1  A    between atoms: C2_2  and  C3_3 
REMARK    2  A    between atoms: C5_6  and  C6_7 
REMARK    3  A    between atoms: C6_7  and  O2_8 
REMARK    4  A    between atoms: C8_10  and  O3_11 
REMARK    5  A    between atoms: C11_14  and  N1_15 
REMARK    6  A    between atoms: N1_15  and  C12_16 
ROOT
HETATM    1  C3  UNL     1      25.177   2.186  51.446  1.00  0.00    -0.048 C 
HETATM    2  C4  UNL     1      24.482   2.735  50.504  1.00  0.00     0.185 C 
HETATM    3  O1  UNL     1      23.593   3.227  49.600  1.00  0.00    -0.365 OA
HETATM    4  C5  UNL     1      22.564   4.148  49.978  1.00  0.00     0.202 C 
HETATM    5  C8  UNL     1      23.117   5.459  50.325  1.00  0.00     0.080 C 
HETATM    6  C10 UNL     1      24.119   6.289  50.344  1.00  0.00     0.085 C 
HETATM    7  C11 UNL     1      25.504   6.571  50.019  1.00  0.00     0.133 C 
HETATM    8  N2  UNL     1      26.544   6.208  49.486  1.00  0.00    -0.224 NA
HETATM    9  C13 UNL     1      27.170   5.241  48.782  1.00  0.00     0.234 C 
HETATM   10  N3  UNL     1      27.148   4.009  49.002  1.00  0.00    -0.254 NA
HETATM   11  C14 UNL     1      26.498   3.282  49.999  1.00  0.00     0.118 C 
HETATM   12  C15 UNL     1      26.537   2.572  51.100  1.00  0.00     0.025 C 
ENDROOT
BRANCH   7  13
HETATM   13  N1  UNL     1      25.898   7.901  50.472  1.00  0.00    -0.319 N 
HETATM   14  H17 UNL     1      25.454   8.439  51.291  1.00  0.00     0.169 HD
BRANCH  13  15
HETATM   15  C12 UNL     1      26.915   8.729  49.926  1.00  0.00     0.354 C 
HETATM   16  O4  UNL     1      27.223   9.712  50.630  1.00  0.00    -0.283 OA
ENDBRANCH  13  15
ENDBRANCH   7  13
BRANCH   5  17
HETATM   17  O3  UNL     1      21.879   5.908  50.871  1.00  0.00    -0.357 OA
HETATM   18  C9  UNL     1      21.640   7.292  50.777  1.00  0.00     0.209 C 
ENDBRANCH   5  17
BRANCH   4  19
HETATM   19  C6  UNL     1      21.528   4.224  48.867  1.00  0.00     0.205 C 
BRANCH  19  20
HETATM   20  O2  UNL     1      22.134   4.682  47.713  1.00  0.00    -0.393 OA
HETATM   21  C7  UNL     1      21.873   3.961  46.575  1.00  0.00     0.201 C 
ENDBRANCH  19  20
ENDBRANCH   4  19
BRANCH   1  22
HETATM   22  C2  UNL     1      25.472   1.377  52.668  1.00  0.00     0.032 C 
HETATM   23  C1  UNL     1      26.282   0.179  52.148  1.00  0.00     0.010 C 
ENDBRANCH   1  22
TORSDOF 6
ENDMDL
MODEL 3
REMARK VINA RESULT:      -5.9      2.512      3.407
REMARK  6 active torsions:
REMARK  status: ('A' for Active; 'I' for Inactive)
REMARK    1  A    between atoms: C2_2  and  C3_3 
REMARK    2  A    between atoms: C5_6  and  C6_7 
REMARK    3  A    between atoms: C6_7  and  O2_8 
REMARK    4  A    between atoms: C8_10  and  O3_11 
REMARK    5  A    between atoms: C11_14  and  N1_15 
REMARK    6  A    between atoms: N1_15  and  C12_16 
ROOT
HETATM    1  C3  UNL     1      21.991  -0.055  53.372  1.00  0.00    -0.048 C 
HETATM    2  C4  UNL     1      21.966   0.320  52.135  1.00  0.00     0.185 C 
HETATM    3  O1  UNL     1      21.746   0.662  50.837  1.00  0.00    -0.365 OA
HETATM    4  C5  UNL     1      20.857   1.726  50.478  1.00  0.00     0.202 C 
HETATM    5  C8  UNL     1      21.401   3.032  50.855  1.00  0.00     0.080 C 
HETATM    6  C10 UNL     1      22.399   3.761  51.264  1.00  0.00     0.085 C 
HETATM    7  C11 UNL     1      23.789   3.848  51.668  1.00  0.00     0.133 C 
HETATM    8  N2  UNL     1      24.868   3.290  51.816  1.00  0.00    -0.224 NA
HETATM    9  C13 UNL     1      25.567   2.140  51.700  1.00  0.00     0.234 C 
HETATM   10  N3  UNL     1      25.209   0.997  52.062  1.00  0.00    -0.254 NA
HETATM   11  C14 UNL     1      24.031   0.572  52.675  1.00  0.00     0.118 C 
HETATM   12  C15 UNL     1      23.390   0.131  53.729  1.00  0.00     0.025 C 
ENDROOT
BRANCH   7  13
HETATM   13  N1  UNL     1      24.150   5.210  52.049  1.00  0.00    -0.319 N 
HETATM   14  H17 UNL     1      24.521   5.511  53.013  1.00  0.00     0.169 HD
BRANCH  13  15
HETATM   15  C12 UNL     1      24.074   6.377  51.243  1.00  0.00     0.354 C 
HETATM   16  O4  UNL     1      25.116   6.645  50.612  1.00  0.00    -0.283 OA
ENDBRANCH  13  15
ENDBRANCH   7  13
BRANCH   5  17
HETATM   17  O3  UNL     1      20.164   3.693  50.601  1.00  0.00    -0.357 OA
HETATM   18  C9  UNL     1      20.249   5.080  50.383  1.00  0.00     0.209 C 
ENDBRANCH   5  17
BRANCH   4  19
HETATM   19  C6  UNL     1      20.537   1.630  48.994  1.00  0.00     0.205 C 
BRANCH  19  20
HETATM   20  O2  UNL     1      21.633   1.116  48.327  1.00  0.00    -0.393 OA
HETATM   21  C7  UNL     1      22.375   2.022  47.610  1.00  0.00     0.201 C 
ENDBRANCH  19  20
ENDBRANCH   4  19
BRANCH   1  22
HETATM   22  C2  UNL     1      21.490  -0.585  54.677  1.00  0.00     0.032 C 
HETATM   23  C1  UNL     1      22.663  -1.407  55.233  1.00  0.00     0.010 C 
ENDBRANCH   1  22
TORSDOF 6
ENDMDL
MODEL 4
REMARK VINA RESULT:      -5.8      2.378      5.236
REMARK  6 active torsions:
REMARK  status: ('A' for Active; 'I' for Inactive)
REMARK    1  A    between atoms: C2_2  and  C3_3 
REMARK    2  A    between atoms: C5_6  and  C6_7 
REMARK    3  A    between atoms: C6_7  and  O2_8 
REMARK    4  A    between atoms: C8_10  and  O3_11 
REMARK    5  A    between atoms: C11_14  and  N1_15 
REMARK    6  A    between atoms: N1_15  and  C12_16 
ROOT
HETATM    1  C3  UNL     1      25.950   3.125  50.469  1.00  0.00    -0.048 C 
HETATM    2  C4  UNL     1      24.997   3.468  51.272  1.00  0.00     0.185 C 
HETATM    3  O1  UNL     1      23.928   3.943  51.966  1.00  0.00    -0.365 OA
HETATM    4  C5  UNL     1      22.582   3.655  51.569  1.00  0.00     0.202 C 
HETATM    5  C8  UNL     1      22.247   2.246  51.785  1.00  0.00     0.080 C 
HETATM    6  C10 UNL     1      22.535   1.087  52.302  1.00  0.00     0.085 C 
HETATM    7  C11 UNL     1      23.434   0.269  53.093  1.00  0.00     0.133 C 
HETATM    8  N2  UNL     1      24.436   0.199  53.791  1.00  0.00    -0.224 NA
HETATM    9  C13 UNL     1      25.468   0.867  54.352  1.00  0.00     0.234 C 
HETATM   10  N3  UNL     1      26.216   1.705  53.800  1.00  0.00    -0.254 NA
HETATM   11  C14 UNL     1      26.219   2.189  52.492  1.00  0.00     0.118 C 
HETATM   12  C15 UNL     1      26.764   2.251  51.302  1.00  0.00     0.025 C 
ENDROOT
BRANCH   7  13
HETATM   13  N1  UNL     1      22.970  -1.112  53.171  1.00  0.00    -0.319 N 
HETATM   14  H17 UNL     1      23.424  -1.952  52.674  1.00  0.00     0.169 HD
BRANCH  13  15
HETATM   15  C12 UNL     1      21.849  -1.604  53.891  1.00  0.00     0.354 C 
HETATM   16  O4  UNL     1      22.002  -1.649  55.129  1.00  0.00    -0.283 OA
ENDBRANCH  13  15
ENDBRANCH   7  13
BRANCH   5  17
HETATM   17  O3  UNL     1      21.037   2.353  51.041  1.00  0.00    -0.357 OA
HETATM   18  C9  UNL     1      20.300   1.162  50.904  1.00  0.00     0.209 C 
ENDBRANCH   5  17
BRANCH   4  19
HETATM   19  C6  UNL     1      21.635   4.601  52.292  1.00  0.00     0.205 C 
BRANCH  19  20
HETATM   20  O2  UNL     1      21.660   5.833  51.667  1.00  0.00    -0.393 OA
HETATM   21  C7  UNL     1      21.050   5.892  50.439  1.00  0.00     0.201 C 
ENDBRANCH  19  20
ENDBRANCH   4  19
BRANCH   1  22
HETATM   22  C2  UNL     1      26.767   3.075  49.218  1.00  0.00     0.032 C 
HETATM   23  C1  UNL     1      27.160   4.537  48.958  1.00  0.00     0.010 C 
ENDBRANCH   1  22
TORSDOF 6
ENDMDL
MODEL 5
REMARK VINA RESULT:      -5.8      2.764      6.041
REMARK  6 active torsions:
REMARK  status: ('A' for Active; 'I' for Inactive)
REMARK    1  A    between atoms: C2_2  and  C3_3 
REMARK    2  A    between atoms: C5_6  and  C6_7 
REMARK    3  A    between atoms: C6_7  and  O2_8 
REMARK    4  A    between atoms: C8_10  and  O3_11 
REMARK    5  A    between atoms: C11_14  and  N1_15 
REMARK    6  A    between atoms: N1_15  and  C12_16 
ROOT
HETATM    1  C3  UNL     1      23.902   4.258  51.512  1.00  0.00    -0.048 C 
HETATM    2  C4  UNL     1      24.495   3.122  51.340  1.00  0.00     0.185 C 
HETATM    3  O1  UNL     1      25.275   2.012  51.250  1.00  0.00    -0.365 OA
HETATM    4  C5  UNL     1      25.714   1.302  52.414  1.00  0.00     0.202 C 
HETATM    5  C8  UNL     1      24.603   0.614  53.075  1.00  0.00     0.080 C 
HETATM    6  C10 UNL     1      23.369   0.199  53.064  1.00  0.00     0.085 C 
HETATM    7  C11 UNL     1      22.103   0.086  52.366  1.00  0.00     0.133 C 
HETATM    8  N2  UNL     1      21.457   0.273  51.344  1.00  0.00    -0.224 NA
HETATM    9  C13 UNL     1      21.464   0.737  50.075  1.00  0.00     0.234 C 
HETATM   10  N3  UNL     1      21.949   1.816  49.667  1.00  0.00    -0.254 NA
HETATM   11  C14 UNL     1      22.602   2.833  50.363  1.00  0.00     0.118 C 
HETATM   12  C15 UNL     1      22.619   4.047  50.858  1.00  0.00     0.025 C 
ENDROOT
BRANCH   7  13
HETATM   13  N1  UNL     1      21.101  -0.588  53.184  1.00  0.00    -0.319 N 
HETATM   14  H17 UNL     1      20.205  -1.056  52.814  1.00  0.00     0.169 HD
BRANCH  13  15
HETATM   15  C12 UNL     1      21.107  -0.747  54.595  1.00  0.00     0.354 C 
HETATM   16  O4  UNL     1      21.428  -1.885  54.992  1.00  0.00    -0.283 OA
ENDBRANCH  13  15
ENDBRANCH   7  13
BRANCH   5  17
HETATM   17  O3  UNL     1      25.385   0.325  54.231  1.00  0.00    -0.357 OA
HETATM   18  C9  UNL     1      25.002  -0.821  54.953  1.00  0.00     0.209 C 
ENDBRANCH   5  17
BRANCH   4  19
HETATM   19  C6  UNL     1      26.842   0.358  52.028  1.00  0.00     0.205 C 
BRANCH  19  20
HETATM   20  O2  UNL     1      27.920   0.574  52.865  1.00  0.00    -0.393 OA
HETATM   21  C7  UNL     1      28.215   1.887  53.133  1.00  0.00     0.201 C 
ENDBRANCH  19  20
ENDBRANCH   4  19
BRANCH   1  22
HETATM   22  C2  UNL     1      23.708   5.676  51.945  1.00  0.00     0.032 C 
HETATM   23  C1  UNL     1      24.380   6.509  50.843  1.00  0.00     0.010 C 
ENDBRANCH   1  22
TORSDOF 6
ENDMDL
MODEL 6
REMARK VINA RESULT:      -5.8      2.732      5.669
REMARK  6 active torsions:
REMARK  status: ('A' for Active; 'I' for Inactive)
REMARK    1  A    between atoms: C2_2  and  C3_3 
REMARK    2  A    between atoms: C5_6  and  C6_7 
REMARK    3  A    between atoms: C6_7  and  O2_8 
REMARK    4  A    between atoms: C8_10  and  O3_11 
REMARK    5  A    between atoms: C11_14  and  N1_15 
REMARK    6  A    between atoms: N1_15  and  C12_16 
ROOT
HETATM    1  C3  UNL     1      25.450   0.494  52.527  1.00  0.00    -0.048 C 
HETATM    2  C4  UNL     1      24.685   1.500  52.799  1.00  0.00     0.185 C 
HETATM    3  O1  UNL     1      24.017   2.669  52.990  1.00  0.00    -0.365 OA
HETATM    4  C5  UNL     1      23.489   3.424  51.893  1.00  0.00     0.202 C 
HETATM    5  C8  UNL     1      22.355   2.740  51.266  1.00  0.00     0.080 C 
HETATM    6  C10 UNL     1      21.459   1.797  51.285  1.00  0.00     0.085 C 
HETATM    7  C11 UNL     1      20.865   0.662  51.964  1.00  0.00     0.133 C 
HETATM    8  N2  UNL     1      20.823  -0.054  52.956  1.00  0.00    -0.224 NA
HETATM    9  C13 UNL     1      21.325  -0.306  54.184  1.00  0.00     0.234 C 
HETATM   10  N3  UNL     1      22.530  -0.342  54.517  1.00  0.00    -0.254 NA
HETATM   11  C14 UNL     1      23.683  -0.143  53.757  1.00  0.00     0.118 C 
HETATM   12  C15 UNL     1      24.756  -0.613  53.171  1.00  0.00     0.025 C 
ENDROOT
BRANCH   7  13
HETATM   13  N1  UNL     1      19.780   0.079  51.182  1.00  0.00    -0.319 N 
HETATM   14  H17 UNL     1      19.902  -0.585  50.343  1.00  0.00     0.169 HD
BRANCH  13  15
HETATM   15  C12 UNL     1      18.386   0.277  51.363  1.00  0.00     0.354 C 
HETATM   16  O4  UNL     1      17.750  -0.746  51.688  1.00  0.00    -0.283 OA
ENDBRANCH  13  15
ENDBRANCH   7  13
BRANCH   5  17
HETATM   17  O3  UNL     1      22.354   3.629  50.152  1.00  0.00    -0.357 OA
HETATM   18  C9  UNL     1      22.978   3.145  48.987  1.00  0.00     0.209 C 
ENDBRANCH   5  17
BRANCH   4  19
HETATM   19  C6  UNL     1      23.137   4.823  52.374  1.00  0.00     0.205 C 
BRANCH  19  20
HETATM   20  O2  UNL     1      24.064   5.719  51.878  1.00  0.00    -0.393 OA
HETATM   21  C7  UNL     1      23.567   6.702  51.060  1.00  0.00     0.201 C 
ENDBRANCH  19  20
ENDBRANCH   4  19
BRANCH   1  22
HETATM   22  C2  UNL     1      26.622  -0.257  51.982  1.00  0.00     0.032 C 
HETATM   23  C1  UNL     1      27.472  -0.590  53.217  1.00  0.00     0.010 C 
ENDBRANCH   1  22
TORSDOF 6
ENDMDL
MODEL 7
REMARK VINA RESULT:      -5.7      9.240     11.491
REMARK  6 active torsions:
REMARK  status: ('A' for Active; 'I' for Inactive)
REMARK    1  A    between atoms: C2_2  and  C3_3 
REMARK    2  A    between atoms: C5_6  and  C6_7 
REMARK    3  A    between atoms: C6_7  and  O2_8 
REMARK    4  A    between atoms: C8_10  and  O3_11 
REMARK    5  A    between atoms: C11_14  and  N1_15 
REMARK    6  A    between atoms: N1_15  and  C12_16 
ROOT
HETATM    1  C3  UNL     1      29.615   6.001  48.089  1.00  0.00    -0.048 C 
HETATM    2  C4  UNL     1      30.712   5.321  48.019  1.00  0.00     0.185 C 
HETATM    3  O1  UNL     1      31.753   4.457  47.880  1.00  0.00    -0.365 OA
HETATM    4  C5  UNL     1      32.147   3.952  46.599  1.00  0.00     0.202 C 
HETATM    5  C8  UNL     1      32.751   4.998  45.771  1.00  0.00     0.080 C 
HETATM    6  C10 UNL     1      33.250   6.195  45.656  1.00  0.00     0.085 C 
HETATM    7  C11 UNL     1      33.612   7.455  46.277  1.00  0.00     0.133 C 
HETATM    8  N2  UNL     1      33.709   8.123  47.297  1.00  0.00    -0.224 NA
HETATM    9  C13 UNL     1      33.542   8.164  48.637  1.00  0.00     0.234 C 
HETATM   10  N3  UNL     1      32.549   7.771  49.288  1.00  0.00    -0.254 NA
HETATM   11  C14 UNL     1      31.356   7.194  48.855  1.00  0.00     0.118 C 
HETATM   12  C15 UNL     1      30.064   7.269  48.645  1.00  0.00     0.025 C 
ENDROOT
BRANCH   7  13
HETATM   13  N1  UNL     1      34.159   8.392  45.302  1.00  0.00    -0.319 N 
HETATM   14  H17 UNL     1      34.123   8.274  44.233  1.00  0.00     0.169 HD
BRANCH  13  15
HETATM   15  C12 UNL     1      34.838   9.611  45.569  1.00  0.00     0.354 C 
HETATM   16  O4  UNL     1      36.031   9.635  45.205  1.00  0.00    -0.283 OA
ENDBRANCH  13  15
ENDBRANCH   7  13
BRANCH   5  17
HETATM   17  O3  UNL     1      32.713   4.185  44.602  1.00  0.00    -0.357 OA
HETATM   18  C9  UNL     1      33.304   4.744  43.453  1.00  0.00     0.209 C 
ENDBRANCH   5  17
BRANCH   4  19
HETATM   19  C6  UNL     1      33.066   2.756  46.794  1.00  0.00     0.205 C 
BRANCH  19  20
HETATM   20  O2  UNL     1      33.710   2.873  48.011  1.00  0.00    -0.393 OA
HETATM   21  C7  UNL     1      34.964   3.428  47.972  1.00  0.00     0.201 C 
ENDBRANCH  19  20
ENDBRANCH   4  19
BRANCH   1  22
HETATM   22  C2  UNL     1      28.155   6.304  47.978  1.00  0.00     0.032 C 
HETATM   23  C1  UNL     1      27.463   5.096  48.628  1.00  0.00     0.010 C 
ENDBRANCH   1  22
TORSDOF 6
ENDMDL
MODEL 8
REMARK VINA RESULT:      -5.7      9.021     11.054
REMARK  6 active torsions:
REMARK  status: ('A' for Active; 'I' for Inactive)
REMARK    1  A    between atoms: C2_2  and  C3_3 
REMARK    2  A    between atoms: C5_6  and  C6_7 
REMARK    3  A    between atoms: C6_7  and  O2_8 
REMARK    4  A    between atoms: C8_10  and  O3_11 
REMARK    5  A    between atoms: C11_14  and  N1_15 
REMARK    6  A    between atoms: N1_15  and  C12_16 
ROOT
HETATM    1  C3  UNL     1      33.089   3.299  47.502  1.00  0.00    -0.048 C 
HETATM    2  C4  UNL     1      32.006   3.977  47.306  1.00  0.00     0.185 C 
HETATM    3  O1  UNL     1      30.811   4.624  47.279  1.00  0.00    -0.365 OA
HETATM    4  C5  UNL     1      30.496   5.667  48.209  1.00  0.00     0.202 C 
HETATM    5  C8  UNL     1      31.288   6.872  47.955  1.00  0.00     0.080 C 
HETATM    6  C10 UNL     1      32.090   7.550  47.187  1.00  0.00     0.085 C 
HETATM    7  C11 UNL     1      32.839   7.646  45.948  1.00  0.00     0.133 C 
HETATM    8  N2  UNL     1      33.119   7.160  44.861  1.00  0.00    -0.224 NA
HETATM    9  C13 UNL     1      32.919   6.142  43.996  1.00  0.00     0.234 C 
HETATM   10  N3  UNL     1      32.906   4.918  44.258  1.00  0.00    -0.254 NA
HETATM   11  C14 UNL     1      33.089   4.252  45.470  1.00  0.00     0.118 C 
HETATM   12  C15 UNL     1      33.818   3.502  46.259  1.00  0.00     0.025 C 
ENDROOT
BRANCH   7  13
HETATM   13  N1  UNL     1      33.601   8.888  45.879  1.00  0.00    -0.319 N 
HETATM   14  H17 UNL     1      33.264   9.802  45.422  1.00  0.00     0.169 HD
BRANCH  13  15
HETATM   15  C12 UNL     1      34.908   9.124  46.382  1.00  0.00     0.354 C 
HETATM   16  O4  UNL     1      35.726   9.538  45.536  1.00  0.00    -0.283 OA
ENDBRANCH  13  15
ENDBRANCH   7  13
BRANCH   5  17
HETATM   17  O3  UNL     1      30.892   7.470  49.186  1.00  0.00    -0.357 OA
HETATM   18  C9  UNL     1      31.060   8.865  49.266  1.00  0.00     0.209 C 
ENDBRANCH   5  17
BRANCH   4  19
HETATM   19  C6  UNL     1      28.998   5.931  48.175  1.00  0.00     0.205 C 
BRANCH  19  20
HETATM   20  O2  UNL     1      28.324   4.762  48.472  1.00  0.00    -0.393 OA
HETATM   21  C7  UNL     1      27.019   4.910  48.870  1.00  0.00     0.201 C 
ENDBRANCH  19  20
ENDBRANCH   4  19
BRANCH   1  22
HETATM   22  C2  UNL     1      34.068   2.410  48.199  1.00  0.00     0.032 C 
HETATM   23  C1  UNL     1      33.233   1.206  48.660  1.00  0.00     0.010 C 
ENDBRANCH   1  22
TORSDOF 6
ENDMDL
MODEL 9
REMARK VINA RESULT:      -5.6      9.909     11.567
REMARK  6 active torsions:
REMARK  status: ('A' for Active; 'I' for Inactive)
REMARK    1  A    between atoms: C2_2  and  C3_3 
REMARK    2  A    between atoms: C5_6  and  C6_7 
REMARK    3  A    between atoms: C6_7  and  O2_8 
REMARK    4  A    between atoms: C8_10  and  O3_11 
REMARK    5  A    between atoms: C11_14  and  N1_15 
REMARK    6  A    between atoms: N1_15  and  C12_16 
ROOT
HETATM    1  C3  UNL     1      32.371   2.740  46.359  1.00  0.00    -0.048 C 
HETATM    2  C4  UNL     1      33.072   3.624  45.729  1.00  0.00     0.185 C 
HETATM    3  O1  UNL     1      33.701   4.506  44.907  1.00  0.00    -0.365 OA
HETATM    4  C5  UNL     1      33.009   5.611  44.315  1.00  0.00     0.202 C 
HETATM    5  C8  UNL     1      32.649   6.619  45.315  1.00  0.00     0.080 C 
HETATM    6  C10 UNL     1      32.758   7.098  46.520  1.00  0.00     0.085 C 
HETATM    7  C11 UNL     1      33.344   7.008  47.844  1.00  0.00     0.133 C 
HETATM    8  N2  UNL     1      34.128   6.451  48.600  1.00  0.00    -0.224 NA
HETATM    9  C13 UNL     1      35.053   5.478  48.747  1.00  0.00     0.234 C 
HETATM   10  N3  UNL     1      34.970   4.291  48.364  1.00  0.00    -0.254 NA
HETATM   11  C14 UNL     1      33.941   3.628  47.695  1.00  0.00     0.118 C 
HETATM   12  C15 UNL     1      32.960   2.759  47.690  1.00  0.00     0.025 C 
ENDROOT
BRANCH   7  13
HETATM   13  N1  UNL     1      32.845   8.062  48.720  1.00  0.00    -0.319 N 
HETATM   14  H17 UNL     1      33.253   9.055  48.798  1.00  0.00     0.169 HD
BRANCH  13  15
HETATM   15  C12 UNL     1      31.755   7.982  49.628  1.00  0.00     0.354 C 
HETATM   16  O4  UNL     1      30.667   8.393  49.177  1.00  0.00    -0.283 OA
ENDBRANCH  13  15
ENDBRANCH   7  13
BRANCH   5  17
HETATM   17  O3  UNL     1      31.801   7.313  44.404  1.00  0.00    -0.357 OA
HETATM   18  C9  UNL     1      30.918   8.242  44.984  1.00  0.00     0.209 C 
ENDBRANCH   5  17
BRANCH   4  19
HETATM   19  C6  UNL     1      33.853   6.182  43.185  1.00  0.00     0.205 C 
BRANCH  19  20
HETATM   20  O2  UNL     1      34.073   5.197  42.241  1.00  0.00    -0.393 OA
HETATM   21  C7  UNL     1      32.980   4.826  41.499  1.00  0.00     0.201 C 
ENDBRANCH  19  20
ENDBRANCH   4  19
BRANCH   1  22
HETATM   22  C2  UNL     1      31.339   1.681  46.580  1.00  0.00     0.032 C 
HETATM   23  C1  UNL     1      32.148   0.387  46.754  1.00  0.00     0.010 C 
ENDBRANCH   1  22
TORSDOF 6
ENDMDL
