MODEL 1
REMARK VINA RESULT:      -8.6      0.000      0.000
REMARK  9 active torsions:
REMARK  status: ('A' for Active; 'I' for Inactive)
REMARK    1  A    between atoms: C3_3  and  C4_4 
REMARK    2  A    between atoms: C7_7  and  N1_8 
REMARK    3  A    between atoms: N1_8  and  C9_10 
REMARK    4  A    between atoms: C11_12  and  C12_13 
REMARK    5  A    between atoms: C15_19  and  N5_20 
REMARK    6  A    between atoms: C16_21  and  C17_22 
REMARK    7  A    between atoms: C17_22  and  O1_23 
REMARK    8  A    between atoms: O1_23  and  C18_24 
REMARK    9  A    between atoms: C18_24  and  C19_25 
ROOT
HETATM    1  C4  UNL     1      25.807   2.022  51.162  1.00  0.00    -0.011 C 
HETATM    2  C5  UNL     1      26.438   2.924  50.111  1.00  0.00     0.041 C 
HETATM    3  C6  UNL     1      25.731   4.281  50.152  1.00  0.00     0.024 C 
HETATM    4  C7  UNL     1      24.811   5.249  50.396  1.00  0.00     0.123 C 
HETATM    5  N3  UNL     1      23.526   5.419  50.885  1.00  0.00    -0.225 NA
HETATM    6  C14 UNL     1      22.869   5.027  51.877  1.00  0.00     0.237 C 
HETATM    7  N4  UNL     1      23.776   4.234  52.578  1.00  0.00    -0.224 NA
HETATM    8  C15 UNL     1      24.426   3.254  51.985  1.00  0.00     0.131 C 
HETATM    9  C16 UNL     1      24.498   2.390  50.789  1.00  0.00     0.014 C 
ENDROOT
BRANCH   4  10
HETATM   10  N1  UNL     1      24.793   6.663  50.076  1.00  0.00    -0.366 N 
HETATM   11  C8  UNL     1      24.143   7.593  51.015  1.00  0.00     0.151 C 
BRANCH  10  12
HETATM   12  C9  UNL     1      25.396   7.206  48.858  1.00  0.00     0.086 A 
HETATM   13  C10 UNL     1      26.903   7.190  48.839  1.00  0.00     0.035 A 
HETATM   14  C11 UNL     1      26.986   8.689  48.732  1.00  0.00     0.029 A 
HETATM   15  C13 UNL     1      25.496   8.735  48.892  1.00  0.00     0.035 A 
BRANCH  14  16
HETATM   16  C12 UNL     1      27.778   9.336  49.828  1.00  0.00     0.085 C 
HETATM   17  N2  UNL     1      27.600   9.528  51.087  1.00  0.00    -0.316 NA
HETATM   18  H16 UNL     1      28.234   9.991  51.721  1.00  0.00     0.185 HD
ENDBRANCH  14  16
ENDBRANCH  10  12
ENDBRANCH   4  10
BRANCH   1  19
HETATM   19  C3  UNL     1      26.644   1.614  52.029  1.00  0.00     0.040 A 
HETATM   20  C2  UNL     1      26.887   0.241  52.387  1.00  0.00    -0.004 A 
HETATM   21  C1  UNL     1      27.731   0.948  53.170  1.00  0.00     0.011 A 
ENDBRANCH   1  19
BRANCH   9  22
HETATM   22  C17 UNL     1      23.394   2.711  50.390  1.00  0.00     0.146 C 
BRANCH  22  23
HETATM   23  O1  UNL     1      22.791   1.488  50.628  1.00  0.00    -0.358 OA
BRANCH  23  24
HETATM   24  C18 UNL     1      21.566   1.386  51.340  1.00  0.00     0.213 C 
BRANCH  24  25
HETATM   25  C19 UNL     1      21.864   0.604  52.563  1.00  0.00    -0.034 A 
HETATM   26  C20 UNL     1      20.859   0.606  53.514  1.00  0.00     0.009 A 
HETATM   27  C21 UNL     1      20.967  -0.072  54.715  1.00  0.00     0.001 A 
HETATM   28  C22 UNL     1      22.134  -0.785  54.978  1.00  0.00     0.000 A 
HETATM   29  C23 UNL     1      23.158  -0.796  54.028  1.00  0.00     0.001 A 
HETATM   30  C24 UNL     1      23.010  -0.106  52.842  1.00  0.00     0.009 A 
ENDBRANCH  24  25
ENDBRANCH  23  24
ENDBRANCH  22  23
ENDBRANCH   9  22
BRANCH   8  31
HETATM   31  N5  UNL     1      24.944   3.167  53.266  1.00  0.00    -0.383 N 
HETATM   32  H20 UNL     1      25.676   2.673  53.841  1.00  0.00     0.157 HD
HETATM   33  H21 UNL     1      24.528   3.809  54.018  1.00  0.00     0.157 HD
ENDBRANCH   8  31
TORSDOF 9
ENDMDL
MODEL 2
REMARK VINA RESULT:      -8.5      2.131      6.263
REMARK  9 active torsions:
REMARK  status: ('A' for Active; 'I' for Inactive)
REMARK    1  A    between atoms: C3_3  and  C4_4 
REMARK    2  A    between atoms: C7_7  and  N1_8 
REMARK    3  A    between atoms: N1_8  and  C9_10 
REMARK    4  A    between atoms: C11_12  and  C12_13 
REMARK    5  A    between atoms: C15_19  and  N5_20 
REMARK    6  A    between atoms: C16_21  and  C17_22 
REMARK    7  A    between atoms: C17_22  and  O1_23 
REMARK    8  A    between atoms: O1_23  and  C18_24 
REMARK    9  A    between atoms: C18_24  and  C19_25 
ROOT
HETATM    1  C4  UNL     1      25.643   3.867  50.117  1.00  0.00    -0.011 C 
HETATM    2  C5  UNL     1      24.837   2.933  49.225  1.00  0.00     0.041 C 
HETATM    3  C6  UNL     1      23.375   2.977  49.677  1.00  0.00     0.024 C 
HETATM    4  C7  UNL     1      22.264   3.181  50.430  1.00  0.00     0.123 C 
HETATM    5  N3  UNL     1      21.878   3.549  51.709  1.00  0.00    -0.225 NA
HETATM    6  C14 UNL     1      22.177   4.448  52.527  1.00  0.00     0.237 C 
HETATM    7  N4  UNL     1      23.147   5.192  51.858  1.00  0.00    -0.224 NA
HETATM    8  C15 UNL     1      24.208   4.614  51.334  1.00  0.00     0.131 C 
HETATM    9  C16 UNL     1      25.028   3.387  51.291  1.00  0.00     0.014 C 
ENDROOT
BRANCH   4  10
HETATM   10  N1  UNL     1      20.860   2.937  50.160  1.00  0.00    -0.366 N 
HETATM   11  C8  UNL     1      19.990   4.084  49.849  1.00  0.00     0.151 C 
BRANCH  10  12
HETATM   12  C9  UNL     1      20.272   1.598  50.181  1.00  0.00     0.086 A 
HETATM   13  C10 UNL     1      19.284   1.359  51.294  1.00  0.00     0.035 A 
HETATM   14  C11 UNL     1      20.119   0.260  51.893  1.00  0.00     0.029 A 
HETATM   15  C13 UNL     1      21.176   0.576  50.878  1.00  0.00     0.035 A 
BRANCH  14  16
HETATM   16  C12 UNL     1      20.500   0.493  53.324  1.00  0.00     0.085 C 
HETATM   17  N2  UNL     1      20.346  -0.157  54.423  1.00  0.00    -0.316 NA
HETATM   18  H16 UNL     1      20.662   0.126  55.339  1.00  0.00     0.185 HD
ENDBRANCH  14  16
ENDBRANCH  10  12
ENDBRANCH   4  10
BRANCH   1  19
HETATM   19  C3  UNL     1      26.228   4.789  49.464  1.00  0.00     0.040 A 
HETATM   20  C2  UNL     1      27.477   4.663  48.758  1.00  0.00    -0.004 A 
HETATM   21  C1  UNL     1      27.107   5.947  48.561  1.00  0.00     0.011 A 
ENDBRANCH   1  19
BRANCH   9  22
HETATM   22  C17 UNL     1      24.496   2.898  52.270  1.00  0.00     0.146 C 
BRANCH  22  23
HETATM   23  O1  UNL     1      25.572   2.113  52.645  1.00  0.00    -0.358 OA
BRANCH  23  24
HETATM   24  C18 UNL     1      25.705   0.769  52.204  1.00  0.00     0.213 C 
BRANCH  24  25
HETATM   25  C19 UNL     1      27.020   0.299  52.701  1.00  0.00    -0.034 A 
HETATM   26  C20 UNL     1      27.880   1.302  53.110  1.00  0.00     0.009 A 
HETATM   27  C21 UNL     1      29.147   1.045  53.602  1.00  0.00     0.001 A 
HETATM   28  C22 UNL     1      29.573  -0.277  53.689  1.00  0.00     0.000 A 
HETATM   29  C23 UNL     1      28.717  -1.302  53.280  1.00  0.00     0.001 A 
HETATM   30  C24 UNL     1      27.461  -1.002  52.795  1.00  0.00     0.009 A 
ENDBRANCH  24  25
ENDBRANCH  23  24
ENDBRANCH  22  23
ENDBRANCH   9  22
BRANCH   8  31
HETATM   31  N5  UNL     1      24.434   5.933  50.980  1.00  0.00    -0.383 N 
HETATM   32  H20 UNL     1      25.001   6.783  51.236  1.00  0.00     0.157 HD
HETATM   33  H21 UNL     1      23.895   6.323  50.138  1.00  0.00     0.157 HD
ENDBRANCH   8  31
TORSDOF 9
ENDMDL
MODEL 3
REMARK VINA RESULT:      -8.2      2.251      4.346
REMARK  9 active torsions:
REMARK  status: ('A' for Active; 'I' for Inactive)
REMARK    1  A    between atoms: C3_3  and  C4_4 
REMARK    2  A    between atoms: C7_7  and  N1_8 
REMARK    3  A    between atoms: N1_8  and  C9_10 
REMARK    4  A    between atoms: C11_12  and  C12_13 
REMARK    5  A    between atoms: C15_19  and  N5_20 
REMARK    6  A    between atoms: C16_21  and  C17_22 
REMARK    7  A    between atoms: C17_22  and  O1_23 
REMARK    8  A    between atoms: O1_23  and  C18_24 
REMARK    9  A    between atoms: C18_24  and  C19_25 
ROOT
HETATM    1  C4  UNL     1      22.898   1.897  52.001  1.00  0.00    -0.011 C 
HETATM    2  C5  UNL     1      22.306   3.212  52.488  1.00  0.00     0.041 C 
HETATM    3  C6  UNL     1      21.837   4.011  51.269  1.00  0.00     0.024 C 
HETATM    4  C7  UNL     1      21.686   4.443  49.991  1.00  0.00     0.123 C 
HETATM    5  N3  UNL     1      22.202   4.255  48.718  1.00  0.00    -0.225 NA
HETATM    6  C14 UNL     1      22.495   3.281  47.989  1.00  0.00     0.237 C 
HETATM    7  N4  UNL     1      22.171   2.175  48.774  1.00  0.00    -0.224 NA
HETATM    8  C15 UNL     1      22.639   2.046  49.998  1.00  0.00     0.131 C 
HETATM    9  C16 UNL     1      23.633   2.530  50.977  1.00  0.00     0.014 C 
ENDROOT
BRANCH   4  10
HETATM   10  N1  UNL     1      20.881   5.508  49.424  1.00  0.00    -0.366 N 
HETATM   11  C8  UNL     1      19.583   5.167  48.817  1.00  0.00     0.151 C 
BRANCH  10  12
HETATM   12  C9  UNL     1      21.305   6.908  49.430  1.00  0.00     0.086 A 
HETATM   13  C10 UNL     1      22.739   7.136  49.027  1.00  0.00     0.035 A 
HETATM   14  C11 UNL     1      23.092   7.733  50.362  1.00  0.00     0.029 A 
HETATM   15  C13 UNL     1      21.710   7.386  50.828  1.00  0.00     0.035 A 
BRANCH  14  16
HETATM   16  C12 UNL     1      24.212   7.030  51.069  1.00  0.00     0.085 C 
HETATM   17  N2  UNL     1      24.339   6.429  52.198  1.00  0.00    -0.316 NA
HETATM   18  H16 UNL     1      25.175   5.989  52.555  1.00  0.00     0.185 HD
ENDBRANCH  14  16
ENDBRANCH  10  12
ENDBRANCH   4  10
BRANCH   1  19
HETATM   19  C3  UNL     1      22.298   0.880  52.474  1.00  0.00     0.040 A 
HETATM   20  C2  UNL     1      22.858  -0.080  53.390  1.00  0.00    -0.004 A 
HETATM   21  C1  UNL     1      21.599  -0.516  53.173  1.00  0.00     0.011 A 
ENDBRANCH   1  19
BRANCH   9  22
HETATM   22  C17 UNL     1      24.279   3.139  50.145  1.00  0.00     0.146 C 
BRANCH  22  23
HETATM   23  O1  UNL     1      25.323   3.476  50.988  1.00  0.00    -0.358 OA
BRANCH  23  24
HETATM   24  C18 UNL     1      26.563   2.783  50.953  1.00  0.00     0.213 C 
BRANCH  24  25
HETATM   25  C19 UNL     1      26.522   1.807  52.068  1.00  0.00    -0.034 A 
HETATM   26  C20 UNL     1      26.602   0.480  51.683  1.00  0.00     0.009 A 
HETATM   27  C21 UNL     1      26.578  -0.563  52.591  1.00  0.00     0.001 A 
HETATM   28  C22 UNL     1      26.470  -0.265  53.947  1.00  0.00     0.000 A 
HETATM   29  C23 UNL     1      26.387   1.069  54.351  1.00  0.00     0.001 A 
HETATM   30  C24 UNL     1      26.414   2.079  53.413  1.00  0.00     0.009 A 
ENDBRANCH  24  25
ENDBRANCH  23  24
ENDBRANCH  22  23
ENDBRANCH   9  22
BRANCH   8  31
HETATM   31  N5  UNL     1      21.868   0.901  49.897  1.00  0.00    -0.383 N 
HETATM   32  H20 UNL     1      20.874   0.556  49.935  1.00  0.00     0.157 HD
HETATM   33  H21 UNL     1      22.372  -0.023  49.688  1.00  0.00     0.157 HD
ENDBRANCH   8  31
TORSDOF 9
ENDMDL
MODEL 4
REMARK VINA RESULT:      -8.1      2.482      7.712
REMARK  9 active torsions:
REMARK  status: ('A' for Active; 'I' for Inactive)
REMARK    1  A    between atoms: C3_3  and  C4_4 
REMARK    2  A    between atoms: C7_7  and  N1_8 
REMARK    3  A    between atoms: N1_8  and  C9_10 
REMARK    4  A    between atoms: C11_12  and  C12_13 
REMARK    5  A    between atoms: C15_19  and  N5_20 
REMARK    6  A    between atoms: C16_21  and  C17_22 
REMARK    7  A    between atoms: C17_22  and  O1_23 
REMARK    8  A    between atoms: O1_23  and  C18_24 
REMARK    9  A    between atoms: C18_24  and  C19_25 
ROOT
HETATM    1  C4  UNL     1      22.429   3.804  48.752  1.00  0.00    -0.011 C 
HETATM    2  C5  UNL     1      23.084   2.431  48.804  1.00  0.00     0.041 C 
HETATM    3  C6  UNL     1      23.532   2.165  50.243  1.00  0.00     0.024 C 
HETATM    4  C7  UNL     1      23.883   2.356  51.541  1.00  0.00     0.123 C 
HETATM    5  N3  UNL     1      24.139   3.367  52.453  1.00  0.00    -0.225 NA
HETATM    6  C14 UNL     1      23.594   4.438  52.802  1.00  0.00     0.237 C 
HETATM    7  N4  UNL     1      22.459   4.506  51.996  1.00  0.00    -0.224 NA
HETATM    8  C15 UNL     1      22.544   4.389  50.687  1.00  0.00     0.131 C 
HETATM    9  C16 UNL     1      23.451   4.396  49.522  1.00  0.00     0.014 C 
ENDROOT
BRANCH   4  10
HETATM   10  N1  UNL     1      24.293   1.425  52.574  1.00  0.00    -0.366 N 
HETATM   11  C8  UNL     1      23.300   0.474  53.104  1.00  0.00     0.151 C 
BRANCH  10  12
HETATM   12  C9  UNL     1      25.653   1.388  53.112  1.00  0.00     0.086 A 
HETATM   13  C10 UNL     1      26.680   0.783  52.191  1.00  0.00     0.035 A 
HETATM   14  C11 UNL     1      26.998  -0.323  53.159  1.00  0.00     0.029 A 
HETATM   15  C13 UNL     1      25.884   0.180  54.026  1.00  0.00     0.035 A 
BRANCH  14  16
HETATM   16  C12 UNL     1      26.813  -1.700  52.595  1.00  0.00     0.085 C 
HETATM   17  N2  UNL     1      27.465  -2.806  52.664  1.00  0.00    -0.316 NA
HETATM   18  H16 UNL     1      27.217  -3.679  52.221  1.00  0.00     0.185 HD
ENDBRANCH  14  16
ENDBRANCH  10  12
ENDBRANCH   4  10
BRANCH   1  19
HETATM   19  C3  UNL     1      21.222   3.760  48.349  1.00  0.00     0.040 A 
HETATM   20  C2  UNL     1      20.792   3.704  46.976  1.00  0.00    -0.004 A 
HETATM   21  C1  UNL     1      19.645   3.700  47.689  1.00  0.00     0.011 A 
ENDBRANCH   1  19
BRANCH   9  22
HETATM   22  C17 UNL     1      24.386   4.857  50.148  1.00  0.00     0.146 C 
BRANCH  22  23
HETATM   23  O1  UNL     1      25.272   4.888  49.086  1.00  0.00    -0.358 OA
BRANCH  23  24
HETATM   24  C18 UNL     1      26.609   4.422  49.215  1.00  0.00     0.213 C 
BRANCH  24  25
HETATM   25  C19 UNL     1      27.468   5.451  48.582  1.00  0.00    -0.034 A 
HETATM   26  C20 UNL     1      26.812   6.615  48.222  1.00  0.00     0.009 A 
HETATM   27  C21 UNL     1      27.458   7.679  47.620  1.00  0.00     0.001 A 
HETATM   28  C22 UNL     1      28.823   7.576  47.368  1.00  0.00     0.000 A 
HETATM   29  C23 UNL     1      29.499   6.407  47.725  1.00  0.00     0.001 A 
HETATM   30  C24 UNL     1      28.817   5.368  48.323  1.00  0.00     0.009 A 
ENDBRANCH  24  25
ENDBRANCH  23  24
ENDBRANCH  22  23
ENDBRANCH   9  22
BRANCH   8  31
HETATM   31  N5  UNL     1      21.177   4.541  50.842  1.00  0.00    -0.383 N 
HETATM   32  H20 UNL     1      20.430   4.700  51.567  1.00  0.00     0.157 HD
HETATM   33  H21 UNL     1      20.570   4.525  49.958  1.00  0.00     0.157 HD
ENDBRANCH   8  31
TORSDOF 9
ENDMDL
MODEL 5
REMARK VINA RESULT:      -8.0      2.126      6.120
REMARK  9 active torsions:
REMARK  status: ('A' for Active; 'I' for Inactive)
REMARK    1  A    between atoms: C3_3  and  C4_4 
REMARK    2  A    between atoms: C7_7  and  N1_8 
REMARK    3  A    between atoms: N1_8  and  C9_10 
REMARK    4  A    between atoms: C11_12  and  C12_13 
REMARK    5  A    between atoms: C15_19  and  N5_20 
REMARK    6  A    between atoms: C16_21  and  C17_22 
REMARK    7  A    between atoms: C17_22  and  O1_23 
REMARK    8  A    between atoms: O1_23  and  C18_24 
REMARK    9  A    between atoms: C18_24  and  C19_25 
ROOT
HETATM    1  C4  UNL     1      23.532   5.285  50.717  1.00  0.00    -0.011 C 
HETATM    2  C5  UNL     1      23.286   4.610  52.058  1.00  0.00     0.041 C 
HETATM    3  C6  UNL     1      24.393   3.577  52.288  1.00  0.00     0.024 C 
HETATM    4  C7  UNL     1      25.417   2.714  52.067  1.00  0.00     0.123 C 
HETATM    5  N3  UNL     1      26.142   2.138  51.036  1.00  0.00    -0.225 NA
HETATM    6  C14 UNL     1      26.700   2.529  49.986  1.00  0.00     0.237 C 
HETATM    7  N4  UNL     1      26.458   3.902  49.977  1.00  0.00    -0.224 NA
HETATM    8  C15 UNL     1      25.237   4.380  50.106  1.00  0.00     0.131 C 
HETATM    9  C16 UNL     1      23.796   4.060  50.071  1.00  0.00     0.014 C 
ENDROOT
BRANCH   4  10
HETATM   10  N1  UNL     1      26.168   1.860  52.968  1.00  0.00    -0.366 N 
HETATM   11  C8  UNL     1      27.573   2.196  53.254  1.00  0.00     0.151 C 
BRANCH  10  12
HETATM   12  C9  UNL     1      25.587   0.679  53.606  1.00  0.00     0.086 A 
HETATM   13  C10 UNL     1      26.564  -0.162  54.386  1.00  0.00     0.035 A 
HETATM   14  C11 UNL     1      26.334  -1.364  53.510  1.00  0.00     0.029 A 
HETATM   15  C13 UNL     1      25.468  -0.504  52.640  1.00  0.00     0.035 A 
BRANCH  14  16
HETATM   16  C12 UNL     1      27.579  -1.896  52.866  1.00  0.00     0.085 C 
HETATM   17  N2  UNL     1      28.179  -3.033  52.850  1.00  0.00    -0.316 NA
HETATM   18  H16 UNL     1      29.033  -3.256  52.360  1.00  0.00     0.185 HD
ENDBRANCH  14  16
ENDBRANCH  10  12
ENDBRANCH   4  10
BRANCH   1  19
HETATM   19  C3  UNL     1      23.684   6.545  50.819  1.00  0.00     0.040 A 
HETATM   20  C2  UNL     1      22.791   7.547  50.298  1.00  0.00    -0.004 A 
HETATM   21  C1  UNL     1      23.780   8.251  50.890  1.00  0.00     0.011 A 
ENDBRANCH   1  19
BRANCH   9  22
HETATM   22  C17 UNL     1      23.966   2.968  49.562  1.00  0.00     0.146 C 
BRANCH  22  23
HETATM   23  O1  UNL     1      22.629   2.713  49.312  1.00  0.00    -0.358 OA
BRANCH  23  24
HETATM   24  C18 UNL     1      22.069   1.420  49.498  1.00  0.00     0.213 C 
BRANCH  24  25
HETATM   25  C19 UNL     1      21.559   1.388  50.890  1.00  0.00    -0.034 A 
HETATM   26  C20 UNL     1      22.113   0.404  51.689  1.00  0.00     0.009 A 
HETATM   27  C21 UNL     1      21.755   0.229  53.013  1.00  0.00     0.001 A 
HETATM   28  C22 UNL     1      20.798   1.077  53.564  1.00  0.00     0.000 A 
HETATM   29  C23 UNL     1      20.229   2.075  52.770  1.00  0.00     0.001 A 
HETATM   30  C24 UNL     1      20.615   2.216  51.453  1.00  0.00     0.009 A 
ENDBRANCH  24  25
ENDBRANCH  23  24
ENDBRANCH  22  23
ENDBRANCH   9  22
BRANCH   8  31
HETATM   31  N5  UNL     1      25.963   5.554  50.012  1.00  0.00    -0.383 N 
HETATM   32  H20 UNL     1      25.879   6.600  50.108  1.00  0.00     0.157 HD
HETATM   33  H21 UNL     1      27.008   5.478  49.778  1.00  0.00     0.157 HD
ENDBRANCH   8  31
TORSDOF 9
ENDMDL
MODEL 6
REMARK VINA RESULT:      -7.8      1.895      2.700
REMARK  9 active torsions:
REMARK  status: ('A' for Active; 'I' for Inactive)
REMARK    1  A    between atoms: C3_3  and  C4_4 
REMARK    2  A    between atoms: C7_7  and  N1_8 
REMARK    3  A    between atoms: N1_8  and  C9_10 
REMARK    4  A    between atoms: C11_12  and  C12_13 
REMARK    5  A    between atoms: C15_19  and  N5_20 
REMARK    6  A    between atoms: C16_21  and  C17_22 
REMARK    7  A    between atoms: C17_22  and  O1_23 
REMARK    8  A    between atoms: O1_23  and  C18_24 
REMARK    9  A    between atoms: C18_24  and  C19_25 
ROOT
HETATM    1  C4  UNL     1      24.942   2.861  50.604  1.00  0.00    -0.011 C 
HETATM    2  C5  UNL     1      26.261   3.103  49.883  1.00  0.00     0.041 C 
HETATM    3  C6  UNL     1      26.361   4.593  49.548  1.00  0.00     0.024 C 
HETATM    4  C7  UNL     1      26.027   5.889  49.322  1.00  0.00     0.123 C 
HETATM    5  N3  UNL     1      24.920   6.714  49.200  1.00  0.00    -0.225 NA
HETATM    6  C14 UNL     1      23.856   6.909  49.831  1.00  0.00     0.237 C 
HETATM    7  N4  UNL     1      23.935   6.011  50.893  1.00  0.00    -0.224 NA
HETATM    8  C15 UNL     1      24.171   4.731  50.688  1.00  0.00     0.131 C 
HETATM    9  C16 UNL     1      24.218   3.648  49.686  1.00  0.00     0.014 C 
ENDROOT
BRANCH   4  10
HETATM   10  N1  UNL     1      26.829   7.040  48.955  1.00  0.00    -0.366 N 
HETATM   11  C8  UNL     1      26.773   8.242  49.804  1.00  0.00     0.151 C 
BRANCH  10  12
HETATM   12  C9  UNL     1      27.695   7.057  47.775  1.00  0.00     0.086 A 
HETATM   13  C10 UNL     1      29.027   6.378  47.960  1.00  0.00     0.035 A 
HETATM   14  C11 UNL     1      29.789   7.648  47.695  1.00  0.00     0.029 A 
HETATM   15  C13 UNL     1      28.476   8.369  47.647  1.00  0.00     0.035 A 
BRANCH  14  16
HETATM   16  C12 UNL     1      30.712   8.049  48.806  1.00  0.00     0.085 C 
HETATM   17  N2  UNL     1      31.267   7.439  49.792  1.00  0.00    -0.316 NA
HETATM   18  H16 UNL     1      31.883   7.845  50.482  1.00  0.00     0.185 HD
ENDBRANCH  14  16
ENDBRANCH  10  12
ENDBRANCH   4  10
BRANCH   1  19
HETATM   19  C3  UNL     1      25.098   2.368  51.767  1.00  0.00     0.040 A 
HETATM   20  C2  UNL     1      24.751   1.030  52.170  1.00  0.00    -0.004 A 
HETATM   21  C1  UNL     1      25.257   1.597  53.286  1.00  0.00     0.011 A 
ENDBRANCH   1  19
BRANCH   9  22
HETATM   22  C17 UNL     1      23.643   4.300  48.834  1.00  0.00     0.146 C 
BRANCH  22  23
HETATM   23  O1  UNL     1      22.704   3.333  48.520  1.00  0.00    -0.358 OA
BRANCH  23  24
HETATM   24  C18 UNL     1      21.371   3.401  49.009  1.00  0.00     0.213 C 
BRANCH  24  25
HETATM   25  C19 UNL     1      21.281   2.401  50.100  1.00  0.00    -0.034 A 
HETATM   26  C20 UNL     1      21.009   2.927  51.350  1.00  0.00     0.009 A 
HETATM   27  C21 UNL     1      20.890   2.140  52.481  1.00  0.00     0.001 A 
HETATM   28  C22 UNL     1      21.050   0.763  52.356  1.00  0.00     0.000 A 
HETATM   29  C23 UNL     1      21.326   0.216  51.101  1.00  0.00     0.001 A 
HETATM   30  C24 UNL     1      21.436   1.037  49.998  1.00  0.00     0.009 A 
ENDBRANCH  24  25
ENDBRANCH  23  24
ENDBRANCH  22  23
ENDBRANCH   9  22
BRANCH   8  31
HETATM   31  N5  UNL     1      24.088   4.759  52.070  1.00  0.00    -0.383 N 
HETATM   32  H20 UNL     1      24.370   4.229  52.936  1.00  0.00     0.157 HD
HETATM   33  H21 UNL     1      23.589   5.593  52.524  1.00  0.00     0.157 HD
ENDBRANCH   8  31
TORSDOF 9
ENDMDL
MODEL 7
REMARK VINA RESULT:      -7.8      2.612      4.846
REMARK  9 active torsions:
REMARK  status: ('A' for Active; 'I' for Inactive)
REMARK    1  A    between atoms: C3_3  and  C4_4 
REMARK    2  A    between atoms: C7_7  and  N1_8 
REMARK    3  A    between atoms: N1_8  and  C9_10 
REMARK    4  A    between atoms: C11_12  and  C12_13 
REMARK    5  A    between atoms: C15_19  and  N5_20 
REMARK    6  A    between atoms: C16_21  and  C17_22 
REMARK    7  A    between atoms: C17_22  and  O1_23 
REMARK    8  A    between atoms: O1_23  and  C18_24 
REMARK    9  A    between atoms: C18_24  and  C19_25 
ROOT
HETATM    1  C4  UNL     1      25.387   4.575  50.086  1.00  0.00    -0.011 C 
HETATM    2  C5  UNL     1      24.988   3.249  49.456  1.00  0.00     0.041 C 
HETATM    3  C6  UNL     1      23.471   3.251  49.248  1.00  0.00     0.024 C 
HETATM    4  C7  UNL     1      22.156   3.572  49.351  1.00  0.00     0.123 C 
HETATM    5  N3  UNL     1      21.292   4.366  50.088  1.00  0.00    -0.225 NA
HETATM    6  C14 UNL     1      21.258   5.554  50.480  1.00  0.00     0.237 C 
HETATM    7  N4  UNL     1      22.440   6.099  49.980  1.00  0.00    -0.224 NA
HETATM    8  C15 UNL     1      23.604   5.527  50.208  1.00  0.00     0.131 C 
HETATM    9  C16 UNL     1      24.331   4.528  51.018  1.00  0.00     0.014 C 
ENDROOT
BRANCH   4  10
HETATM   10  N1  UNL     1      20.979   3.029  48.700  1.00  0.00    -0.366 N 
HETATM   11  C8  UNL     1      20.020   2.253  49.505  1.00  0.00     0.151 C 
BRANCH  10  12
HETATM   12  C9  UNL     1      20.703   3.221  47.276  1.00  0.00     0.086 A 
HETATM   13  C10 UNL     1      21.915   3.526  46.434  1.00  0.00     0.035 A 
HETATM   14  C11 UNL     1      21.376   4.869  46.021  1.00  0.00     0.029 A 
HETATM   15  C13 UNL     1      20.232   4.645  46.963  1.00  0.00     0.035 A 
BRANCH  14  16
HETATM   16  C12 UNL     1      22.279   6.018  46.356  1.00  0.00     0.085 C 
HETATM   17  N2  UNL     1      22.147   7.118  47.009  1.00  0.00    -0.316 NA
HETATM   18  H16 UNL     1      22.859   7.818  47.160  1.00  0.00     0.185 HD
ENDBRANCH  14  16
ENDBRANCH  10  12
ENDBRANCH   4  10
BRANCH   1  19
HETATM   19  C3  UNL     1      26.217   5.229  49.376  1.00  0.00     0.040 A 
HETATM   20  C2  UNL     1      27.413   4.700  48.773  1.00  0.00    -0.004 A 
HETATM   21  C1  UNL     1      27.401   6.001  48.411  1.00  0.00     0.011 A 
ENDBRANCH   1  19
BRANCH   9  22
HETATM   22  C17 UNL     1      23.430   4.406  51.826  1.00  0.00     0.146 C 
BRANCH  22  23
HETATM   23  O1  UNL     1      24.114   3.560  52.681  1.00  0.00    -0.358 OA
BRANCH  23  24
HETATM   24  C18 UNL     1      23.701   2.216  52.890  1.00  0.00     0.213 C 
BRANCH  24  25
HETATM   25  C19 UNL     1      24.932   1.393  52.829  1.00  0.00    -0.034 A 
HETATM   26  C20 UNL     1      24.742   0.043  53.068  1.00  0.00     0.009 A 
HETATM   27  C21 UNL     1      25.779  -0.871  53.052  1.00  0.00     0.001 A 
HETATM   28  C22 UNL     1      27.067  -0.415  52.783  1.00  0.00     0.000 A 
HETATM   29  C23 UNL     1      27.276   0.944  52.541  1.00  0.00     0.001 A 
HETATM   30  C24 UNL     1      26.213   1.823  52.567  1.00  0.00     0.009 A 
ENDBRANCH  24  25
ENDBRANCH  23  24
ENDBRANCH  22  23
ENDBRANCH   9  22
BRANCH   8  31
HETATM   31  N5  UNL     1      23.996   6.604  49.433  1.00  0.00    -0.383 N 
HETATM   32  H20 UNL     1      24.816   6.998  48.901  1.00  0.00     0.157 HD
HETATM   33  H21 UNL     1      23.265   7.362  49.226  1.00  0.00     0.157 HD
ENDBRANCH   8  31
TORSDOF 9
ENDMDL
MODEL 8
REMARK VINA RESULT:      -7.8      2.175      4.716
REMARK  9 active torsions:
REMARK  status: ('A' for Active; 'I' for Inactive)
REMARK    1  A    between atoms: C3_3  and  C4_4 
REMARK    2  A    between atoms: C7_7  and  N1_8 
REMARK    3  A    between atoms: N1_8  and  C9_10 
REMARK    4  A    between atoms: C11_12  and  C12_13 
REMARK    5  A    between atoms: C15_19  and  N5_20 
REMARK    6  A    between atoms: C16_21  and  C17_22 
REMARK    7  A    between atoms: C17_22  and  O1_23 
REMARK    8  A    between atoms: O1_23  and  C18_24 
REMARK    9  A    between atoms: C18_24  and  C19_25 
ROOT
HETATM    1  C4  UNL     1      20.869   1.102  52.183  1.00  0.00    -0.011 C 
HETATM    2  C5  UNL     1      20.617   2.525  52.660  1.00  0.00     0.041 C 
HETATM    3  C6  UNL     1      21.246   3.489  51.651  1.00  0.00     0.024 C 
HETATM    4  C7  UNL     1      22.014   3.986  50.647  1.00  0.00     0.123 C 
HETATM    5  N3  UNL     1      23.054   3.628  49.804  1.00  0.00    -0.225 NA
HETATM    6  C14 UNL     1      23.342   2.651  49.077  1.00  0.00     0.237 C 
HETATM    7  N4  UNL     1      22.263   1.784  49.249  1.00  0.00    -0.224 NA
HETATM    8  C15 UNL     1      21.869   1.418  50.451  1.00  0.00     0.131 C 
HETATM    9  C16 UNL     1      22.220   1.368  51.885  1.00  0.00     0.014 C 
ENDROOT
BRANCH   4  10
HETATM   10  N1  UNL     1      22.116   5.317  50.082  1.00  0.00    -0.366 N 
HETATM   11  C8  UNL     1      21.808   5.505  48.654  1.00  0.00     0.151 C 
BRANCH  10  12
HETATM   12  C9  UNL     1      22.513   6.483  50.871  1.00  0.00     0.086 A 
HETATM   13  C10 UNL     1      23.131   7.604  50.076  1.00  0.00     0.035 A 
HETATM   14  C11 UNL     1      24.434   7.508  50.822  1.00  0.00     0.029 A 
HETATM   15  C13 UNL     1      23.886   6.302  51.525  1.00  0.00     0.035 A 
BRANCH  14  16
HETATM   16  C12 UNL     1      25.624   7.264  49.944  1.00  0.00     0.085 C 
HETATM   17  N2  UNL     1      26.858   7.625  49.965  1.00  0.00    -0.316 NA
HETATM   18  H16 UNL     1      27.568   7.380  49.290  1.00  0.00     0.185 HD
ENDBRANCH  14  16
ENDBRANCH  10  12
ENDBRANCH   4  10
BRANCH   1  19
HETATM   19  C3  UNL     1      19.794   0.449  51.989  1.00  0.00     0.040 A 
HETATM   20  C2  UNL     1      19.167  -0.445  52.928  1.00  0.00    -0.004 A 
HETATM   21  C1  UNL     1      18.363  -0.478  51.843  1.00  0.00     0.011 A 
ENDBRANCH   1  19
BRANCH   9  22
HETATM   22  C17 UNL     1      23.389   1.648  51.692  1.00  0.00     0.146 C 
BRANCH  22  23
HETATM   23  O1  UNL     1      23.847   1.218  52.925  1.00  0.00    -0.358 OA
BRANCH  23  24
HETATM   24  C18 UNL     1      24.079  -0.158  53.196  1.00  0.00     0.213 C 
BRANCH  24  25
HETATM   25  C19 UNL     1      25.543  -0.301  53.378  1.00  0.00    -0.034 A 
HETATM   26  C20 UNL     1      26.064   0.378  54.464  1.00  0.00     0.009 A 
HETATM   27  C21 UNL     1      27.410   0.355  54.784  1.00  0.00     0.001 A 
HETATM   28  C22 UNL     1      28.274  -0.382  53.979  1.00  0.00     0.000 A 
HETATM   29  C23 UNL     1      27.764  -1.073  52.878  1.00  0.00     0.001 A 
HETATM   30  C24 UNL     1      26.415  -1.024  52.594  1.00  0.00     0.009 A 
ENDBRANCH  24  25
ENDBRANCH  23  24
ENDBRANCH  22  23
ENDBRANCH   9  22
BRANCH   8  31
HETATM   31  N5  UNL     1      20.949   0.747  49.664  1.00  0.00    -0.383 N 
HETATM   32  H20 UNL     1      20.794   0.374  48.691  1.00  0.00     0.157 HD
HETATM   33  H21 UNL     1      20.031   0.435  50.125  1.00  0.00     0.157 HD
ENDBRANCH   8  31
TORSDOF 9
ENDMDL
MODEL 9
REMARK VINA RESULT:      -7.8      2.491      5.434
REMARK  9 active torsions:
REMARK  status: ('A' for Active; 'I' for Inactive)
REMARK    1  A    between atoms: C3_3  and  C4_4 
REMARK    2  A    between atoms: C7_7  and  N1_8 
REMARK    3  A    between atoms: N1_8  and  C9_10 
REMARK    4  A    between atoms: C11_12  and  C12_13 
REMARK    5  A    between atoms: C15_19  and  N5_20 
REMARK    6  A    between atoms: C16_21  and  C17_22 
REMARK    7  A    between atoms: C17_22  and  O1_23 
REMARK    8  A    between atoms: O1_23  and  C18_24 
REMARK    9  A    between atoms: C18_24  and  C19_25 
ROOT
HETATM    1  C4  UNL     1      25.217   4.695  49.971  1.00  0.00    -0.011 C 
HETATM    2  C5  UNL     1      24.352   3.777  49.119  1.00  0.00     0.041 C 
HETATM    3  C6  UNL     1      22.932   4.348  49.083  1.00  0.00     0.024 C 
HETATM    4  C7  UNL     1      21.823   5.066  49.395  1.00  0.00     0.123 C 
HETATM    5  N3  UNL     1      21.320   5.908  50.374  1.00  0.00    -0.225 NA
HETATM    6  C14 UNL     1      21.725   6.906  51.012  1.00  0.00     0.237 C 
HETATM    7  N4  UNL     1      23.010   7.115  50.515  1.00  0.00    -0.224 NA
HETATM    8  C15 UNL     1      23.897   6.142  50.487  1.00  0.00     0.131 C 
HETATM    9  C16 UNL     1      24.238   4.792  50.981  1.00  0.00     0.014 C 
ENDROOT
BRANCH   4  10
HETATM   10  N1  UNL     1      20.513   5.131  48.776  1.00  0.00    -0.366 N 
HETATM   11  C8  UNL     1      20.248   6.194  47.791  1.00  0.00     0.151 C 
BRANCH  10  12
HETATM   12  C9  UNL     1      19.443   4.183  49.088  1.00  0.00     0.086 A 
HETATM   13  C10 UNL     1      19.750   3.234  50.217  1.00  0.00     0.035 A 
HETATM   14  C11 UNL     1      19.631   2.027  49.327  1.00  0.00     0.029 A 
HETATM   15  C13 UNL     1      19.464   2.960  48.166  1.00  0.00     0.035 A 
BRANCH  14  16
HETATM   16  C12 UNL     1      20.858   1.166  49.299  1.00  0.00     0.085 C 
HETATM   17  N2  UNL     1      21.425   0.365  50.129  1.00  0.00    -0.316 NA
HETATM   18  H16 UNL     1      22.271  -0.164  49.973  1.00  0.00     0.185 HD
ENDBRANCH  14  16
ENDBRANCH  10  12
ENDBRANCH   4  10
BRANCH   1  19
HETATM   19  C3  UNL     1      26.207   5.175  49.331  1.00  0.00     0.040 A 
HETATM   20  C2  UNL     1      27.342   4.430  48.850  1.00  0.00    -0.004 A 
HETATM   21  C1  UNL     1      27.587   5.702  48.468  1.00  0.00     0.011 A 
ENDBRANCH   1  19
BRANCH   9  22
HETATM   22  C17 UNL     1      23.374   4.797  51.838  1.00  0.00     0.146 C 
BRANCH  22  23
HETATM   23  O1  UNL     1      23.827   3.675  52.508  1.00  0.00    -0.358 OA
BRANCH  23  24
HETATM   24  C18 UNL     1      23.152   2.427  52.415  1.00  0.00     0.213 C 
BRANCH  24  25
HETATM   25  C19 UNL     1      24.192   1.383  52.574  1.00  0.00    -0.034 A 
HETATM   26  C20 UNL     1      25.354   1.605  51.856  1.00  0.00     0.009 A 
HETATM   27  C21 UNL     1      26.428   0.733  51.886  1.00  0.00     0.001 A 
HETATM   28  C22 UNL     1      26.336  -0.413  52.671  1.00  0.00     0.000 A 
HETATM   29  C23 UNL     1      25.169  -0.651  53.401  1.00  0.00     0.001 A 
HETATM   30  C24 UNL     1      24.121   0.244  53.343  1.00  0.00     0.009 A 
ENDBRANCH  24  25
ENDBRANCH  23  24
ENDBRANCH  22  23
ENDBRANCH   9  22
BRANCH   8  31
HETATM   31  N5  UNL     1      24.629   7.172  49.922  1.00  0.00    -0.383 N 
HETATM   32  H20 UNL     1      24.646   7.836  49.105  1.00  0.00     0.157 HD
HETATM   33  H21 UNL     1      25.511   7.499  50.439  1.00  0.00     0.157 HD
ENDBRANCH   8  31
TORSDOF 9
ENDMDL
