MODEL 1
REMARK VINA RESULT:      -6.7      0.000      0.000
REMARK  9 active torsions:
REMARK  status: ('A' for Active; 'I' for Inactive)
REMARK    1  A    between atoms: C4_6  and  N3_7 
REMARK    2  A    between atoms: N3_7  and  C5_8 
REMARK    3  A    between atoms: C8_11  and  O1_12 
REMARK    4  A    between atoms: C10_14  and  O2_15 
REMARK    5  A    between atoms: C13_18  and  C14_19 
REMARK    6  A    between atoms: C14_19  and  C15_20 
REMARK    7  A    between atoms: C15_20  and  C16_21 
REMARK    8  A    between atoms: C15_20  and  O4_24 
REMARK    9  A    between atoms: C16_21  and  O3_22 
ROOT
HETATM    1  C1  UNL     1      21.210   1.253  48.972  1.00  0.00     0.066 C 
HETATM    2  C2  UNL     1      22.145   1.781  49.686  1.00  0.00     0.050 A 
HETATM    3  N1  UNL     1      22.849   2.751  49.085  1.00  0.00    -0.245 NA
HETATM    4  C3  UNL     1      23.850   3.368  49.742  1.00  0.00     0.235 A 
HETATM    5  N2  UNL     1      24.096   2.966  50.995  1.00  0.00    -0.224 NA
HETATM    6  C4  UNL     1      23.408   2.005  51.609  1.00  0.00     0.141 A 
HETATM    7  C13 UNL     1      22.380   1.359  50.962  1.00  0.00     0.037 A 
ENDROOT
BRANCH   6   8
HETATM    8  N3  UNL     1      23.747   1.656  52.936  1.00  0.00    -0.340 N 
HETATM    9  H4  UNL     1      23.276   1.767  53.835  1.00  0.00     0.167 HD
BRANCH   8  10
HETATM   10  C5  UNL     1      24.951   0.997  53.297  1.00  0.00     0.036 A 
HETATM   11  C6  UNL     1      25.099  -0.376  53.146  1.00  0.00     0.032 A 
HETATM   12  C7  UNL     1      26.229  -1.092  53.444  1.00  0.00     0.042 A 
HETATM   13  C8  UNL     1      27.318  -0.400  53.936  1.00  0.00     0.101 A 
HETATM   14  C10 UNL     1      27.277   0.954  54.123  1.00  0.00     0.103 A 
HETATM   15  C12 UNL     1      26.106   1.598  53.799  1.00  0.00     0.069 A 
BRANCH  13  16
HETATM   16  O1  UNL     1      28.509  -1.008  54.271  1.00  0.00    -0.353 OA
HETATM   17  C9  UNL     1      29.364  -1.422  53.225  1.00  0.00     0.210 C 
ENDBRANCH  13  16
BRANCH  14  18
HETATM   18  O2  UNL     1      28.357   1.679  54.617  1.00  0.00    -0.353 OA
HETATM   19  C11 UNL     1      29.039   2.525  53.724  1.00  0.00     0.210 C 
ENDBRANCH  14  18
ENDBRANCH   8  10
ENDBRANCH   6   8
BRANCH   7  20
HETATM   20  C14 UNL     1      21.729   0.422  51.601  1.00  0.00     0.056 C 
BRANCH  20  21
HETATM   21  C15 UNL     1      20.408   0.449  52.184  1.00  0.00     0.090 C 
BRANCH  21  22
HETATM   22  C16 UNL     1      20.228   0.269  53.452  1.00  0.00     0.170 C 
BRANCH  22  23
HETATM   23  O3  UNL     1      21.396  -0.010  54.105  1.00  0.00    -0.365 OA
HETATM   24  C17 UNL     1      21.808  -1.228  54.645  1.00  0.00     0.209 C 
ENDBRANCH  22  23
ENDBRANCH  21  22
BRANCH  21  25
HETATM   25  O4  UNL     1      19.087   0.604  51.950  1.00  0.00    -0.354 OA
HETATM   26  C18 UNL     1      18.130  -0.395  52.319  1.00  0.00     0.210 C 
ENDBRANCH  21  25
ENDBRANCH  20  21
ENDBRANCH   7  20
TORSDOF 9
ENDMDL
MODEL 2
REMARK VINA RESULT:      -6.7      3.448      6.243
REMARK  9 active torsions:
REMARK  status: ('A' for Active; 'I' for Inactive)
REMARK    1  A    between atoms: C4_6  and  N3_7 
REMARK    2  A    between atoms: N3_7  and  C5_8 
REMARK    3  A    between atoms: C8_11  and  O1_12 
REMARK    4  A    between atoms: C10_14  and  O2_15 
REMARK    5  A    between atoms: C13_18  and  C14_19 
REMARK    6  A    between atoms: C14_19  and  C15_20 
REMARK    7  A    between atoms: C15_20  and  C16_21 
REMARK    8  A    between atoms: C15_20  and  O4_24 
REMARK    9  A    between atoms: C16_21  and  O3_22 
ROOT
HETATM    1  C1  UNL     1      26.601  -0.059  55.058  1.00  0.00     0.066 C 
HETATM    2  C2  UNL     1      27.061   0.766  54.179  1.00  0.00     0.050 A 
HETATM    3  N1  UNL     1      28.167   1.433  54.539  1.00  0.00    -0.245 NA
HETATM    4  C3  UNL     1      28.729   2.319  53.696  1.00  0.00     0.235 A 
HETATM    5  N2  UNL     1      28.134   2.494  52.509  1.00  0.00    -0.224 NA
HETATM    6  C4  UNL     1      27.036   1.841  52.132  1.00  0.00     0.141 A 
HETATM    7  C13 UNL     1      26.442   0.930  52.974  1.00  0.00     0.037 A 
ENDROOT
BRANCH   6   8
HETATM    8  N3  UNL     1      26.486   2.098  50.856  1.00  0.00    -0.340 N 
HETATM    9  H4  UNL     1      26.157   1.498  50.098  1.00  0.00     0.167 HD
BRANCH   8  10
HETATM   10  C5  UNL     1      26.258   3.400  50.340  1.00  0.00     0.036 A 
HETATM   11  C6  UNL     1      27.039   3.920  49.315  1.00  0.00     0.032 A 
HETATM   12  C7  UNL     1      26.877   5.154  48.740  1.00  0.00     0.042 A 
HETATM   13  C8  UNL     1      25.856   5.954  49.210  1.00  0.00     0.101 A 
HETATM   14  C10 UNL     1      25.030   5.538  50.216  1.00  0.00     0.103 A 
HETATM   15  C12 UNL     1      25.258   4.286  50.740  1.00  0.00     0.069 A 
BRANCH  13  16
HETATM   16  O1  UNL     1      25.594   7.213  48.712  1.00  0.00    -0.353 OA
HETATM   17  C9  UNL     1      26.541   7.794  47.839  1.00  0.00     0.210 C 
ENDBRANCH  13  16
BRANCH  14  18
HETATM   18  O2  UNL     1      23.993   6.321  50.713  1.00  0.00    -0.353 OA
HETATM   19  C11 UNL     1      22.856   5.660  51.211  1.00  0.00     0.210 C 
ENDBRANCH  14  18
ENDBRANCH   8  10
ENDBRANCH   6   8
BRANCH   7  20
HETATM   20  C14 UNL     1      25.365   0.309  52.565  1.00  0.00     0.056 C 
BRANCH  20  21
HETATM   21  C15 UNL     1      23.990   0.478  52.973  1.00  0.00     0.090 C 
BRANCH  21  22
HETATM   22  C16 UNL     1      23.232   1.375  52.429  1.00  0.00     0.170 C 
BRANCH  22  23
HETATM   23  O3  UNL     1      23.413   1.451  51.077  1.00  0.00    -0.365 OA
HETATM   24  C17 UNL     1      22.458   1.716  50.096  1.00  0.00     0.209 C 
ENDBRANCH  22  23
ENDBRANCH  21  22
BRANCH  21  25
HETATM   25  O4  UNL     1      23.007   0.047  53.793  1.00  0.00    -0.354 OA
HETATM   26  C18 UNL     1      21.913  -0.742  53.314  1.00  0.00     0.210 C 
ENDBRANCH  21  25
ENDBRANCH  20  21
ENDBRANCH   7  20
TORSDOF 9
ENDMDL
MODEL 3
REMARK VINA RESULT:      -6.6      3.623      6.194
REMARK  9 active torsions:
REMARK  status: ('A' for Active; 'I' for Inactive)
REMARK    1  A    between atoms: C4_6  and  N3_7 
REMARK    2  A    between atoms: N3_7  and  C5_8 
REMARK    3  A    between atoms: C8_11  and  O1_12 
REMARK    4  A    between atoms: C10_14  and  O2_15 
REMARK    5  A    between atoms: C13_18  and  C14_19 
REMARK    6  A    between atoms: C14_19  and  C15_20 
REMARK    7  A    between atoms: C15_20  and  C16_21 
REMARK    8  A    between atoms: C15_20  and  O4_24 
REMARK    9  A    between atoms: C16_21  and  O3_22 
ROOT
HETATM    1  C1  UNL     1      26.374   0.018  54.997  1.00  0.00     0.066 C 
HETATM    2  C2  UNL     1      26.864   0.817  54.111  1.00  0.00     0.050 A 
HETATM    3  N1  UNL     1      28.004   1.432  54.457  1.00  0.00    -0.245 NA
HETATM    4  C3  UNL     1      28.598   2.289  53.606  1.00  0.00     0.235 A 
HETATM    5  N2  UNL     1      28.001   2.487  52.424  1.00  0.00    -0.224 NA
HETATM    6  C4  UNL     1      26.870   1.886  52.060  1.00  0.00     0.141 A 
HETATM    7  C13 UNL     1      26.242   1.006  52.911  1.00  0.00     0.037 A 
ENDROOT
BRANCH   6   8
HETATM    8  N3  UNL     1      26.320   2.164  50.788  1.00  0.00    -0.340 N 
HETATM    9  H4  UNL     1      25.935   1.579  50.045  1.00  0.00     0.167 HD
BRANCH   8  10
HETATM   10  C5  UNL     1      26.182   3.471  50.255  1.00  0.00     0.036 A 
HETATM   11  C6  UNL     1      25.127   4.297  50.626  1.00  0.00     0.032 A 
HETATM   12  C7  UNL     1      24.927   5.579  50.182  1.00  0.00     0.042 A 
HETATM   13  C8  UNL     1      25.845   6.102  49.294  1.00  0.00     0.101 A 
HETATM   14  C10 UNL     1      26.919   5.374  48.865  1.00  0.00     0.103 A 
HETATM   15  C12 UNL     1      27.047   4.096  49.357  1.00  0.00     0.069 A 
BRANCH  13  16
HETATM   16  O1  UNL     1      25.751   7.378  48.778  1.00  0.00    -0.353 OA
HETATM   17  C9  UNL     1      26.153   8.459  49.596  1.00  0.00     0.210 C 
ENDBRANCH  13  16
BRANCH  14  18
HETATM   18  O2  UNL     1      27.859   5.874  47.970  1.00  0.00    -0.353 OA
HETATM   19  C11 UNL     1      29.217   5.641  48.253  1.00  0.00     0.210 C 
ENDBRANCH  14  18
ENDBRANCH   8  10
ENDBRANCH   6   8
BRANCH   7  20
HETATM   20  C14 UNL     1      25.133   0.435  52.515  1.00  0.00     0.056 C 
BRANCH  20  21
HETATM   21  C15 UNL     1      23.767   0.713  52.889  1.00  0.00     0.090 C 
BRANCH  21  22
HETATM   22  C16 UNL     1      23.053   1.574  52.239  1.00  0.00     0.170 C 
BRANCH  22  23
HETATM   23  O3  UNL     1      23.216   1.465  50.887  1.00  0.00    -0.365 OA
HETATM   24  C17 UNL     1      22.283   1.727  49.885  1.00  0.00     0.209 C 
ENDBRANCH  22  23
ENDBRANCH  21  22
BRANCH  21  25
HETATM   25  O4  UNL     1      22.762   0.424  53.744  1.00  0.00    -0.354 OA
HETATM   26  C18 UNL     1      22.546  -0.901  54.241  1.00  0.00     0.210 C 
ENDBRANCH  21  25
ENDBRANCH  20  21
ENDBRANCH   7  20
TORSDOF 9
ENDMDL
MODEL 4
REMARK VINA RESULT:      -6.5      1.237      2.431
REMARK  9 active torsions:
REMARK  status: ('A' for Active; 'I' for Inactive)
REMARK    1  A    between atoms: C4_6  and  N3_7 
REMARK    2  A    between atoms: N3_7  and  C5_8 
REMARK    3  A    between atoms: C8_11  and  O1_12 
REMARK    4  A    between atoms: C10_14  and  O2_15 
REMARK    5  A    between atoms: C13_18  and  C14_19 
REMARK    6  A    between atoms: C14_19  and  C15_20 
REMARK    7  A    between atoms: C15_20  and  C16_21 
REMARK    8  A    between atoms: C15_20  and  O4_24 
REMARK    9  A    between atoms: C16_21  and  O3_22 
ROOT
HETATM    1  C1  UNL     1      21.331   1.030  48.770  1.00  0.00     0.066 C 
HETATM    2  C2  UNL     1      22.221   1.685  49.436  1.00  0.00     0.050 A 
HETATM    3  N1  UNL     1      22.888   2.618  48.742  1.00  0.00    -0.245 NA
HETATM    4  C3  UNL     1      23.840   3.357  49.341  1.00  0.00     0.235 A 
HETATM    5  N2  UNL     1      24.078   3.113  50.635  1.00  0.00    -0.224 NA
HETATM    6  C4  UNL     1      23.427   2.191  51.343  1.00  0.00     0.141 A 
HETATM    7  C13 UNL     1      22.449   1.421  50.755  1.00  0.00     0.037 A 
ENDROOT
BRANCH   6   8
HETATM    8  N3  UNL     1      23.753   2.010  52.706  1.00  0.00    -0.340 N 
HETATM    9  H4  UNL     1      23.269   2.223  53.579  1.00  0.00     0.167 HD
BRANCH   8  10
HETATM   10  C5  UNL     1      24.962   1.420  53.158  1.00  0.00     0.036 A 
HETATM   11  C6  UNL     1      25.989   2.191  53.691  1.00  0.00     0.032 A 
HETATM   12  C7  UNL     1      27.177   1.707  54.173  1.00  0.00     0.042 A 
HETATM   13  C8  UNL     1      27.381   0.342  54.131  1.00  0.00     0.101 A 
HETATM   14  C10 UNL     1      26.434  -0.505  53.627  1.00  0.00     0.103 A 
HETATM   15  C12 UNL     1      25.269   0.060  53.163  1.00  0.00     0.069 A 
BRANCH  13  16
HETATM   16  O1  UNL     1      28.534  -0.262  54.586  1.00  0.00    -0.353 OA
HETATM   17  C9  UNL     1      29.672  -0.243  53.748  1.00  0.00     0.210 C 
ENDBRANCH  13  16
BRANCH  14  18
HETATM   18  O2  UNL     1      26.611  -1.884  53.570  1.00  0.00    -0.353 OA
HETATM   19  C11 UNL     1      26.980  -2.444  52.334  1.00  0.00     0.210 C 
ENDBRANCH  14  18
ENDBRANCH   8  10
ENDBRANCH   6   8
BRANCH   7  20
HETATM   20  C14 UNL     1      21.833   0.528  51.485  1.00  0.00     0.056 C 
BRANCH  20  21
HETATM   21  C15 UNL     1      20.732   0.688  52.406  1.00  0.00     0.090 C 
BRANCH  21  22
HETATM   22  C16 UNL     1      19.749   1.487  52.147  1.00  0.00     0.170 C 
BRANCH  22  23
HETATM   23  O3  UNL     1      20.007   2.769  52.542  1.00  0.00    -0.365 OA
HETATM   24  C17 UNL     1      20.013   3.924  51.762  1.00  0.00     0.209 C 
ENDBRANCH  22  23
ENDBRANCH  21  22
BRANCH  21  25
HETATM   25  O4  UNL     1      20.204   0.312  53.591  1.00  0.00    -0.354 OA
HETATM   26  C18 UNL     1      21.019   0.077  54.745  1.00  0.00     0.210 C 
ENDBRANCH  21  25
ENDBRANCH  20  21
ENDBRANCH   7  20
TORSDOF 9
ENDMDL
MODEL 5
REMARK VINA RESULT:      -6.5      3.088      6.120
REMARK  9 active torsions:
REMARK  status: ('A' for Active; 'I' for Inactive)
REMARK    1  A    between atoms: C4_6  and  N3_7 
REMARK    2  A    between atoms: N3_7  and  C5_8 
REMARK    3  A    between atoms: C8_11  and  O1_12 
REMARK    4  A    between atoms: C10_14  and  O2_15 
REMARK    5  A    between atoms: C13_18  and  C14_19 
REMARK    6  A    between atoms: C14_19  and  C15_20 
REMARK    7  A    between atoms: C15_20  and  C16_21 
REMARK    8  A    between atoms: C15_20  and  O4_24 
REMARK    9  A    between atoms: C16_21  and  O3_22 
ROOT
HETATM    1  C1  UNL     1      22.300  -0.744  54.254  1.00  0.00     0.066 C 
HETATM    2  C2  UNL     1      22.643  -0.034  53.233  1.00  0.00     0.050 A 
HETATM    3  N1  UNL     1      21.718   0.071  52.268  1.00  0.00    -0.245 NA
HETATM    4  C3  UNL     1      21.975   0.788  51.158  1.00  0.00     0.235 A 
HETATM    5  N2  UNL     1      23.176   1.374  51.074  1.00  0.00    -0.224 NA
HETATM    6  C4  UNL     1      24.107   1.283  52.022  1.00  0.00     0.141 A 
HETATM    7  C13 UNL     1      23.871   0.557  53.166  1.00  0.00     0.037 A 
ENDROOT
BRANCH   6   8
HETATM    8  N3  UNL     1      25.345   1.942  51.837  1.00  0.00    -0.340 N 
HETATM    9  H4  UNL     1      26.282   1.795  52.214  1.00  0.00     0.167 HD
BRANCH   8  10
HETATM   10  C5  UNL     1      25.525   3.059  50.982  1.00  0.00     0.036 A 
HETATM   11  C6  UNL     1      26.581   3.117  50.080  1.00  0.00     0.032 A 
HETATM   12  C7  UNL     1      26.820   4.142  49.201  1.00  0.00     0.042 A 
HETATM   13  C8  UNL     1      25.945   5.209  49.204  1.00  0.00     0.101 A 
HETATM   14  C10 UNL     1      24.874   5.251  50.052  1.00  0.00     0.103 A 
HETATM   15  C12 UNL     1      24.704   4.184  50.903  1.00  0.00     0.069 A 
BRANCH  13  16
HETATM   16  O1  UNL     1      26.080   6.297  48.367  1.00  0.00    -0.353 OA
HETATM   17  C9  UNL     1      27.133   7.206  48.620  1.00  0.00     0.210 C 
ENDBRANCH  13  16
BRANCH  14  18
HETATM   18  O2  UNL     1      23.975   6.313  50.079  1.00  0.00    -0.353 OA
HETATM   19  C11 UNL     1      24.158   7.298  51.067  1.00  0.00     0.210 C 
ENDBRANCH  14  18
ENDBRANCH   8  10
ENDBRANCH   6   8
BRANCH   7  20
HETATM   20  C14 UNL     1      24.812   0.494  54.073  1.00  0.00     0.056 C 
BRANCH  20  21
HETATM   21  C15 UNL     1      26.052  -0.246  54.068  1.00  0.00     0.090 C 
BRANCH  21  22
HETATM   22  C16 UNL     1      27.133   0.250  54.577  1.00  0.00     0.170 C 
BRANCH  22  23
HETATM   23  O3  UNL     1      27.316   1.557  54.226  1.00  0.00    -0.365 OA
HETATM   24  C17 UNL     1      28.429   2.136  53.617  1.00  0.00     0.209 C 
ENDBRANCH  22  23
ENDBRANCH  21  22
BRANCH  21  25
HETATM   25  O4  UNL     1      26.665  -1.396  53.714  1.00  0.00    -0.354 OA
HETATM   26  C18 UNL     1      26.899  -1.739  52.344  1.00  0.00     0.210 C 
ENDBRANCH  21  25
ENDBRANCH  20  21
ENDBRANCH   7  20
TORSDOF 9
ENDMDL
MODEL 6
REMARK VINA RESULT:      -6.4      2.832      6.765
REMARK  9 active torsions:
REMARK  status: ('A' for Active; 'I' for Inactive)
REMARK    1  A    between atoms: C4_6  and  N3_7 
REMARK    2  A    between atoms: N3_7  and  C5_8 
REMARK    3  A    between atoms: C8_11  and  O1_12 
REMARK    4  A    between atoms: C10_14  and  O2_15 
REMARK    5  A    between atoms: C13_18  and  C14_19 
REMARK    6  A    between atoms: C14_19  and  C15_20 
REMARK    7  A    between atoms: C15_20  and  C16_21 
REMARK    8  A    between atoms: C15_20  and  O4_24 
REMARK    9  A    between atoms: C16_21  and  O3_22 
ROOT
HETATM    1  C1  UNL     1      23.640  -1.583  55.640  1.00  0.00     0.066 C 
HETATM    2  C2  UNL     1      22.960  -0.879  54.800  1.00  0.00     0.050 A 
HETATM    3  N1  UNL     1      21.644  -0.804  55.045  1.00  0.00    -0.245 NA
HETATM    4  C3  UNL     1      20.842  -0.096  54.227  1.00  0.00     0.235 A 
HETATM    5  N2  UNL     1      21.418   0.511  53.183  1.00  0.00    -0.224 NA
HETATM    6  C4  UNL     1      22.723   0.449  52.922  1.00  0.00     0.141 A 
HETATM    7  C13 UNL     1      23.565  -0.267  53.742  1.00  0.00     0.037 A 
ENDROOT
BRANCH   6   8
HETATM    8  N3  UNL     1      23.233   1.128  51.792  1.00  0.00    -0.340 N 
HETATM    9  H4  UNL     1      23.743   0.825  50.961  1.00  0.00     0.167 HD
BRANCH   8  10
HETATM   10  C5  UNL     1      23.105   2.526  51.585  1.00  0.00     0.036 A 
HETATM   11  C6  UNL     1      23.364   3.436  52.603  1.00  0.00     0.032 A 
HETATM   12  C7  UNL     1      23.290   4.800  52.488  1.00  0.00     0.042 A 
HETATM   13  C8  UNL     1      22.929   5.323  51.262  1.00  0.00     0.101 A 
HETATM   14  C10 UNL     1      22.653   4.515  50.195  1.00  0.00     0.103 A 
HETATM   15  C12 UNL     1      22.750   3.157  50.393  1.00  0.00     0.069 A 
BRANCH  13  16
HETATM   16  O1  UNL     1      22.820   6.677  51.024  1.00  0.00    -0.353 OA
HETATM   17  C9  UNL     1      24.010   7.433  50.920  1.00  0.00     0.210 C 
ENDBRANCH  13  16
BRANCH  14  18
HETATM   18  O2  UNL     1      22.286   5.012  48.949  1.00  0.00    -0.353 OA
HETATM   19  C11 UNL     1      22.429   4.161  47.838  1.00  0.00     0.210 C 
ENDBRANCH  14  18
ENDBRANCH   8  10
ENDBRANCH   6   8
BRANCH   7  20
HETATM   20  C14 UNL     1      24.840  -0.301  53.451  1.00  0.00     0.056 C 
BRANCH  20  21
HETATM   21  C15 UNL     1      25.939   0.435  54.030  1.00  0.00     0.090 C 
BRANCH  21  22
HETATM   22  C16 UNL     1      26.424   1.486  53.452  1.00  0.00     0.170 C 
BRANCH  22  23
HETATM   23  O3  UNL     1      26.335   1.413  52.091  1.00  0.00    -0.365 OA
HETATM   24  C17 UNL     1      26.683   2.385  51.153  1.00  0.00     0.209 C 
ENDBRANCH  22  23
ENDBRANCH  21  22
BRANCH  21  25
HETATM   25  O4  UNL     1      26.808   0.520  55.061  1.00  0.00    -0.354 OA
HETATM   26  C18 UNL     1      28.198   0.213  54.908  1.00  0.00     0.210 C 
ENDBRANCH  21  25
ENDBRANCH  20  21
ENDBRANCH   7  20
TORSDOF 9
ENDMDL
MODEL 7
REMARK VINA RESULT:      -6.2      1.838      3.445
REMARK  9 active torsions:
REMARK  status: ('A' for Active; 'I' for Inactive)
REMARK    1  A    between atoms: C4_6  and  N3_7 
REMARK    2  A    between atoms: N3_7  and  C5_8 
REMARK    3  A    between atoms: C8_11  and  O1_12 
REMARK    4  A    between atoms: C10_14  and  O2_15 
REMARK    5  A    between atoms: C13_18  and  C14_19 
REMARK    6  A    between atoms: C14_19  and  C15_20 
REMARK    7  A    between atoms: C15_20  and  C16_21 
REMARK    8  A    between atoms: C15_20  and  O4_24 
REMARK    9  A    between atoms: C16_21  and  O3_22 
ROOT
HETATM    1  C1  UNL     1      19.528   0.075  51.347  1.00  0.00     0.066 C 
HETATM    2  C2  UNL     1      20.443   0.194  52.248  1.00  0.00     0.050 A 
HETATM    3  N1  UNL     1      20.137  -0.314  53.451  1.00  0.00    -0.245 NA
HETATM    4  C3  UNL     1      21.021  -0.240  54.463  1.00  0.00     0.235 A 
HETATM    5  N2  UNL     1      22.193   0.355  54.208  1.00  0.00    -0.224 NA
HETATM    6  C4  UNL     1      22.517   0.865  53.021  1.00  0.00     0.141 A 
HETATM    7  C13 UNL     1      21.632   0.803  51.969  1.00  0.00     0.037 A 
ENDROOT
BRANCH   6   8
HETATM    8  N3  UNL     1      23.782   1.473  52.854  1.00  0.00    -0.340 N 
HETATM    9  H4  UNL     1      24.085   2.381  52.498  1.00  0.00     0.167 HD
BRANCH   8  10
HETATM   10  C5  UNL     1      25.009   0.853  53.204  1.00  0.00     0.036 A 
HETATM   11  C6  UNL     1      25.225  -0.502  52.982  1.00  0.00     0.032 A 
HETATM   12  C7  UNL     1      26.383  -1.179  53.264  1.00  0.00     0.042 A 
HETATM   13  C8  UNL     1      27.428  -0.465  53.814  1.00  0.00     0.101 A 
HETATM   14  C10 UNL     1      27.320   0.872  54.072  1.00  0.00     0.103 A 
HETATM   15  C12 UNL     1      26.125   1.478  53.760  1.00  0.00     0.069 A 
BRANCH  13  16
HETATM   16  O1  UNL     1      28.641  -1.035  54.140  1.00  0.00    -0.353 OA
HETATM   17  C9  UNL     1      29.282  -1.840  53.171  1.00  0.00     0.210 C 
ENDBRANCH  13  16
BRANCH  14  18
HETATM   18  O2  UNL     1      28.355   1.619  54.627  1.00  0.00    -0.353 OA
HETATM   19  C11 UNL     1      29.053   2.497  53.779  1.00  0.00     0.210 C 
ENDBRANCH  14  18
ENDBRANCH   8  10
ENDBRANCH   6   8
BRANCH   7  20
HETATM   20  C14 UNL     1      21.990   1.315  50.819  1.00  0.00     0.056 C 
BRANCH  20  21
HETATM   21  C15 UNL     1      21.629   2.577  50.218  1.00  0.00     0.090 C 
BRANCH  21  22
HETATM   22  C16 UNL     1      22.217   3.678  50.562  1.00  0.00     0.170 C 
BRANCH  22  23
HETATM   23  O3  UNL     1      23.574   3.543  50.618  1.00  0.00    -0.365 OA
HETATM   24  C17 UNL     1      24.493   3.647  49.574  1.00  0.00     0.209 C 
ENDBRANCH  22  23
ENDBRANCH  21  22
BRANCH  21  25
HETATM   25  O4  UNL     1      20.833   3.202  49.324  1.00  0.00    -0.354 OA
HETATM   26  C18 UNL     1      20.296   2.524  48.183  1.00  0.00     0.210 C 
ENDBRANCH  21  25
ENDBRANCH  20  21
ENDBRANCH   7  20
TORSDOF 9
ENDMDL
MODEL 8
REMARK VINA RESULT:      -6.0      1.861      6.463
REMARK  9 active torsions:
REMARK  status: ('A' for Active; 'I' for Inactive)
REMARK    1  A    between atoms: C4_6  and  N3_7 
REMARK    2  A    between atoms: N3_7  and  C5_8 
REMARK    3  A    between atoms: C8_11  and  O1_12 
REMARK    4  A    between atoms: C10_14  and  O2_15 
REMARK    5  A    between atoms: C13_18  and  C14_19 
REMARK    6  A    between atoms: C14_19  and  C15_20 
REMARK    7  A    between atoms: C15_20  and  C16_21 
REMARK    8  A    between atoms: C15_20  and  O4_24 
REMARK    9  A    between atoms: C16_21  and  O3_22 
ROOT
HETATM    1  C1  UNL     1      26.527   3.200  49.897  1.00  0.00     0.066 C 
HETATM    2  C2  UNL     1      25.486   3.402  50.631  1.00  0.00     0.050 A 
HETATM    3  N1  UNL     1      24.925   4.614  50.514  1.00  0.00    -0.245 NA
HETATM    4  C3  UNL     1      23.835   4.929  51.238  1.00  0.00     0.235 A 
HETATM    5  N2  UNL     1      23.357   3.989  52.062  1.00  0.00    -0.224 NA
HETATM    6  C4  UNL     1      23.899   2.780  52.194  1.00  0.00     0.141 A 
HETATM    7  C13 UNL     1      25.013   2.431  51.466  1.00  0.00     0.037 A 
ENDROOT
BRANCH   6   8
HETATM    8  N3  UNL     1      23.317   1.857  53.093  1.00  0.00    -0.340 N 
HETATM    9  H4  UNL     1      23.593   1.496  54.007  1.00  0.00     0.167 HD
BRANCH   8  10
HETATM   10  C5  UNL     1      22.085   1.193  52.856  1.00  0.00     0.036 A 
HETATM   11  C6  UNL     1      21.460   0.451  53.851  1.00  0.00     0.032 A 
HETATM   12  C7  UNL     1      20.262  -0.202  53.721  1.00  0.00     0.042 A 
HETATM   13  C8  UNL     1      19.615  -0.123  52.504  1.00  0.00     0.101 A 
HETATM   14  C10 UNL     1      20.144   0.581  51.459  1.00  0.00     0.103 A 
HETATM   15  C12 UNL     1      21.350   1.208  51.671  1.00  0.00     0.069 A 
BRANCH  13  16
HETATM   16  O1  UNL     1      18.406  -0.737  52.252  1.00  0.00    -0.353 OA
HETATM   17  C9  UNL     1      17.784  -1.442  53.307  1.00  0.00     0.210 C 
ENDBRANCH  13  16
BRANCH  14  18
HETATM   18  O2  UNL     1      19.517   0.678  50.221  1.00  0.00    -0.353 OA
HETATM   19  C11 UNL     1      18.874   1.890  49.909  1.00  0.00     0.210 C 
ENDBRANCH  14  18
ENDBRANCH   8  10
ENDBRANCH   6   8
BRANCH   7  20
HETATM   20  C14 UNL     1      25.514   1.233  51.623  1.00  0.00     0.056 C 
BRANCH  20  21
HETATM   21  C15 UNL     1      26.566   0.779  52.501  1.00  0.00     0.090 C 
BRANCH  21  22
HETATM   22  C16 UNL     1      26.408  -0.254  53.263  1.00  0.00     0.170 C 
BRANCH  22  23
HETATM   23  O3  UNL     1      25.511  -0.024  54.266  1.00  0.00    -0.365 OA
HETATM   24  C17 UNL     1      24.822  -0.962  55.035  1.00  0.00     0.209 C 
ENDBRANCH  22  23
ENDBRANCH  21  22
BRANCH  21  25
HETATM   25  O4  UNL     1      27.826   0.993  52.938  1.00  0.00    -0.354 OA
HETATM   26  C18 UNL     1      28.256   2.273  53.415  1.00  0.00     0.210 C 
ENDBRANCH  21  25
ENDBRANCH  20  21
ENDBRANCH   7  20
TORSDOF 9
ENDMDL
MODEL 9
REMARK VINA RESULT:      -6.0      1.875      6.302
REMARK  9 active torsions:
REMARK  status: ('A' for Active; 'I' for Inactive)
REMARK    1  A    between atoms: C4_6  and  N3_7 
REMARK    2  A    between atoms: N3_7  and  C5_8 
REMARK    3  A    between atoms: C8_11  and  O1_12 
REMARK    4  A    between atoms: C10_14  and  O2_15 
REMARK    5  A    between atoms: C13_18  and  C14_19 
REMARK    6  A    between atoms: C14_19  and  C15_20 
REMARK    7  A    between atoms: C15_20  and  C16_21 
REMARK    8  A    between atoms: C15_20  and  O4_24 
REMARK    9  A    between atoms: C16_21  and  O3_22 
ROOT
HETATM    1  C1  UNL     1      26.793   3.617  49.327  1.00  0.00     0.066 C 
HETATM    2  C2  UNL     1      25.716   3.920  49.967  1.00  0.00     0.050 A 
HETATM    3  N1  UNL     1      25.042   4.978  49.492  1.00  0.00    -0.245 NA
HETATM    4  C3  UNL     1      23.904   5.380  50.088  1.00  0.00     0.235 A 
HETATM    5  N2  UNL     1      23.495   4.684  51.155  1.00  0.00    -0.224 NA
HETATM    6  C4  UNL     1      24.149   3.631  51.643  1.00  0.00     0.141 A 
HETATM    7  C13 UNL     1      25.314   3.198  51.053  1.00  0.00     0.037 A 
ENDROOT
BRANCH   6   8
HETATM    8  N3  UNL     1      23.632   2.962  52.776  1.00  0.00    -0.340 N 
HETATM    9  H4  UNL     1      23.933   2.892  53.749  1.00  0.00     0.167 HD
BRANCH   8  10
HETATM   10  C5  UNL     1      22.450   2.177  52.760  1.00  0.00     0.036 A 
HETATM   11  C6  UNL     1      21.256   2.677  52.254  1.00  0.00     0.032 A 
HETATM   12  C7  UNL     1      20.075   1.985  52.176  1.00  0.00     0.042 A 
HETATM   13  C8  UNL     1      20.060   0.684  52.635  1.00  0.00     0.101 A 
HETATM   14  C10 UNL     1      21.181   0.097  53.153  1.00  0.00     0.103 A 
HETATM   15  C12 UNL     1      22.326   0.858  53.196  1.00  0.00     0.069 A 
BRANCH  13  16
HETATM   16  O1  UNL     1      18.934  -0.112  52.609  1.00  0.00    -0.353 OA
HETATM   17  C9  UNL     1      18.230  -0.231  51.390  1.00  0.00     0.210 C 
ENDBRANCH  13  16
BRANCH  14  18
HETATM   18  O2  UNL     1      21.197  -1.212  53.624  1.00  0.00    -0.353 OA
HETATM   19  C11 UNL     1      22.041  -1.504  54.710  1.00  0.00     0.210 C 
ENDBRANCH  14  18
ENDBRANCH   8  10
ENDBRANCH   6   8
BRANCH   7  20
HETATM   20  C14 UNL     1      25.925   2.159  51.562  1.00  0.00     0.056 C 
BRANCH  20  21
HETATM   21  C15 UNL     1      27.006   2.100  52.517  1.00  0.00     0.090 C 
BRANCH  21  22
HETATM   22  C16 UNL     1      26.789   1.826  53.762  1.00  0.00     0.170 C 
BRANCH  22  23
HETATM   23  O3  UNL     1      25.724   0.986  53.928  1.00  0.00    -0.365 OA
HETATM   24  C17 UNL     1      25.740  -0.396  54.113  1.00  0.00     0.209 C 
ENDBRANCH  22  23
ENDBRANCH  21  22
BRANCH  21  25
HETATM   25  O4  UNL     1      28.338   2.222  52.706  1.00  0.00    -0.354 OA
HETATM   26  C18 UNL     1      29.001   1.633  53.830  1.00  0.00     0.210 C 
ENDBRANCH  21  25
ENDBRANCH  20  21
ENDBRANCH   7  20
TORSDOF 9
ENDMDL
