MODEL 1
REMARK VINA RESULT:      -7.6      0.000      0.000
REMARK  10 active torsions:
REMARK  status: ('A' for Active; 'I' for Inactive)
REMARK    1  A    between atoms: N1_2  and  C2_3 
REMARK    2  A    between atoms: C7_8  and  C8_9 
REMARK    3  A    between atoms: C8_9  and  C9_10 
REMARK    4  A    between atoms: C8_9  and  C21_25 
REMARK    5  A    between atoms: C9_10  and  C10_11 
REMARK    6  A    between atoms: C15_16  and  C16_17 
REMARK    7  A    between atoms: C16_17  and  C17_18 
REMARK    8  A    between atoms: C17_18  and  O2_20 
REMARK    9  A    between atoms: C21_25  and  C22_26 
REMARK   10  A    between atoms: C22_26  and  O4_28 
ROOT
HETATM    1  C8  UNL     1      26.072   2.163  52.416  1.00  0.00    -0.040 C 
ENDROOT
BRANCH   1   2
HETATM    2  C7  UNL     1      27.207   1.463  52.990  1.00  0.00    -0.003 A 
HETATM    3  C2  UNL     1      27.512   0.132  52.845  1.00  0.00     0.038 A 
HETATM    4  C3  UNL     1      28.677  -0.403  53.308  1.00  0.00     0.030 A 
HETATM    5  C4  UNL     1      29.588   0.405  53.951  1.00  0.00     0.002 A 
HETATM    6  C5  UNL     1      29.289   1.719  54.100  1.00  0.00     0.001 A 
HETATM    7  C6  UNL     1      28.124   2.251  53.633  1.00  0.00     0.014 A 
BRANCH   3   8
HETATM    8  N1  UNL     1      26.557  -0.796  52.289  1.00  0.00    -0.394 N 
HETATM    9  C1  UNL     1      26.797  -2.207  52.464  1.00  0.00     0.146 C 
HETATM   10  H4  UNL     1      25.655  -0.854  51.782  1.00  0.00     0.159 HD
ENDBRANCH   3   8
ENDBRANCH   1   2
BRANCH   1  11
HETATM   11  C9  UNL     1      25.684   2.534  51.215  1.00  0.00    -0.009 C 
BRANCH  11  12
HETATM   12  C10 UNL     1      25.466   2.951  49.852  1.00  0.00     0.039 C 
HETATM   13  C11 UNL     1      26.609   3.770  49.314  1.00  0.00    -0.017 C 
HETATM   14  C12 UNL     1      27.537   4.623  48.831  1.00  0.00    -0.003 C 
HETATM   15  C13 UNL     1      27.480   6.057  48.539  1.00  0.00     0.000 C 
HETATM   16  C14 UNL     1      26.932   7.233  48.512  1.00  0.00     0.004 C 
HETATM   17  C15 UNL     1      25.660   7.707  48.981  1.00  0.00    -0.055 C 
HETATM   18  C19 UNL     1      25.517   6.464  49.436  1.00  0.00     0.188 C 
HETATM   19  S1  UNL     1      24.339   5.469  50.331  1.00  0.00    -0.231 SA
HETATM   20  C20 UNL     1      24.242   3.834  49.692  1.00  0.00     0.068 C 
BRANCH  17  21
HETATM   21  C16 UNL     1      25.028   9.025  48.877  1.00  0.00     0.146 C 
BRANCH  21  22
HETATM   22  C17 UNL     1      25.903  10.052  48.254  1.00  0.00     0.262 C 
HETATM   23  O1  UNL     1      26.372  10.698  47.296  1.00  0.00    -0.265 OA
BRANCH  22  24
HETATM   24  O2  UNL     1      26.690  10.751  49.168  1.00  0.00    -0.326 OA
HETATM   25  C18 UNL     1      28.087  10.816  48.971  1.00  0.00     0.213 C 
ENDBRANCH  22  24
ENDBRANCH  21  22
ENDBRANCH  17  21
ENDBRANCH  11  12
ENDBRANCH   1  11
BRANCH   1  26
HETATM   26  C21 UNL     1      24.972   2.572  53.358  1.00  0.00     0.150 C 
BRANCH  26  27
HETATM   27  C22 UNL     1      23.843   1.627  53.081  1.00  0.00     0.262 C 
HETATM   28  O3  UNL     1      22.792   2.078  52.554  1.00  0.00    -0.265 OA
BRANCH  27  29
HETATM   29  O4  UNL     1      24.034   0.275  53.433  1.00  0.00    -0.326 OA
HETATM   30  C23 UNL     1      22.915  -0.601  53.222  1.00  0.00     0.213 C 
ENDBRANCH  27  29
ENDBRANCH  26  27
ENDBRANCH   1  26
TORSDOF 10
ENDMDL
MODEL 2
REMARK VINA RESULT:      -7.4      1.707      2.641
REMARK  10 active torsions:
REMARK  status: ('A' for Active; 'I' for Inactive)
REMARK    1  A    between atoms: N1_2  and  C2_3 
REMARK    2  A    between atoms: C7_8  and  C8_9 
REMARK    3  A    between atoms: C8_9  and  C9_10 
REMARK    4  A    between atoms: C8_9  and  C21_25 
REMARK    5  A    between atoms: C9_10  and  C10_11 
REMARK    6  A    between atoms: C15_16  and  C16_17 
REMARK    7  A    between atoms: C16_17  and  C17_18 
REMARK    8  A    between atoms: C17_18  and  O2_20 
REMARK    9  A    between atoms: C21_25  and  C22_26 
REMARK   10  A    between atoms: C22_26  and  O4_28 
ROOT
HETATM    1  C8  UNL     1      24.584   2.788  52.217  1.00  0.00    -0.040 C 
ENDROOT
BRANCH   1   2
HETATM    2  C7  UNL     1      25.004   1.635  52.995  1.00  0.00    -0.003 A 
HETATM    3  C2  UNL     1      26.062   1.573  53.869  1.00  0.00     0.038 A 
HETATM    4  C3  UNL     1      26.292   0.486  54.658  1.00  0.00     0.030 A 
HETATM    5  C4  UNL     1      25.445  -0.598  54.586  1.00  0.00     0.002 A 
HETATM    6  C5  UNL     1      24.401  -0.542  53.723  1.00  0.00     0.001 A 
HETATM    7  C6  UNL     1      24.174   0.548  52.936  1.00  0.00     0.014 A 
BRANCH   3   8
HETATM    8  N1  UNL     1      27.056   2.618  53.912  1.00  0.00    -0.394 N 
HETATM    9  C1  UNL     1      28.385   2.314  53.441  1.00  0.00     0.146 C 
HETATM   10  H4  UNL     1      27.201   3.616  54.149  1.00  0.00     0.159 HD
ENDBRANCH   3   8
ENDBRANCH   1   2
BRANCH   1  11
HETATM   11  C9  UNL     1      24.651   3.169  50.960  1.00  0.00    -0.009 C 
BRANCH  11  12
HETATM   12  C10 UNL     1      24.831   3.406  49.550  1.00  0.00     0.039 C 
HETATM   13  C11 UNL     1      26.222   3.876  49.220  1.00  0.00    -0.017 C 
HETATM   14  C12 UNL     1      27.407   4.432  48.888  1.00  0.00    -0.003 C 
HETATM   15  C13 UNL     1      27.755   5.784  48.445  1.00  0.00     0.000 C 
HETATM   16  C14 UNL     1      27.521   7.029  48.165  1.00  0.00     0.004 C 
HETATM   17  C15 UNL     1      26.329   7.824  48.264  1.00  0.00    -0.055 C 
HETATM   18  C19 UNL     1      25.802   6.724  48.797  1.00  0.00     0.188 C 
HETATM   19  S1  UNL     1      24.260   6.147  49.481  1.00  0.00    -0.231 SA
HETATM   20  C20 UNL     1      23.913   4.489  49.010  1.00  0.00     0.068 C 
BRANCH  17  21
HETATM   21  C16 UNL     1      26.065   9.213  47.876  1.00  0.00     0.146 C 
BRANCH  21  22
HETATM   22  C17 UNL     1      26.747  10.208  48.743  1.00  0.00     0.262 C 
HETATM   23  O1  UNL     1      27.630  10.591  49.536  1.00  0.00    -0.265 OA
BRANCH  22  24
HETATM   24  O2  UNL     1      26.135  11.461  48.751  1.00  0.00    -0.326 OA
HETATM   25  C18 UNL     1      25.621  11.988  47.545  1.00  0.00     0.213 C 
ENDBRANCH  22  24
ENDBRANCH  21  22
ENDBRANCH  17  21
ENDBRANCH  11  12
ENDBRANCH   1  11
BRANCH   1  26
HETATM   26  C21 UNL     1      23.823   3.863  52.944  1.00  0.00     0.150 C 
BRANCH  26  27
HETATM   27  C22 UNL     1      22.463   3.877  52.314  1.00  0.00     0.262 C 
HETATM   28  O3  UNL     1      21.977   4.980  51.949  1.00  0.00    -0.265 OA
BRANCH  27  29
HETATM   29  O4  UNL     1      21.808   2.638  52.170  1.00  0.00    -0.326 OA
HETATM   30  C23 UNL     1      20.433   2.593  52.585  1.00  0.00     0.213 C 
ENDBRANCH  27  29
ENDBRANCH  26  27
ENDBRANCH   1  26
TORSDOF 10
ENDMDL
MODEL 3
REMARK VINA RESULT:      -7.3      1.483      2.081
REMARK  10 active torsions:
REMARK  status: ('A' for Active; 'I' for Inactive)
REMARK    1  A    between atoms: N1_2  and  C2_3 
REMARK    2  A    between atoms: C7_8  and  C8_9 
REMARK    3  A    between atoms: C8_9  and  C9_10 
REMARK    4  A    between atoms: C8_9  and  C21_25 
REMARK    5  A    between atoms: C9_10  and  C10_11 
REMARK    6  A    between atoms: C15_16  and  C16_17 
REMARK    7  A    between atoms: C16_17  and  C17_18 
REMARK    8  A    between atoms: C17_18  and  O2_20 
REMARK    9  A    between atoms: C21_25  and  C22_26 
REMARK   10  A    between atoms: C22_26  and  O4_28 
ROOT
HETATM    1  C8  UNL     1      26.053   2.188  52.339  1.00  0.00    -0.040 C 
ENDROOT
BRANCH   1   2
HETATM    2  C7  UNL     1      27.173   1.513  52.970  1.00  0.00    -0.003 A 
HETATM    3  C2  UNL     1      27.458   0.170  52.921  1.00  0.00     0.038 A 
HETATM    4  C3  UNL     1      28.611  -0.349  53.430  1.00  0.00     0.030 A 
HETATM    5  C4  UNL     1      29.530   0.489  54.021  1.00  0.00     0.002 A 
HETATM    6  C5  UNL     1      29.252   1.814  54.074  1.00  0.00     0.001 A 
HETATM    7  C6  UNL     1      28.098   2.330  53.562  1.00  0.00     0.014 A 
BRANCH   3   8
HETATM    8  N1  UNL     1      26.491  -0.781  52.425  1.00  0.00    -0.394 N 
HETATM    9  C1  UNL     1      26.858  -2.175  52.401  1.00  0.00     0.146 C 
HETATM   10  H4  UNL     1      25.524  -0.868  52.065  1.00  0.00     0.159 HD
ENDBRANCH   3   8
ENDBRANCH   1   2
BRANCH   1  11
HETATM   11  C9  UNL     1      25.706   2.529  51.116  1.00  0.00    -0.009 C 
BRANCH  11  12
HETATM   12  C10 UNL     1      25.536   2.930  49.742  1.00  0.00     0.039 C 
HETATM   13  C11 UNL     1      26.667   3.794  49.252  1.00  0.00    -0.017 C 
HETATM   14  C12 UNL     1      27.580   4.684  48.807  1.00  0.00    -0.003 C 
HETATM   15  C13 UNL     1      27.476   6.112  48.503  1.00  0.00     0.000 C 
HETATM   16  C14 UNL     1      26.881   7.264  48.442  1.00  0.00     0.004 C 
HETATM   17  C15 UNL     1      25.569   7.686  48.848  1.00  0.00    -0.055 C 
HETATM   18  C19 UNL     1      25.458   6.440  49.305  1.00  0.00     0.188 C 
HETATM   19  S1  UNL     1      24.282   5.401  50.151  1.00  0.00    -0.231 SA
HETATM   20  C20 UNL     1      24.284   3.760  49.519  1.00  0.00     0.068 C 
BRANCH  17  21
HETATM   21  C16 UNL     1      24.887   8.976  48.706  1.00  0.00     0.146 C 
BRANCH  21  22
HETATM   22  C17 UNL     1      23.408   8.877  48.811  1.00  0.00     0.262 C 
HETATM   23  O1  UNL     1      22.315   8.964  49.404  1.00  0.00    -0.265 OA
BRANCH  22  24
HETATM   24  O2  UNL     1      22.787   8.457  47.636  1.00  0.00    -0.326 OA
HETATM   25  C18 UNL     1      22.008   7.278  47.647  1.00  0.00     0.213 C 
ENDBRANCH  22  24
ENDBRANCH  21  22
ENDBRANCH  17  21
ENDBRANCH  11  12
ENDBRANCH   1  11
BRANCH   1  26
HETATM   26  C21 UNL     1      24.914   2.602  53.230  1.00  0.00     0.150 C 
BRANCH  26  27
HETATM   27  C22 UNL     1      23.804   1.642  52.925  1.00  0.00     0.262 C 
HETATM   28  O3  UNL     1      23.931   0.439  53.276  1.00  0.00    -0.265 OA
BRANCH  27  29
HETATM   29  O4  UNL     1      22.675   2.156  52.255  1.00  0.00    -0.326 OA
HETATM   30  C23 UNL     1      22.064   1.290  51.285  1.00  0.00     0.213 C 
ENDBRANCH  27  29
ENDBRANCH  26  27
ENDBRANCH   1  26
TORSDOF 10
ENDMDL
MODEL 4
REMARK VINA RESULT:      -7.1      1.871      2.614
REMARK  10 active torsions:
REMARK  status: ('A' for Active; 'I' for Inactive)
REMARK    1  A    between atoms: N1_2  and  C2_3 
REMARK    2  A    between atoms: C7_8  and  C8_9 
REMARK    3  A    between atoms: C8_9  and  C9_10 
REMARK    4  A    between atoms: C8_9  and  C21_25 
REMARK    5  A    between atoms: C9_10  and  C10_11 
REMARK    6  A    between atoms: C15_16  and  C16_17 
REMARK    7  A    between atoms: C16_17  and  C17_18 
REMARK    8  A    between atoms: C17_18  and  O2_20 
REMARK    9  A    between atoms: C21_25  and  C22_26 
REMARK   10  A    between atoms: C22_26  and  O4_28 
ROOT
HETATM    1  C8  UNL     1      24.388   3.044  52.183  1.00  0.00    -0.040 C 
ENDROOT
BRANCH   1   2
HETATM    2  C7  UNL     1      24.794   1.924  53.013  1.00  0.00    -0.003 A 
HETATM    3  C2  UNL     1      24.198   0.688  53.077  1.00  0.00     0.038 A 
HETATM    4  C3  UNL     1      24.736  -0.344  53.785  1.00  0.00     0.030 A 
HETATM    5  C4  UNL     1      25.916  -0.157  54.469  1.00  0.00     0.002 A 
HETATM    6  C5  UNL     1      26.506   1.062  54.413  1.00  0.00     0.001 A 
HETATM    7  C6  UNL     1      25.965   2.092  53.702  1.00  0.00     0.014 A 
BRANCH   3   8
HETATM    8  N1  UNL     1      22.903   0.453  52.484  1.00  0.00    -0.394 N 
HETATM    9  C1  UNL     1      22.041  -0.528  53.097  1.00  0.00     0.146 C 
HETATM   10  H4  UNL     1      22.269   0.763  51.726  1.00  0.00     0.159 HD
ENDBRANCH   3   8
ENDBRANCH   1   2
BRANCH   1  11
HETATM   11  C9  UNL     1      24.409   3.342  50.901  1.00  0.00    -0.009 C 
BRANCH  11  12
HETATM   12  C10 UNL     1      24.643   3.637  49.510  1.00  0.00     0.039 C 
HETATM   13  C11 UNL     1      26.090   3.941  49.223  1.00  0.00    -0.017 C 
HETATM   14  C12 UNL     1      27.342   4.357  48.939  1.00  0.00    -0.003 C 
HETATM   15  C13 UNL     1      27.870   5.676  48.582  1.00  0.00     0.000 C 
HETATM   16  C14 UNL     1      27.804   6.955  48.377  1.00  0.00     0.004 C 
HETATM   17  C15 UNL     1      26.723   7.891  48.513  1.00  0.00    -0.055 C 
HETATM   18  C19 UNL     1      26.049   6.839  48.972  1.00  0.00     0.188 C 
HETATM   19  S1  UNL     1      24.433   6.428  49.604  1.00  0.00    -0.231 SA
HETATM   20  C20 UNL     1      23.883   4.860  49.029  1.00  0.00     0.068 C 
BRANCH  17  21
HETATM   21  C16 UNL     1      26.647   9.323  48.208  1.00  0.00     0.146 C 
BRANCH  21  22
HETATM   22  C17 UNL     1      27.818  10.094  48.700  1.00  0.00     0.262 C 
HETATM   23  O1  UNL     1      29.012  10.236  49.032  1.00  0.00    -0.265 OA
BRANCH  22  24
HETATM   24  O2  UNL     1      27.535  11.429  48.983  1.00  0.00    -0.326 OA
HETATM   25  C18 UNL     1      28.580  12.380  48.957  1.00  0.00     0.213 C 
ENDBRANCH  22  24
ENDBRANCH  21  22
ENDBRANCH  17  21
ENDBRANCH  11  12
ENDBRANCH   1  11
BRANCH   1  26
HETATM   26  C21 UNL     1      23.711   4.197  52.872  1.00  0.00     0.150 C 
BRANCH  26  27
HETATM   27  C22 UNL     1      22.312   4.212  52.335  1.00  0.00     0.262 C 
HETATM   28  O3  UNL     1      21.836   5.299  51.914  1.00  0.00    -0.265 OA
BRANCH  27  29
HETATM   29  O4  UNL     1      21.610   2.989  52.337  1.00  0.00    -0.326 OA
HETATM   30  C23 UNL     1      20.176   3.080  52.323  1.00  0.00     0.213 C 
ENDBRANCH  27  29
ENDBRANCH  26  27
ENDBRANCH   1  26
TORSDOF 10
ENDMDL
MODEL 5
REMARK VINA RESULT:      -7.0      2.078      4.153
REMARK  10 active torsions:
REMARK  status: ('A' for Active; 'I' for Inactive)
REMARK    1  A    between atoms: N1_2  and  C2_3 
REMARK    2  A    between atoms: C7_8  and  C8_9 
REMARK    3  A    between atoms: C8_9  and  C9_10 
REMARK    4  A    between atoms: C8_9  and  C21_25 
REMARK    5  A    between atoms: C9_10  and  C10_11 
REMARK    6  A    between atoms: C15_16  and  C16_17 
REMARK    7  A    between atoms: C16_17  and  C17_18 
REMARK    8  A    between atoms: C17_18  and  O2_20 
REMARK    9  A    between atoms: C21_25  and  C22_26 
REMARK   10  A    between atoms: C22_26  and  O4_28 
ROOT
HETATM    1  C8  UNL     1      23.667   1.373  52.686  1.00  0.00    -0.040 C 
ENDROOT
BRANCH   1   2
HETATM    2  C7  UNL     1      22.670   0.563  53.362  1.00  0.00    -0.003 A 
HETATM    3  C2  UNL     1      21.307   0.740  53.331  1.00  0.00     0.038 A 
HETATM    4  C3  UNL     1      20.444  -0.157  53.886  1.00  0.00     0.030 A 
HETATM    5  C4  UNL     1      20.938  -1.282  54.507  1.00  0.00     0.002 A 
HETATM    6  C5  UNL     1      22.282  -1.459  54.544  1.00  0.00     0.001 A 
HETATM    7  C6  UNL     1      23.143  -0.560  53.986  1.00  0.00     0.014 A 
BRANCH   3   8
HETATM    8  N1  UNL     1      20.724   1.950  52.803  1.00  0.00    -0.394 N 
HETATM    9  C1  UNL     1      19.952   1.860  51.589  1.00  0.00     0.146 C 
HETATM   10  H4  UNL     1      20.607   2.963  52.987  1.00  0.00     0.159 HD
ENDBRANCH   3   8
ENDBRANCH   1   2
BRANCH   1  11
HETATM   11  C9  UNL     1      23.773   1.995  51.532  1.00  0.00    -0.009 C 
BRANCH  11  12
HETATM   12  C10 UNL     1      23.694   2.601  50.227  1.00  0.00     0.039 C 
HETATM   13  C11 UNL     1      25.034   3.079  49.733  1.00  0.00    -0.017 C 
HETATM   14  C12 UNL     1      26.180   3.650  49.307  1.00  0.00    -0.003 C 
HETATM   15  C13 UNL     1      26.571   5.054  49.163  1.00  0.00     0.000 C 
HETATM   16  C14 UNL     1      26.417   6.338  49.273  1.00  0.00     0.004 C 
HETATM   17  C15 UNL     1      25.356   7.129  49.833  1.00  0.00    -0.055 C 
HETATM   18  C19 UNL     1      24.835   5.950  50.165  1.00  0.00     0.188 C 
HETATM   19  S1  UNL     1      23.408   5.279  50.996  1.00  0.00    -0.231 SA
HETATM   20  C20 UNL     1      22.805   3.832  50.200  1.00  0.00     0.068 C 
BRANCH  17  21
HETATM   21  C16 UNL     1      25.166   8.581  49.884  1.00  0.00     0.146 C 
BRANCH  21  22
HETATM   22  C17 UNL     1      26.439   9.340  49.993  1.00  0.00     0.262 C 
HETATM   23  O1  UNL     1      27.464   9.737  50.582  1.00  0.00    -0.265 OA
BRANCH  22  24
HETATM   24  O2  UNL     1      26.774  10.047  48.840  1.00  0.00    -0.326 OA
HETATM   25  C18 UNL     1      27.951  10.828  48.822  1.00  0.00     0.213 C 
ENDBRANCH  22  24
ENDBRANCH  21  22
ENDBRANCH  17  21
ENDBRANCH  11  12
ENDBRANCH   1  11
BRANCH   1  26
HETATM   26  C21 UNL     1      24.931   1.676  53.445  1.00  0.00     0.150 C 
BRANCH  26  27
HETATM   27  C22 UNL     1      26.026   1.003  52.674  1.00  0.00     0.262 C 
HETATM   28  O3  UNL     1      26.990   1.699  52.260  1.00  0.00    -0.265 OA
BRANCH  27  29
HETATM   29  O4  UNL     1      25.901  -0.384  52.458  1.00  0.00    -0.326 OA
HETATM   30  C23 UNL     1      27.067  -1.178  52.735  1.00  0.00     0.213 C 
ENDBRANCH  27  29
ENDBRANCH  26  27
ENDBRANCH   1  26
TORSDOF 10
ENDMDL
MODEL 6
REMARK VINA RESULT:      -6.6      3.515      8.621
REMARK  10 active torsions:
REMARK  status: ('A' for Active; 'I' for Inactive)
REMARK    1  A    between atoms: N1_2  and  C2_3 
REMARK    2  A    between atoms: C7_8  and  C8_9 
REMARK    3  A    between atoms: C8_9  and  C9_10 
REMARK    4  A    between atoms: C8_9  and  C21_25 
REMARK    5  A    between atoms: C9_10  and  C10_11 
REMARK    6  A    between atoms: C15_16  and  C16_17 
REMARK    7  A    between atoms: C16_17  and  C17_18 
REMARK    8  A    between atoms: C17_18  and  O2_20 
REMARK    9  A    between atoms: C21_25  and  C22_26 
REMARK   10  A    between atoms: C22_26  and  O4_28 
ROOT
HETATM    1  C8  UNL     1      25.515   3.452  50.653  1.00  0.00    -0.040 C 
ENDROOT
BRANCH   1   2
HETATM    2  C7  UNL     1      26.065   4.469  49.775  1.00  0.00    -0.003 A 
HETATM    3  C2  UNL     1      25.577   5.738  49.578  1.00  0.00     0.038 A 
HETATM    4  C3  UNL     1      26.243   6.668  48.838  1.00  0.00     0.030 A 
HETATM    5  C4  UNL     1      27.447   6.339  48.257  1.00  0.00     0.002 A 
HETATM    6  C5  UNL     1      27.932   5.087  48.445  1.00  0.00     0.001 A 
HETATM    7  C6  UNL     1      27.262   4.160  49.188  1.00  0.00     0.014 A 
BRANCH   3   8
HETATM    8  N1  UNL     1      24.268   6.116  50.056  1.00  0.00    -0.394 N 
HETATM    9  C1  UNL     1      24.184   7.116  51.091  1.00  0.00     0.146 C 
HETATM   10  H4  UNL     1      23.255   5.953  49.915  1.00  0.00     0.159 HD
ENDBRANCH   3   8
ENDBRANCH   1   2
BRANCH   1  11
HETATM   11  C9  UNL     1      24.545   3.374  51.538  1.00  0.00    -0.009 C 
BRANCH  11  12
HETATM   12  C10 UNL     1      23.622   3.183  52.629  1.00  0.00     0.039 C 
HETATM   13  C11 UNL     1      23.447   1.730  52.984  1.00  0.00    -0.017 C 
HETATM   14  C12 UNL     1      23.148   0.440  53.248  1.00  0.00    -0.003 C 
HETATM   15  C13 UNL     1      21.935  -0.344  53.007  1.00  0.00     0.000 C 
HETATM   16  C14 UNL     1      20.738  -0.554  52.551  1.00  0.00     0.004 C 
HETATM   17  C15 UNL     1      19.846   0.275  51.789  1.00  0.00    -0.055 C 
HETATM   18  C19 UNL     1      20.863   1.133  51.786  1.00  0.00     0.188 C 
HETATM   19  S1  UNL     1      21.278   2.749  51.158  1.00  0.00    -0.231 SA
HETATM   20  C20 UNL     1      22.222   3.680  52.313  1.00  0.00     0.068 C 
BRANCH  17  21
HETATM   21  C16 UNL     1      18.468   0.047  51.343  1.00  0.00     0.146 C 
BRANCH  21  22
HETATM   22  C17 UNL     1      17.591  -0.519  52.401  1.00  0.00     0.262 C 
HETATM   23  O1  UNL     1      17.355  -0.999  53.528  1.00  0.00    -0.265 OA
BRANCH  22  24
HETATM   24  O2  UNL     1      16.251  -0.614  52.030  1.00  0.00    -0.326 OA
HETATM   25  C18 UNL     1      15.583  -1.853  52.155  1.00  0.00     0.213 C 
ENDBRANCH  22  24
ENDBRANCH  21  22
ENDBRANCH  17  21
ENDBRANCH  11  12
ENDBRANCH   1  11
BRANCH   1  26
HETATM   26  C21 UNL     1      26.118   2.076  50.567  1.00  0.00     0.150 C 
BRANCH  26  27
HETATM   27  C22 UNL     1      26.902   1.909  51.834  1.00  0.00     0.262 C 
HETATM   28  O3  UNL     1      27.847   2.706  52.070  1.00  0.00    -0.265 OA
BRANCH  27  29
HETATM   29  O4  UNL     1      26.525   0.854  52.689  1.00  0.00    -0.326 OA
HETATM   30  C23 UNL     1      26.752  -0.476  52.196  1.00  0.00     0.213 C 
ENDBRANCH  27  29
ENDBRANCH  26  27
ENDBRANCH   1  26
TORSDOF 10
ENDMDL
MODEL 7
REMARK VINA RESULT:      -6.6      3.858      8.643
REMARK  10 active torsions:
REMARK  status: ('A' for Active; 'I' for Inactive)
REMARK    1  A    between atoms: N1_2  and  C2_3 
REMARK    2  A    between atoms: C7_8  and  C8_9 
REMARK    3  A    between atoms: C8_9  and  C9_10 
REMARK    4  A    between atoms: C8_9  and  C21_25 
REMARK    5  A    between atoms: C9_10  and  C10_11 
REMARK    6  A    between atoms: C15_16  and  C16_17 
REMARK    7  A    between atoms: C16_17  and  C17_18 
REMARK    8  A    between atoms: C17_18  and  O2_20 
REMARK    9  A    between atoms: C21_25  and  C22_26 
REMARK   10  A    between atoms: C22_26  and  O4_28 
ROOT
HETATM    1  C8  UNL     1      24.578   4.401  49.782  1.00  0.00    -0.040 C 
ENDROOT
BRANCH   1   2
HETATM    2  C7  UNL     1      25.682   5.105  49.155  1.00  0.00    -0.003 A 
HETATM    3  C2  UNL     1      25.719   6.434  48.807  1.00  0.00     0.038 A 
HETATM    4  C3  UNL     1      26.853   7.035  48.350  1.00  0.00     0.030 A 
HETATM    5  C4  UNL     1      28.010   6.299  48.222  1.00  0.00     0.002 A 
HETATM    6  C5  UNL     1      27.977   4.987  48.561  1.00  0.00     0.001 A 
HETATM    7  C6  UNL     1      26.841   4.389  49.020  1.00  0.00     0.014 A 
BRANCH   3   8
HETATM    8  N1  UNL     1      24.520   7.237  48.802  1.00  0.00    -0.394 N 
HETATM    9  C1  UNL     1      24.172   7.950  50.006  1.00  0.00     0.146 C 
HETATM   10  H4  UNL     1      23.740   7.559  48.201  1.00  0.00     0.159 HD
ENDBRANCH   3   8
ENDBRANCH   1   2
BRANCH   1  11
HETATM   11  C9  UNL     1      24.118   4.237  51.004  1.00  0.00    -0.009 C 
BRANCH  11  12
HETATM   12  C10 UNL     1      23.789   3.942  52.376  1.00  0.00     0.039 C 
HETATM   13  C11 UNL     1      24.181   2.543  52.771  1.00  0.00    -0.017 C 
HETATM   14  C12 UNL     1      24.382   1.259  53.135  1.00  0.00    -0.003 C 
HETATM   15  C13 UNL     1      23.443   0.169  53.411  1.00  0.00     0.000 C 
HETATM   16  C14 UNL     1      22.274  -0.389  53.482  1.00  0.00     0.004 C 
HETATM   17  C15 UNL     1      20.962   0.092  53.151  1.00  0.00    -0.055 C 
HETATM   18  C19 UNL     1      21.613   1.175  52.733  1.00  0.00     0.188 C 
HETATM   19  S1  UNL     1      21.279   2.761  51.989  1.00  0.00    -0.231 SA
HETATM   20  C20 UNL     1      22.299   4.027  52.658  1.00  0.00     0.068 C 
BRANCH  17  21
HETATM   21  C16 UNL     1      19.643  -0.529  53.306  1.00  0.00     0.146 C 
BRANCH  21  22
HETATM   22  C17 UNL     1      18.721  -0.247  52.175  1.00  0.00     0.262 C 
HETATM   23  O1  UNL     1      18.379   0.319  51.117  1.00  0.00    -0.265 OA
BRANCH  22  24
HETATM   24  O2  UNL     1      17.533  -0.973  52.222  1.00  0.00    -0.326 OA
HETATM   25  C18 UNL     1      16.482  -0.641  51.339  1.00  0.00     0.213 C 
ENDBRANCH  22  24
ENDBRANCH  21  22
ENDBRANCH  17  21
ENDBRANCH  11  12
ENDBRANCH   1  11
BRANCH   1  26
HETATM   26  C21 UNL     1      23.626   3.674  48.872  1.00  0.00     0.150 C 
BRANCH  26  27
HETATM   27  C22 UNL     1      22.680   4.724  48.372  1.00  0.00     0.262 C 
HETATM   28  O3  UNL     1      22.708   5.033  47.152  1.00  0.00    -0.265 OA
BRANCH  27  29
HETATM   29  O4  UNL     1      21.809   5.307  49.315  1.00  0.00    -0.326 OA
HETATM   30  C23 UNL     1      20.443   5.473  48.901  1.00  0.00     0.213 C 
ENDBRANCH  27  29
ENDBRANCH  26  27
ENDBRANCH   1  26
TORSDOF 10
ENDMDL
MODEL 8
REMARK VINA RESULT:      -6.6      3.812      8.255
REMARK  10 active torsions:
REMARK  status: ('A' for Active; 'I' for Inactive)
REMARK    1  A    between atoms: N1_2  and  C2_3 
REMARK    2  A    between atoms: C7_8  and  C8_9 
REMARK    3  A    between atoms: C8_9  and  C9_10 
REMARK    4  A    between atoms: C8_9  and  C21_25 
REMARK    5  A    between atoms: C9_10  and  C10_11 
REMARK    6  A    between atoms: C15_16  and  C16_17 
REMARK    7  A    between atoms: C16_17  and  C17_18 
REMARK    8  A    between atoms: C17_18  and  O2_20 
REMARK    9  A    between atoms: C21_25  and  C22_26 
REMARK   10  A    between atoms: C22_26  and  O4_28 
ROOT
HETATM    1  C8  UNL     1      25.749   0.679  52.072  1.00  0.00    -0.040 C 
ENDROOT
BRANCH   1   2
HETATM    2  C7  UNL     1      26.846  -0.152  52.537  1.00  0.00    -0.003 A 
HETATM    3  C2  UNL     1      27.801   0.189  53.464  1.00  0.00     0.038 A 
HETATM    4  C3  UNL     1      28.708  -0.709  53.938  1.00  0.00     0.030 A 
HETATM    5  C4  UNL     1      28.684  -2.008  53.480  1.00  0.00     0.002 A 
HETATM    6  C5  UNL     1      27.746  -2.348  52.562  1.00  0.00     0.001 A 
HETATM    7  C6  UNL     1      26.838  -1.446  52.091  1.00  0.00     0.014 A 
BRANCH   3   8
HETATM    8  N1  UNL     1      27.963   1.556  53.900  1.00  0.00    -0.394 N 
HETATM    9  C1  UNL     1      29.267   1.978  54.347  1.00  0.00     0.146 C 
HETATM   10  H4  UNL     1      27.464   2.457  54.005  1.00  0.00     0.159 HD
ENDBRANCH   3   8
ENDBRANCH   1   2
BRANCH   1  11
HETATM   11  C9  UNL     1      24.591   1.086  52.543  1.00  0.00    -0.009 C 
BRANCH  11  12
HETATM   12  C10 UNL     1      23.430   1.590  53.233  1.00  0.00     0.039 C 
HETATM   13  C11 UNL     1      22.585   0.489  53.816  1.00  0.00    -0.017 C 
HETATM   14  C12 UNL     1      21.723  -0.461  54.235  1.00  0.00    -0.003 C 
HETATM   15  C13 UNL     1      20.396  -0.850  53.751  1.00  0.00     0.000 C 
HETATM   16  C14 UNL     1      19.377  -0.813  52.948  1.00  0.00     0.004 C 
HETATM   17  C15 UNL     1      19.132  -0.063  51.748  1.00  0.00    -0.055 C 
HETATM   18  C19 UNL     1      20.379   0.369  51.924  1.00  0.00     0.188 C 
HETATM   19  S1  UNL     1      21.570   1.442  51.145  1.00  0.00    -0.231 SA
HETATM   20  C20 UNL     1      22.491   2.364  52.325  1.00  0.00     0.068 C 
BRANCH  17  21
HETATM   21  C16 UNL     1      17.944   0.019  50.892  1.00  0.00     0.146 C 
BRANCH  21  22
HETATM   22  C17 UNL     1      16.671   0.097  51.655  1.00  0.00     0.262 C 
HETATM   23  O1  UNL     1      15.844   0.648  52.409  1.00  0.00    -0.265 OA
BRANCH  22  24
HETATM   24  O2  UNL     1      15.868  -1.034  51.528  1.00  0.00    -0.326 OA
HETATM   25  C18 UNL     1      15.131  -1.231  50.339  1.00  0.00     0.213 C 
ENDBRANCH  22  24
ENDBRANCH  21  22
ENDBRANCH  17  21
ENDBRANCH  11  12
ENDBRANCH   1  11
BRANCH   1  26
HETATM   26  C21 UNL     1      25.908   1.328  50.724  1.00  0.00     0.150 C 
BRANCH  26  27
HETATM   27  C22 UNL     1      26.322   2.740  51.013  1.00  0.00     0.262 C 
HETATM   28  O3  UNL     1      27.467   2.948  51.494  1.00  0.00    -0.265 OA
BRANCH  27  29
HETATM   29  O4  UNL     1      25.389   3.756  50.724  1.00  0.00    -0.326 OA
HETATM   30  C23 UNL     1      24.546   3.538  49.581  1.00  0.00     0.213 C 
ENDBRANCH  27  29
ENDBRANCH  26  27
ENDBRANCH   1  26
TORSDOF 10
ENDMDL
MODEL 9
REMARK VINA RESULT:      -6.6      4.103      6.027
REMARK  10 active torsions:
REMARK  status: ('A' for Active; 'I' for Inactive)
REMARK    1  A    between atoms: N1_2  and  C2_3 
REMARK    2  A    between atoms: C7_8  and  C8_9 
REMARK    3  A    between atoms: C8_9  and  C9_10 
REMARK    4  A    between atoms: C8_9  and  C21_25 
REMARK    5  A    between atoms: C9_10  and  C10_11 
REMARK    6  A    between atoms: C15_16  and  C16_17 
REMARK    7  A    between atoms: C16_17  and  C17_18 
REMARK    8  A    between atoms: C17_18  and  O2_20 
REMARK    9  A    between atoms: C21_25  and  C22_26 
REMARK   10  A    between atoms: C22_26  and  O4_28 
ROOT
HETATM    1  C8  UNL     1      24.235   0.325  53.070  1.00  0.00    -0.040 C 
ENDROOT
BRANCH   1   2
HETATM    2  C7  UNL     1      22.945  -0.165  53.521  1.00  0.00    -0.003 A 
HETATM    3  C2  UNL     1      21.710   0.229  53.067  1.00  0.00     0.038 A 
HETATM    4  C3  UNL     1      20.560  -0.391  53.454  1.00  0.00     0.030 A 
HETATM    5  C4  UNL     1      20.620  -1.449  54.333  1.00  0.00     0.002 A 
HETATM    6  C5  UNL     1      21.837  -1.840  54.786  1.00  0.00     0.001 A 
HETATM    7  C6  UNL     1      22.986  -1.218  54.395  1.00  0.00     0.014 A 
BRANCH   3   8
HETATM    8  N1  UNL     1      21.559   1.403  52.240  1.00  0.00    -0.394 N 
HETATM    9  C1  UNL     1      20.338   2.161  52.351  1.00  0.00     0.146 C 
HETATM   10  H4  UNL     1      22.045   1.993  51.542  1.00  0.00     0.159 HD
ENDBRANCH   3   8
ENDBRANCH   1   2
BRANCH   1  11
HETATM   11  C9  UNL     1      24.732   1.472  52.659  1.00  0.00    -0.009 C 
BRANCH  11  12
HETATM   12  C10 UNL     1      25.077   2.801  52.220  1.00  0.00     0.039 C 
HETATM   13  C11 UNL     1      24.034   3.819  52.598  1.00  0.00    -0.017 C 
HETATM   14  C12 UNL     1      23.069   4.743  52.788  1.00  0.00    -0.003 C 
HETATM   15  C13 UNL     1      22.176   5.422  51.847  1.00  0.00     0.000 C 
HETATM   16  C14 UNL     1      21.650   5.662  50.685  1.00  0.00     0.004 C 
HETATM   17  C15 UNL     1      21.859   5.058  49.398  1.00  0.00    -0.055 C 
HETATM   18  C19 UNL     1      22.666   4.236  50.065  1.00  0.00     0.188 C 
HETATM   19  S1  UNL     1      23.719   2.828  49.771  1.00  0.00    -0.231 SA
HETATM   20  C20 UNL     1      25.203   2.912  50.710  1.00  0.00     0.068 C 
BRANCH  17  21
HETATM   21  C16 UNL     1      21.308   5.390  48.081  1.00  0.00     0.146 C 
BRANCH  21  22
HETATM   22  C17 UNL     1      20.902   4.197  47.293  1.00  0.00     0.262 C 
HETATM   23  O1  UNL     1      20.123   3.283  46.957  1.00  0.00    -0.265 OA
BRANCH  22  24
HETATM   24  O2  UNL     1      21.865   3.771  46.379  1.00  0.00    -0.326 OA
HETATM   25  C18 UNL     1      21.606   3.887  44.995  1.00  0.00     0.213 C 
ENDBRANCH  22  24
ENDBRANCH  21  22
ENDBRANCH  17  21
ENDBRANCH  11  12
ENDBRANCH   1  11
BRANCH   1  26
HETATM   26  C21 UNL     1      25.381  -0.649  53.086  1.00  0.00     0.150 C 
BRANCH  26  27
HETATM   27  C22 UNL     1      26.296  -0.164  54.170  1.00  0.00     0.262 C 
HETATM   28  O3  UNL     1      25.957  -0.336  55.370  1.00  0.00    -0.265 OA
BRANCH  27  29
HETATM   29  O4  UNL     1      27.493   0.464  53.768  1.00  0.00    -0.326 OA
HETATM   30  C23 UNL     1      28.591   0.388  54.691  1.00  0.00     0.213 C 
ENDBRANCH  27  29
ENDBRANCH  26  27
ENDBRANCH   1  26
TORSDOF 10
ENDMDL
