MODEL 1
REMARK VINA RESULT:      -6.8      0.000      0.000
REMARK  7 active torsions:
REMARK  status: ('A' for Active; 'I' for Inactive)
REMARK    1  A    between atoms: C2_2  and  C3_3 
REMARK    2  A    between atoms: C3_3  and  N3_14 
REMARK    3  A    between atoms: C4_4  and  C5_5 
REMARK    4  A    between atoms: C6_6  and  O1_7 
REMARK    5  A    between atoms: O1_7  and  C7_8 
REMARK       I    between atoms: N3_14  and  C11_15 
REMARK       I    between atoms: C11_15  and  N4_17 
REMARK    6  A    between atoms: N4_17  and  C12_18 
REMARK    7  A    between atoms: C12_18  and  C13_19 
ROOT
HETATM    1  C3  UNL     1      24.266   3.023  52.499  1.00  0.00     0.018 C 
HETATM    2  C4  UNL     1      23.451   2.867  51.497  1.00  0.00     0.073 C 
ENDROOT
BRANCH   1   3
HETATM    3  C2  UNL     1      23.558   4.299  52.752  1.00  0.00    -0.001 C 
HETATM    4  C1  UNL     1      23.510   5.338  51.937  1.00  0.00     0.033 C 
ENDBRANCH   1   3
BRANCH   1   5
HETATM    5  N3  UNL     1      25.310   2.811  53.457  1.00  0.00    -0.312 N 
HETATM    6  C11 UNL     1      25.983   1.583  53.485  1.00  0.00     0.320 C 
HETATM    7  O2  UNL     1      25.751   0.615  52.718  1.00  0.00    -0.247 OA
HETATM    8  N4  UNL     1      26.988   1.498  54.482  1.00  0.00    -0.340 N 
HETATM    9  H11 UNL     1      27.174   2.323  55.126  1.00  0.00     0.164 HD
HETATM   10  H10 UNL     1      25.482   3.633  54.076  1.00  0.00     0.170 HD
BRANCH   8  11
HETATM   11  C12 UNL     1      27.774   0.292  54.639  1.00  0.00     0.161 C 
BRANCH  11  12
HETATM   12  C13 UNL     1      29.203   0.428  54.183  1.00  0.00     0.183 C 
HETATM   13  C14 UNL     1      29.760  -0.844  53.612  1.00  0.00     0.046 C 
HETATM   14  F1  UNL     1      29.163   1.332  53.115  1.00  0.00    -0.248 F 
ENDBRANCH  11  12
ENDBRANCH   8  11
ENDBRANCH   1   5
BRANCH   2  15
HETATM   15  C5  UNL     1      23.131   1.951  50.422  1.00  0.00     0.010 C 
HETATM   16  C6  UNL     1      22.149   1.354  51.105  1.00  0.00     0.141 C 
BRANCH  16  17
HETATM   17  O1  UNL     1      21.485   1.367  52.318  1.00  0.00    -0.304 OA
BRANCH  17  18
HETATM   18  C7  UNL     1      21.429   0.263  53.175  1.00  0.00     0.171 A 
HETATM   19  C8  UNL     1      22.569  -0.020  53.889  1.00  0.00     0.077 A 
HETATM   20  C9  UNL     1      22.615  -1.084  54.758  1.00  0.00     0.122 A 
HETATM   21  N1  UNL     1      21.501  -1.810  54.862  1.00  0.00    -0.254 NA
HETATM   22  C10 UNL     1      20.360  -1.573  54.185  1.00  0.00     0.235 A 
HETATM   23  N2  UNL     1      20.353  -0.524  53.345  1.00  0.00    -0.218 NA
ENDBRANCH  17  18
ENDBRANCH  16  17
ENDBRANCH   2  15
TORSDOF 7
ENDMDL
MODEL 2
REMARK VINA RESULT:      -6.7      2.172      3.388
REMARK  7 active torsions:
REMARK  status: ('A' for Active; 'I' for Inactive)
REMARK    1  A    between atoms: C2_2  and  C3_3 
REMARK    2  A    between atoms: C3_3  and  N3_14 
REMARK    3  A    between atoms: C4_4  and  C5_5 
REMARK    4  A    between atoms: C6_6  and  O1_7 
REMARK    5  A    between atoms: O1_7  and  C7_8 
REMARK       I    between atoms: N3_14  and  C11_15 
REMARK       I    between atoms: C11_15  and  N4_17 
REMARK    6  A    between atoms: N4_17  and  C12_18 
REMARK    7  A    between atoms: C12_18  and  C13_19 
ROOT
HETATM    1  C3  UNL     1      23.793   0.405  53.444  1.00  0.00     0.018 C 
HETATM    2  C4  UNL     1      22.714  -0.293  53.646  1.00  0.00     0.073 C 
ENDROOT
BRANCH   1   3
HETATM    3  C2  UNL     1      22.947   1.297  52.619  1.00  0.00    -0.001 C 
HETATM    4  C1  UNL     1      22.518   1.049  51.394  1.00  0.00     0.033 C 
ENDBRANCH   1   3
BRANCH   1   5
HETATM    5  N3  UNL     1      25.150   0.864  53.480  1.00  0.00    -0.312 N 
HETATM    6  C11 UNL     1      26.099   0.157  54.230  1.00  0.00     0.320 C 
HETATM    7  O2  UNL     1      25.863  -0.881  54.897  1.00  0.00    -0.247 OA
HETATM    8  N4  UNL     1      27.401   0.717  54.188  1.00  0.00    -0.340 N 
HETATM    9  H11 UNL     1      27.587   1.597  53.621  1.00  0.00     0.164 HD
HETATM   10  H10 UNL     1      25.314   1.724  52.914  1.00  0.00     0.170 HD
BRANCH   8  11
HETATM   11  C12 UNL     1      28.493   0.102  54.913  1.00  0.00     0.161 C 
BRANCH  11  12
HETATM   12  C13 UNL     1      29.605  -0.404  54.032  1.00  0.00     0.183 C 
HETATM   13  C14 UNL     1      29.251  -1.673  53.311  1.00  0.00     0.046 C 
HETATM   14  F1  UNL     1      29.753   0.565  53.034  1.00  0.00    -0.248 F 
ENDBRANCH  11  12
ENDBRANCH   8  11
ENDBRANCH   1   5
BRANCH   2  15
HETATM   15  C5  UNL     1      22.234  -1.475  54.331  1.00  0.00     0.010 C 
HETATM   16  C6  UNL     1      20.948  -1.132  54.209  1.00  0.00     0.141 C 
BRANCH  16  17
HETATM   17  O1  UNL     1      20.113  -0.150  53.708  1.00  0.00    -0.304 OA
BRANCH  17  18
HETATM   18  C7  UNL     1      18.952  -0.427  52.977  1.00  0.00     0.171 A 
HETATM   19  C8  UNL     1      18.879   0.110  51.714  1.00  0.00     0.077 A 
HETATM   20  C9  UNL     1      17.780  -0.103  50.917  1.00  0.00     0.122 A 
HETATM   21  N1  UNL     1      16.808  -0.852  51.438  1.00  0.00    -0.254 NA
HETATM   22  C10 UNL     1      16.833  -1.400  52.670  1.00  0.00     0.235 A 
HETATM   23  N2  UNL     1      17.924  -1.170  53.420  1.00  0.00    -0.218 NA
ENDBRANCH  17  18
ENDBRANCH  16  17
ENDBRANCH   2  15
TORSDOF 7
ENDMDL
MODEL 3
REMARK VINA RESULT:      -6.4      3.031      5.078
REMARK  7 active torsions:
REMARK  status: ('A' for Active; 'I' for Inactive)
REMARK    1  A    between atoms: C2_2  and  C3_3 
REMARK    2  A    between atoms: C3_3  and  N3_14 
REMARK    3  A    between atoms: C4_4  and  C5_5 
REMARK    4  A    between atoms: C6_6  and  O1_7 
REMARK    5  A    between atoms: O1_7  and  C7_8 
REMARK       I    between atoms: N3_14  and  C11_15 
REMARK       I    between atoms: C11_15  and  N4_17 
REMARK    6  A    between atoms: N4_17  and  C12_18 
REMARK    7  A    between atoms: C12_18  and  C13_19 
ROOT
HETATM    1  C3  UNL     1      27.225   1.391  52.694  1.00  0.00     0.018 C 
HETATM    2  C4  UNL     1      27.458   0.117  52.827  1.00  0.00     0.073 C 
ENDROOT
BRANCH   1   3
HETATM    3  C2  UNL     1      28.513   1.602  53.394  1.00  0.00    -0.001 C 
HETATM    4  C1  UNL     1      28.935   0.947  54.462  1.00  0.00     0.033 C 
ENDBRANCH   1   3
BRANCH   1   5
HETATM    5  N3  UNL     1      26.610   2.639  52.352  1.00  0.00    -0.312 N 
HETATM    6  C11 UNL     1      26.481   2.999  51.004  1.00  0.00     0.320 C 
HETATM    7  O2  UNL     1      26.865   2.302  50.032  1.00  0.00    -0.247 OA
HETATM    8  N4  UNL     1      25.863   4.259  50.800  1.00  0.00    -0.340 N 
HETATM    9  H11 UNL     1      25.545   4.839  51.632  1.00  0.00     0.164 HD
HETATM   10  H10 UNL     1      26.300   3.192  53.179  1.00  0.00     0.170 HD
BRANCH   8  11
HETATM   11  C12 UNL     1      25.658   4.772  49.462  1.00  0.00     0.161 C 
BRANCH  11  12
HETATM   12  C13 UNL     1      26.651   5.828  49.052  1.00  0.00     0.183 C 
HETATM   13  C14 UNL     1      27.886   5.258  48.417  1.00  0.00     0.046 C 
HETATM   14  F1  UNL     1      26.014   6.560  48.043  1.00  0.00    -0.248 F 
ENDBRANCH  11  12
ENDBRANCH   8  11
ENDBRANCH   1   5
BRANCH   2  15
HETATM   15  C5  UNL     1      26.892  -1.181  52.525  1.00  0.00     0.010 C 
HETATM   16  C6  UNL     1      25.711  -0.894  53.081  1.00  0.00     0.141 C 
BRANCH  16  17
HETATM   17  O1  UNL     1      25.017   0.105  53.738  1.00  0.00    -0.304 OA
BRANCH  17  18
HETATM   18  C7  UNL     1      23.764   0.571  53.325  1.00  0.00     0.171 A 
HETATM   19  C8  UNL     1      22.667  -0.103  53.807  1.00  0.00     0.077 A 
HETATM   20  C9  UNL     1      21.393   0.277  53.459  1.00  0.00     0.122 A 
HETATM   21  N1  UNL     1      21.292   1.325  52.639  1.00  0.00    -0.254 NA
HETATM   22  C10 UNL     1      22.336   2.017  52.141  1.00  0.00     0.235 A 
HETATM   23  N2  UNL     1      23.566   1.617  52.503  1.00  0.00    -0.218 NA
ENDBRANCH  17  18
ENDBRANCH  16  17
ENDBRANCH   2  15
TORSDOF 7
ENDMDL
MODEL 4
REMARK VINA RESULT:      -6.4      3.146      5.777
REMARK  7 active torsions:
REMARK  status: ('A' for Active; 'I' for Inactive)
REMARK    1  A    between atoms: C2_2  and  C3_3 
REMARK    2  A    between atoms: C3_3  and  N3_14 
REMARK    3  A    between atoms: C4_4  and  C5_5 
REMARK    4  A    between atoms: C6_6  and  O1_7 
REMARK    5  A    between atoms: O1_7  and  C7_8 
REMARK       I    between atoms: N3_14  and  C11_15 
REMARK       I    between atoms: C11_15  and  N4_17 
REMARK    6  A    between atoms: N4_17  and  C12_18 
REMARK    7  A    between atoms: C12_18  and  C13_19 
ROOT
HETATM    1  C3  UNL     1      24.637   2.900  52.982  1.00  0.00     0.018 C 
HETATM    2  C4  UNL     1      23.813   3.716  52.391  1.00  0.00     0.073 C 
ENDROOT
BRANCH   1   3
HETATM    3  C2  UNL     1      24.087   1.851  52.093  1.00  0.00    -0.001 C 
HETATM    4  C1  UNL     1      23.522   0.721  52.480  1.00  0.00     0.033 C 
ENDBRANCH   1   3
BRANCH   1   5
HETATM    5  N3  UNL     1      25.647   2.369  53.848  1.00  0.00    -0.312 N 
HETATM    6  C11 UNL     1      26.935   2.136  53.348  1.00  0.00     0.320 C 
HETATM    7  O2  UNL     1      27.301   2.361  52.167  1.00  0.00    -0.247 OA
HETATM    8  N4  UNL     1      27.838   1.603  54.303  1.00  0.00    -0.340 N 
HETATM    9  H11 UNL     1      27.514   1.415  55.298  1.00  0.00     0.164 HD
HETATM   10  H10 UNL     1      25.314   2.196  54.821  1.00  0.00     0.170 HD
BRANCH   8  11
HETATM   11  C12 UNL     1      29.208   1.307  53.939  1.00  0.00     0.161 C 
BRANCH  11  12
HETATM   12  C13 UNL     1      29.552  -0.158  53.991  1.00  0.00     0.183 C 
HETATM   13  C14 UNL     1      28.537  -1.024  53.302  1.00  0.00     0.046 C 
HETATM   14  F1  UNL     1      30.726  -0.286  53.240  1.00  0.00    -0.248 F 
ENDBRANCH  11  12
ENDBRANCH   8  11
ENDBRANCH   1   5
BRANCH   2  15
HETATM   15  C5  UNL     1      23.389   5.100  52.385  1.00  0.00     0.010 C 
HETATM   16  C6  UNL     1      23.787   5.309  51.127  1.00  0.00     0.141 C 
BRANCH  16  17
HETATM   17  O1  UNL     1      24.377   4.690  50.041  1.00  0.00    -0.304 OA
BRANCH  17  18
HETATM   18  C7  UNL     1      25.519   5.183  49.401  1.00  0.00     0.171 A 
HETATM   19  C8  UNL     1      26.590   4.327  49.308  1.00  0.00     0.077 A 
HETATM   20  C9  UNL     1      27.758   4.717  48.698  1.00  0.00     0.122 A 
HETATM   21  N1  UNL     1      27.784   5.958  48.210  1.00  0.00    -0.254 NA
HETATM   22  C10 UNL     1      26.761   6.834  48.276  1.00  0.00     0.235 A 
HETATM   23  N2  UNL     1      25.636   6.417  48.879  1.00  0.00    -0.218 NA
ENDBRANCH  17  18
ENDBRANCH  16  17
ENDBRANCH   2  15
TORSDOF 7
ENDMDL
MODEL 5
REMARK VINA RESULT:      -6.4      2.426      3.589
REMARK  7 active torsions:
REMARK  status: ('A' for Active; 'I' for Inactive)
REMARK    1  A    between atoms: C2_2  and  C3_3 
REMARK    2  A    between atoms: C3_3  and  N3_14 
REMARK    3  A    between atoms: C4_4  and  C5_5 
REMARK    4  A    between atoms: C6_6  and  O1_7 
REMARK    5  A    between atoms: O1_7  and  C7_8 
REMARK       I    between atoms: N3_14  and  C11_15 
REMARK       I    between atoms: C11_15  and  N4_17 
REMARK    6  A    between atoms: N4_17  and  C12_18 
REMARK    7  A    between atoms: C12_18  and  C13_19 
ROOT
HETATM    1  C3  UNL     1      23.973   0.210  53.185  1.00  0.00     0.018 C 
HETATM    2  C4  UNL     1      23.258   0.926  52.366  1.00  0.00     0.073 C 
ENDROOT
BRANCH   1   3
HETATM    3  C2  UNL     1      22.692  -0.143  53.841  1.00  0.00    -0.001 C 
HETATM    4  C1  UNL     1      21.796  -1.000  53.386  1.00  0.00     0.033 C 
ENDBRANCH   1   3
BRANCH   1   5
HETATM    5  N3  UNL     1      25.081  -0.425  53.835  1.00  0.00    -0.312 N 
HETATM    6  C11 UNL     1      26.257   0.301  54.063  1.00  0.00     0.320 C 
HETATM    7  O2  UNL     1      26.436   1.503  53.742  1.00  0.00    -0.247 OA
HETATM    8  N4  UNL     1      27.278  -0.442  54.707  1.00  0.00    -0.340 N 
HETATM    9  H11 UNL     1      27.114  -1.458  54.971  1.00  0.00     0.164 HD
HETATM   10  H10 UNL     1      24.900  -1.419  54.092  1.00  0.00     0.170 HD
BRANCH   8  11
HETATM   11  C12 UNL     1      28.556   0.169  55.012  1.00  0.00     0.161 C 
BRANCH  11  12
HETATM   12  C13 UNL     1      29.652  -0.192  54.045  1.00  0.00     0.183 C 
HETATM   13  C14 UNL     1      29.427  -1.512  53.367  1.00  0.00     0.046 C 
HETATM   14  F1  UNL     1      29.577   0.769  53.030  1.00  0.00    -0.248 F 
ENDBRANCH  11  12
ENDBRANCH   8  11
ENDBRANCH   1   5
BRANCH   2  15
HETATM   15  C5  UNL     1      23.377   1.798  51.216  1.00  0.00     0.010 C 
HETATM   16  C6  UNL     1      22.245   2.455  51.487  1.00  0.00     0.141 C 
BRANCH  16  17
HETATM   17  O1  UNL     1      21.196   2.519  52.385  1.00  0.00    -0.304 OA
BRANCH  17  18
HETATM   18  C7  UNL     1      19.852   2.436  52.006  1.00  0.00     0.171 A 
HETATM   19  C8  UNL     1      19.403   1.203  51.598  1.00  0.00     0.077 A 
HETATM   20  C9  UNL     1      18.099   1.018  51.205  1.00  0.00     0.122 A 
HETATM   21  N1  UNL     1      17.312   2.094  51.244  1.00  0.00    -0.254 NA
HETATM   22  C10 UNL     1      17.705   3.323  51.636  1.00  0.00     0.235 A 
HETATM   23  N2  UNL     1      18.986   3.465  52.014  1.00  0.00    -0.218 NA
ENDBRANCH  17  18
ENDBRANCH  16  17
ENDBRANCH   2  15
TORSDOF 7
ENDMDL
MODEL 6
REMARK VINA RESULT:      -6.4      2.750      5.242
REMARK  7 active torsions:
REMARK  status: ('A' for Active; 'I' for Inactive)
REMARK    1  A    between atoms: C2_2  and  C3_3 
REMARK    2  A    between atoms: C3_3  and  N3_14 
REMARK    3  A    between atoms: C4_4  and  C5_5 
REMARK    4  A    between atoms: C6_6  and  O1_7 
REMARK    5  A    between atoms: O1_7  and  C7_8 
REMARK       I    between atoms: N3_14  and  C11_15 
REMARK       I    between atoms: C11_15  and  N4_17 
REMARK    6  A    between atoms: N4_17  and  C12_18 
REMARK    7  A    between atoms: C12_18  and  C13_19 
ROOT
HETATM    1  C3  UNL     1      23.871   2.880  50.303  1.00  0.00     0.018 C 
HETATM    2  C4  UNL     1      24.983   3.498  50.029  1.00  0.00     0.073 C 
ENDROOT
BRANCH   1   3
HETATM    3  C2  UNL     1      23.278   4.226  50.478  1.00  0.00    -0.001 C 
HETATM    4  C1  UNL     1      23.597   5.101  51.415  1.00  0.00     0.033 C 
ENDBRANCH   1   3
BRANCH   1   5
HETATM    5  N3  UNL     1      22.900   1.852  50.531  1.00  0.00    -0.312 N 
HETATM    6  C11 UNL     1      22.553   1.509  51.844  1.00  0.00     0.320 C 
HETATM    7  O2  UNL     1      23.029   2.041  52.878  1.00  0.00    -0.247 OA
HETATM    8  N4  UNL     1      21.587   0.474  51.934  1.00  0.00    -0.340 N 
HETATM    9  H11 UNL     1      21.194   0.031  51.051  1.00  0.00     0.164 HD
HETATM   10  H10 UNL     1      22.522   1.434  49.654  1.00  0.00     0.170 HD
BRANCH   8  11
HETATM   11  C12 UNL     1      21.124   0.006  53.223  1.00  0.00     0.161 C 
BRANCH  11  12
HETATM   12  C13 UNL     1      21.799  -1.255  53.695  1.00  0.00     0.183 C 
HETATM   13  C14 UNL     1      22.900  -0.998  54.682  1.00  0.00     0.046 C 
HETATM   14  F1  UNL     1      20.815  -1.955  54.403  1.00  0.00    -0.248 F 
ENDBRANCH  11  12
ENDBRANCH   8  11
ENDBRANCH   1   5
BRANCH   2  15
HETATM   15  C5  UNL     1      26.365   3.251  49.672  1.00  0.00     0.010 C 
HETATM   16  C6  UNL     1      26.691   2.800  50.886  1.00  0.00     0.141 C 
BRANCH  16  17
HETATM   17  O1  UNL     1      26.175   2.553  52.145  1.00  0.00    -0.304 OA
BRANCH  17  18
HETATM   18  C7  UNL     1      26.473   1.405  52.887  1.00  0.00     0.171 A 
HETATM   19  C8  UNL     1      26.191   0.198  52.294  1.00  0.00     0.077 A 
HETATM   20  C9  UNL     1      26.447  -0.987  52.941  1.00  0.00     0.122 A 
HETATM   21  N1  UNL     1      26.978  -0.891  54.161  1.00  0.00    -0.254 NA
HETATM   22  C10 UNL     1      27.272   0.268  54.785  1.00  0.00     0.235 A 
HETATM   23  N2  UNL     1      27.008   1.405  54.121  1.00  0.00    -0.218 NA
ENDBRANCH  17  18
ENDBRANCH  16  17
ENDBRANCH   2  15
TORSDOF 7
ENDMDL
MODEL 7
REMARK VINA RESULT:      -6.2      3.451      6.178
REMARK  7 active torsions:
REMARK  status: ('A' for Active; 'I' for Inactive)
REMARK    1  A    between atoms: C2_2  and  C3_3 
REMARK    2  A    between atoms: C3_3  and  N3_14 
REMARK    3  A    between atoms: C4_4  and  C5_5 
REMARK    4  A    between atoms: C6_6  and  O1_7 
REMARK    5  A    between atoms: O1_7  and  C7_8 
REMARK       I    between atoms: N3_14  and  C11_15 
REMARK       I    between atoms: C11_15  and  N4_17 
REMARK    6  A    between atoms: N4_17  and  C12_18 
REMARK    7  A    between atoms: C12_18  and  C13_19 
ROOT
HETATM    1  C3  UNL     1      24.448   3.439  52.281  1.00  0.00     0.018 C 
HETATM    2  C4  UNL     1      24.032   3.592  51.058  1.00  0.00     0.073 C 
ENDROOT
BRANCH   1   3
HETATM    3  C2  UNL     1      23.442   4.462  52.649  1.00  0.00    -0.001 C 
HETATM    4  C1  UNL     1      22.150   4.416  52.377  1.00  0.00     0.033 C 
ENDBRANCH   1   3
BRANCH   1   5
HETATM    5  N3  UNL     1      25.168   2.982  53.433  1.00  0.00    -0.312 N 
HETATM    6  C11 UNL     1      25.864   1.769  53.375  1.00  0.00     0.320 C 
HETATM    7  O2  UNL     1      25.922   1.017  52.370  1.00  0.00    -0.247 OA
HETATM    8  N4  UNL     1      26.530   1.427  54.581  1.00  0.00    -0.340 N 
HETATM    9  H11 UNL     1      26.471   2.071  55.424  1.00  0.00     0.164 HD
HETATM   10  H10 UNL     1      25.104   3.629  54.248  1.00  0.00     0.170 HD
BRANCH   8  11
HETATM   11  C12 UNL     1      27.294   0.201  54.681  1.00  0.00     0.161 C 
BRANCH  11  12
HETATM   12  C13 UNL     1      28.785   0.404  54.635  1.00  0.00     0.183 C 
HETATM   13  C14 UNL     1      29.485  -0.582  53.746  1.00  0.00     0.046 C 
HETATM   14  F1  UNL     1      28.968   1.652  54.028  1.00  0.00    -0.248 F 
ENDBRANCH  11  12
ENDBRANCH   8  11
ENDBRANCH   1   5
BRANCH   2  15
HETATM   15  C5  UNL     1      24.258   3.112  49.710  1.00  0.00     0.010 C 
HETATM   16  C6  UNL     1      24.659   4.304  49.259  1.00  0.00     0.141 C 
BRANCH  16  17
HETATM   17  O1  UNL     1      24.874   5.614  49.647  1.00  0.00    -0.304 OA
BRANCH  17  18
HETATM   18  C7  UNL     1      26.030   6.332  49.325  1.00  0.00     0.171 A 
HETATM   19  C8  UNL     1      27.008   5.649  48.641  1.00  0.00     0.077 A 
HETATM   20  C9  UNL     1      28.181   6.266  48.278  1.00  0.00     0.122 A 
HETATM   21  N1  UNL     1      28.307   7.548  48.626  1.00  0.00    -0.254 NA
HETATM   22  C10 UNL     1      27.378   8.260  49.296  1.00  0.00     0.235 A 
HETATM   23  N2  UNL     1      26.244   7.623  49.633  1.00  0.00    -0.218 NA
ENDBRANCH  17  18
ENDBRANCH  16  17
ENDBRANCH   2  15
TORSDOF 7
ENDMDL
MODEL 8
REMARK VINA RESULT:      -6.2      2.596      4.273
REMARK  7 active torsions:
REMARK  status: ('A' for Active; 'I' for Inactive)
REMARK    1  A    between atoms: C2_2  and  C3_3 
REMARK    2  A    between atoms: C3_3  and  N3_14 
REMARK    3  A    between atoms: C4_4  and  C5_5 
REMARK    4  A    between atoms: C6_6  and  O1_7 
REMARK    5  A    between atoms: O1_7  and  C7_8 
REMARK       I    between atoms: N3_14  and  C11_15 
REMARK       I    between atoms: C11_15  and  N4_17 
REMARK    6  A    between atoms: N4_17  and  C12_18 
REMARK    7  A    between atoms: C12_18  and  C13_19 
ROOT
HETATM    1  C3  UNL     1      24.154   1.392  53.231  1.00  0.00     0.018 C 
HETATM    2  C4  UNL     1      23.606   2.510  52.855  1.00  0.00     0.073 C 
ENDROOT
BRANCH   1   3
HETATM    3  C2  UNL     1      22.778   0.845  53.278  1.00  0.00    -0.001 C 
HETATM    4  C1  UNL     1      22.331  -0.195  52.597  1.00  0.00     0.033 C 
ENDBRANCH   1   3
BRANCH   1   5
HETATM    5  N3  UNL     1      25.119   0.400  53.603  1.00  0.00    -0.312 N 
HETATM    6  C11 UNL     1      26.381   0.801  54.060  1.00  0.00     0.320 C 
HETATM    7  O2  UNL     1      26.758   1.993  54.183  1.00  0.00    -0.247 OA
HETATM    8  N4  UNL     1      27.244  -0.275  54.389  1.00  0.00    -0.340 N 
HETATM    9  H11 UNL     1      26.913  -1.279  54.279  1.00  0.00     0.164 HD
HETATM   10  H10 UNL     1      24.775  -0.578  53.494  1.00  0.00     0.170 HD
BRANCH   8  11
HETATM   11  C12 UNL     1      28.584  -0.024  54.877  1.00  0.00     0.161 C 
BRANCH  11  12
HETATM   12  C13 UNL     1      29.666  -0.670  54.052  1.00  0.00     0.183 C 
HETATM   13  C14 UNL     1      29.162  -1.802  53.205  1.00  0.00     0.046 C 
HETATM   14  F1  UNL     1      30.079   0.318  53.151  1.00  0.00    -0.248 F 
ENDBRANCH  11  12
ENDBRANCH   8  11
ENDBRANCH   1   5
BRANCH   2  15
HETATM   15  C5  UNL     1      23.936   3.870  52.480  1.00  0.00     0.010 C 
HETATM   16  C6  UNL     1      23.918   3.607  51.170  1.00  0.00     0.141 C 
BRANCH  16  17
HETATM   17  O1  UNL     1      23.713   2.593  50.253  1.00  0.00    -0.304 OA
BRANCH  17  18
HETATM   18  C7  UNL     1      22.676   2.602  49.314  1.00  0.00     0.171 A 
HETATM   19  C8  UNL     1      21.556   1.869  49.627  1.00  0.00     0.077 A 
HETATM   20  C9  UNL     1      20.483   1.814  48.771  1.00  0.00     0.122 A 
HETATM   21  N1  UNL     1      20.597   2.507  47.636  1.00  0.00    -0.254 NA
HETATM   22  C10 UNL     1      21.672   3.239  47.285  1.00  0.00     0.235 A 
HETATM   23  N2  UNL     1      22.702   3.270  48.147  1.00  0.00    -0.218 NA
ENDBRANCH  17  18
ENDBRANCH  16  17
ENDBRANCH   2  15
TORSDOF 7
ENDMDL
MODEL 9
REMARK VINA RESULT:      -6.1      3.911      5.407
REMARK  7 active torsions:
REMARK  status: ('A' for Active; 'I' for Inactive)
REMARK    1  A    between atoms: C2_2  and  C3_3 
REMARK    2  A    between atoms: C3_3  and  N3_14 
REMARK    3  A    between atoms: C4_4  and  C5_5 
REMARK    4  A    between atoms: C6_6  and  O1_7 
REMARK    5  A    between atoms: O1_7  and  C7_8 
REMARK       I    between atoms: N3_14  and  C11_15 
REMARK       I    between atoms: C11_15  and  N4_17 
REMARK    6  A    between atoms: N4_17  and  C12_18 
REMARK    7  A    between atoms: C12_18  and  C13_19 
ROOT
HETATM    1  C3  UNL     1      25.729   3.458  50.728  1.00  0.00     0.018 C 
HETATM    2  C4  UNL     1      25.955   2.295  51.267  1.00  0.00     0.073 C 
ENDROOT
BRANCH   1   3
HETATM    3  C2  UNL     1      24.396   2.923  50.365  1.00  0.00    -0.001 C 
HETATM    4  C1  UNL     1      23.767   3.114  49.219  1.00  0.00     0.033 C 
ENDBRANCH   1   3
BRANCH   1   5
HETATM    5  N3  UNL     1      25.884   4.810  50.281  1.00  0.00    -0.312 N 
HETATM    6  C11 UNL     1      26.842   5.109  49.304  1.00  0.00     0.320 C 
HETATM    7  O2  UNL     1      27.604   4.271  48.760  1.00  0.00    -0.247 OA
HETATM    8  N4  UNL     1      26.900   6.482  48.954  1.00  0.00    -0.340 N 
HETATM    9  H11 UNL     1      26.252   7.182  49.423  1.00  0.00     0.164 HD
HETATM   10  H10 UNL     1      25.236   5.481  50.747  1.00  0.00     0.170 HD
BRANCH   8  11
HETATM   11  C12 UNL     1      27.841   6.951  47.957  1.00  0.00     0.161 C 
BRANCH  11  12
HETATM   12  C13 UNL     1      28.687   8.111  48.413  1.00  0.00     0.183 C 
HETATM   13  C14 UNL     1      28.002   8.972  49.434  1.00  0.00     0.046 C 
HETATM   14  F1  UNL     1      29.774   7.533  49.078  1.00  0.00    -0.248 F 
ENDBRANCH  11  12
ENDBRANCH   8  11
ENDBRANCH   1   5
BRANCH   2  15
HETATM   15  C5  UNL     1      26.970   1.551  51.983  1.00  0.00     0.010 C 
HETATM   16  C6  UNL     1      26.102   0.652  52.456  1.00  0.00     0.141 C 
BRANCH  16  17
HETATM   17  O1  UNL     1      24.764   0.305  52.454  1.00  0.00    -0.304 OA
BRANCH  17  18
HETATM   18  C7  UNL     1      24.124  -0.300  53.540  1.00  0.00     0.171 A 
HETATM   19  C8  UNL     1      22.750  -0.338  53.502  1.00  0.00     0.077 A 
HETATM   20  C9  UNL     1      22.028  -0.911  54.522  1.00  0.00     0.122 A 
HETATM   21  N1  UNL     1      22.735  -1.419  55.533  1.00  0.00    -0.254 NA
HETATM   22  C10 UNL     1      24.080  -1.407  55.616  1.00  0.00     0.235 A 
HETATM   23  N2  UNL     1      24.752  -0.839  54.600  1.00  0.00    -0.218 NA
ENDBRANCH  17  18
ENDBRANCH  16  17
ENDBRANCH   2  15
TORSDOF 7
ENDMDL
