MODEL 1
REMARK VINA RESULT:      -8.2      0.000      0.000
REMARK  6 active torsions:
REMARK  status: ('A' for Active; 'I' for Inactive)
REMARK    1  A    between atoms: N1_2  and  C3_4 
REMARK    2  A    between atoms: C3_4  and  C4_5 
REMARK    3  A    between atoms: C4_5  and  O1_6 
REMARK    4  A    between atoms: O1_6  and  C5_7 
REMARK    5  A    between atoms: C11_13  and  N2_14 
REMARK    6  A    between atoms: N2_14  and  C12_15 
ROOT
HETATM    1  C5  UNL     1      24.576  -0.475  54.417  1.00  0.00     0.069 A 
HETATM    2  C6  UNL     1      23.376  -1.056  54.685  1.00  0.00     0.039 A 
HETATM    3  C7  UNL     1      22.217  -0.879  53.969  1.00  0.00     0.035 A 
HETATM    4  C8  UNL     1      22.227  -0.046  52.876  1.00  0.00     0.063 A 
HETATM    5  C9  UNL     1      23.396   0.597  52.513  1.00  0.00     0.017 A 
HETATM    6  C10 UNL     1      24.537   0.364  53.295  1.00  0.00     0.052 A 
HETATM    7  C11 UNL     1      23.584   1.416  51.501  1.00  0.00     0.022 C 
HETATM    8  C18 UNL     1      22.586   1.848  50.492  1.00  0.00     0.059 C 
HETATM    9  C19 UNL     1      21.609   0.743  50.125  1.00  0.00     0.028 C 
HETATM   10  C20 UNL     1      20.561   0.703  51.200  1.00  0.00     0.150 C 
HETATM   11  N3  UNL     1      21.053  -0.018  52.352  1.00  0.00    -0.289 NA
ENDROOT
BRANCH   7  12
HETATM   12  N2  UNL     1      24.868   1.949  51.331  1.00  0.00    -0.359 N 
HETATM   13  H14 UNL     1      25.848   1.679  51.658  1.00  0.00     0.166 HD
BRANCH  12  14
HETATM   14  C12 UNL     1      25.364   3.096  50.619  1.00  0.00     0.033 A 
HETATM   15  C13 UNL     1      26.413   3.152  49.715  1.00  0.00     0.029 A 
HETATM   16  C14 UNL     1      26.752   4.342  49.130  1.00  0.00     0.004 A 
HETATM   17  C15 UNL     1      26.099   5.526  49.387  1.00  0.00     0.019 A 
HETATM   18  C16 UNL     1      25.047   5.539  50.277  1.00  0.00     0.013 A 
HETATM   19 BR1  UNL     1      24.045   7.097  50.737  1.00  0.00    -0.051 Br
HETATM   20  C17 UNL     1      24.721   4.308  50.862  1.00  0.00     0.048 A 
ENDBRANCH  12  14
ENDBRANCH   7  12
BRANCH   1  21
HETATM   21  O1  UNL     1      25.815  -0.496  54.950  1.00  0.00    -0.350 OA
BRANCH  21  22
HETATM   22  C4  UNL     1      26.749   0.511  54.887  1.00  0.00     0.195 C 
BRANCH  22  23
HETATM   23  C3  UNL     1      28.154  -0.034  54.980  1.00  0.00     0.142 C 
BRANCH  23  24
HETATM   24  N1  UNL     1      28.961   0.570  53.985  1.00  0.00    -0.419 N 
HETATM   25  C1  UNL     1      30.048  -0.114  53.433  1.00  0.00     0.142 C 
HETATM   26  C2  UNL     1      28.606   1.844  53.504  1.00  0.00     0.142 C 
ENDBRANCH  23  24
ENDBRANCH  22  23
ENDBRANCH  21  22
ENDBRANCH   1  21
TORSDOF 6
ENDMDL
MODEL 2
REMARK VINA RESULT:      -8.0      1.290      1.854
REMARK  6 active torsions:
REMARK  status: ('A' for Active; 'I' for Inactive)
REMARK    1  A    between atoms: N1_2  and  C3_4 
REMARK    2  A    between atoms: C3_4  and  C4_5 
REMARK    3  A    between atoms: C4_5  and  O1_6 
REMARK    4  A    between atoms: O1_6  and  C5_7 
REMARK    5  A    between atoms: C11_13  and  N2_14 
REMARK    6  A    between atoms: N2_14  and  C12_15 
ROOT
HETATM    1  C5  UNL     1      24.309  -0.770  54.572  1.00  0.00     0.069 A 
HETATM    2  C6  UNL     1      23.244  -1.414  55.121  1.00  0.00     0.039 A 
HETATM    3  C7  UNL     1      21.935  -1.283  54.729  1.00  0.00     0.035 A 
HETATM    4  C8  UNL     1      21.627  -0.433  53.693  1.00  0.00     0.063 A 
HETATM    5  C9  UNL     1      22.636   0.274  53.063  1.00  0.00     0.017 A 
HETATM    6  C10 UNL     1      23.948   0.084  53.522  1.00  0.00     0.052 A 
HETATM    7  C11 UNL     1      22.523   1.117  52.060  1.00  0.00     0.022 C 
HETATM    8  C18 UNL     1      21.282   1.515  51.352  1.00  0.00     0.059 C 
HETATM    9  C19 UNL     1      20.293   0.370  51.214  1.00  0.00     0.028 C 
HETATM   10  C20 UNL     1      19.557   0.260  52.519  1.00  0.00     0.150 C 
HETATM   11  N3  UNL     1      20.359  -0.455  53.487  1.00  0.00    -0.289 NA
ENDROOT
BRANCH   7  12
HETATM   12  N2  UNL     1      23.696   1.716  51.584  1.00  0.00    -0.359 N 
HETATM   13  H14 UNL     1      24.667   1.366  51.314  1.00  0.00     0.166 HD
BRANCH  12  14
HETATM   14  C12 UNL     1      24.038   3.075  51.263  1.00  0.00     0.033 A 
HETATM   15  C13 UNL     1      23.393   4.235  51.663  1.00  0.00     0.029 A 
HETATM   16  C14 UNL     1      23.860   5.455  51.255  1.00  0.00     0.004 A 
HETATM   17  C15 UNL     1      24.964   5.614  50.447  1.00  0.00     0.019 A 
HETATM   18  C16 UNL     1      25.650   4.500  50.014  1.00  0.00     0.013 A 
HETATM   19 BR1  UNL     1      27.194   4.555  48.894  1.00  0.00    -0.051 Br
HETATM   20  C17 UNL     1      25.152   3.263  50.446  1.00  0.00     0.048 A 
ENDBRANCH  12  14
ENDBRANCH   7  12
BRANCH   1  21
HETATM   21  O1  UNL     1      25.643  -0.738  54.772  1.00  0.00    -0.350 OA
BRANCH  21  22
HETATM   22  C4  UNL     1      26.547   0.069  54.123  1.00  0.00     0.195 C 
BRANCH  22  23
HETATM   23  C3  UNL     1      27.811   0.242  54.931  1.00  0.00     0.142 C 
BRANCH  23  24
HETATM   24  N1  UNL     1      28.840   0.742  54.097  1.00  0.00    -0.419 N 
HETATM   25  C1  UNL     1      28.967   2.114  53.862  1.00  0.00     0.142 C 
HETATM   26  C2  UNL     1      29.783  -0.159  53.566  1.00  0.00     0.142 C 
ENDBRANCH  23  24
ENDBRANCH  22  23
ENDBRANCH  21  22
ENDBRANCH   1  21
TORSDOF 6
ENDMDL
MODEL 3
REMARK VINA RESULT:      -7.9      1.755      5.459
REMARK  6 active torsions:
REMARK  status: ('A' for Active; 'I' for Inactive)
REMARK    1  A    between atoms: N1_2  and  C3_4 
REMARK    2  A    between atoms: C3_4  and  C4_5 
REMARK    3  A    between atoms: C4_5  and  O1_6 
REMARK    4  A    between atoms: O1_6  and  C5_7 
REMARK    5  A    between atoms: C11_13  and  N2_14 
REMARK    6  A    between atoms: N2_14  and  C12_15 
ROOT
HETATM    1  C5  UNL     1      23.059  -0.228  53.398  1.00  0.00     0.069 A 
HETATM    2  C6  UNL     1      23.572  -0.898  54.465  1.00  0.00     0.039 A 
HETATM    3  C7  UNL     1      24.875  -0.849  54.895  1.00  0.00     0.035 A 
HETATM    4  C8  UNL     1      25.776  -0.064  54.215  1.00  0.00     0.063 A 
HETATM    5  C9  UNL     1      25.360   0.661  53.113  1.00  0.00     0.017 A 
HETATM    6  C10 UNL     1      24.013   0.557  52.737  1.00  0.00     0.052 A 
HETATM    7  C11 UNL     1      26.080   1.461  52.357  1.00  0.00     0.022 C 
HETATM    8  C18 UNL     1      27.520   1.786  52.503  1.00  0.00     0.059 C 
HETATM    9  C19 UNL     1      27.956   1.873  53.956  1.00  0.00     0.028 C 
HETATM   10  C20 UNL     1      28.187   0.468  54.434  1.00  0.00     0.150 C 
HETATM   11  N3  UNL     1      26.930  -0.158  54.775  1.00  0.00    -0.289 NA
ENDROOT
BRANCH   7  12
HETATM   12  N2  UNL     1      25.434   2.093  51.287  1.00  0.00    -0.359 N 
HETATM   13  H14 UNL     1      24.552   1.902  50.717  1.00  0.00     0.166 HD
BRANCH  12  14
HETATM   14  C12 UNL     1      25.723   3.286  50.538  1.00  0.00     0.033 A 
HETATM   15  C13 UNL     1      26.681   3.463  49.552  1.00  0.00     0.029 A 
HETATM   16  C14 UNL     1      26.821   4.681  48.942  1.00  0.00     0.004 A 
HETATM   17  C15 UNL     1      26.049   5.777  49.252  1.00  0.00     0.019 A 
HETATM   18  C16 UNL     1      25.078   5.668  50.225  1.00  0.00     0.013 A 
HETATM   19 BR1  UNL     1      23.930   7.093  50.765  1.00  0.00    -0.051 Br
HETATM   20  C17 UNL     1      24.956   4.412  50.833  1.00  0.00     0.048 A 
ENDBRANCH  12  14
ENDBRANCH   7  12
BRANCH   1  21
HETATM   21  O1  UNL     1      21.854  -0.114  52.801  1.00  0.00    -0.350 OA
BRANCH  21  22
HETATM   22  C4  UNL     1      20.683   0.290  53.398  1.00  0.00     0.195 C 
BRANCH  22  23
HETATM   23  C3  UNL     1      19.734  -0.870  53.589  1.00  0.00     0.142 C 
BRANCH  23  24
HETATM   24  N1  UNL     1      18.587  -0.678  52.781  1.00  0.00    -0.419 N 
HETATM   25  C1  UNL     1      18.676  -0.006  51.559  1.00  0.00     0.142 C 
HETATM   26  C2  UNL     1      17.364  -1.244  53.193  1.00  0.00     0.142 C 
ENDBRANCH  23  24
ENDBRANCH  22  23
ENDBRANCH  21  22
ENDBRANCH   1  21
TORSDOF 6
ENDMDL
MODEL 4
REMARK VINA RESULT:      -7.8      1.706      4.827
REMARK  6 active torsions:
REMARK  status: ('A' for Active; 'I' for Inactive)
REMARK    1  A    between atoms: N1_2  and  C3_4 
REMARK    2  A    between atoms: C3_4  and  C4_5 
REMARK    3  A    between atoms: C4_5  and  O1_6 
REMARK    4  A    between atoms: O1_6  and  C5_7 
REMARK    5  A    between atoms: C11_13  and  N2_14 
REMARK    6  A    between atoms: N2_14  and  C12_15 
ROOT
HETATM    1  C5  UNL     1      22.474  -0.070  53.118  1.00  0.00     0.069 A 
HETATM    2  C6  UNL     1      22.886  -0.819  54.176  1.00  0.00     0.039 A 
HETATM    3  C7  UNL     1      24.173  -0.909  54.646  1.00  0.00     0.035 A 
HETATM    4  C8  UNL     1      25.166  -0.195  54.019  1.00  0.00     0.063 A 
HETATM    5  C9  UNL     1      24.857   0.602  52.931  1.00  0.00     0.017 A 
HETATM    6  C10 UNL     1      23.519   0.640  52.512  1.00  0.00     0.052 A 
HETATM    7  C11 UNL     1      25.674   1.351  52.224  1.00  0.00     0.022 C 
HETATM    8  C18 UNL     1      27.133   1.531  52.422  1.00  0.00     0.059 C 
HETATM    9  C19 UNL     1      27.528   1.531  53.889  1.00  0.00     0.028 C 
HETATM   10  C20 UNL     1      27.609   0.095  54.326  1.00  0.00     0.150 C 
HETATM   11  N3  UNL     1      26.287  -0.417  54.608  1.00  0.00    -0.289 NA
ENDROOT
BRANCH   7  12
HETATM   12  N2  UNL     1      25.125   2.076  51.158  1.00  0.00    -0.359 N 
HETATM   13  H14 UNL     1      24.252   1.985  50.552  1.00  0.00     0.166 HD
BRANCH  12  14
HETATM   14  C12 UNL     1      25.546   3.265  50.466  1.00  0.00     0.033 A 
HETATM   15  C13 UNL     1      26.561   3.393  49.531  1.00  0.00     0.029 A 
HETATM   16  C14 UNL     1      26.828   4.614  48.972  1.00  0.00     0.004 A 
HETATM   17  C15 UNL     1      26.133   5.760  49.285  1.00  0.00     0.019 A 
HETATM   18  C16 UNL     1      25.110   5.700  50.207  1.00  0.00     0.013 A 
HETATM   19 BR1  UNL     1      24.056   7.197  50.745  1.00  0.00    -0.051 Br
HETATM   20  C17 UNL     1      24.858   4.439  50.765  1.00  0.00     0.048 A 
ENDBRANCH  12  14
ENDBRANCH   7  12
BRANCH   1  21
HETATM   21  O1  UNL     1      21.305   0.179  52.491  1.00  0.00    -0.350 OA
BRANCH  21  22
HETATM   22  C4  UNL     1      21.150   0.711  51.233  1.00  0.00     0.195 C 
BRANCH  22  23
HETATM   23  C3  UNL     1      20.294   1.955  51.262  1.00  0.00     0.142 C 
BRANCH  23  24
HETATM   24  N1  UNL     1      21.102   3.090  51.014  1.00  0.00    -0.419 N 
HETATM   25  C1  UNL     1      21.532   3.393  49.719  1.00  0.00     0.142 C 
HETATM   26  C2  UNL     1      21.405   3.956  52.082  1.00  0.00     0.142 C 
ENDBRANCH  23  24
ENDBRANCH  22  23
ENDBRANCH  21  22
ENDBRANCH   1  21
TORSDOF 6
ENDMDL
MODEL 5
REMARK VINA RESULT:      -7.8      3.019      5.403
REMARK  6 active torsions:
REMARK  status: ('A' for Active; 'I' for Inactive)
REMARK    1  A    between atoms: N1_2  and  C3_4 
REMARK    2  A    between atoms: C3_4  and  C4_5 
REMARK    3  A    between atoms: C4_5  and  O1_6 
REMARK    4  A    between atoms: O1_6  and  C5_7 
REMARK    5  A    between atoms: C11_13  and  N2_14 
REMARK    6  A    between atoms: N2_14  and  C12_15 
ROOT
HETATM    1  C5  UNL     1      22.559   3.704  51.476  1.00  0.00     0.069 A 
HETATM    2  C6  UNL     1      21.285   3.644  51.948  1.00  0.00     0.039 A 
HETATM    3  C7  UNL     1      20.735   2.600  52.650  1.00  0.00     0.035 A 
HETATM    4  C8  UNL     1      21.506   1.496  52.924  1.00  0.00     0.063 A 
HETATM    5  C9  UNL     1      22.819   1.452  52.490  1.00  0.00     0.017 A 
HETATM    6  C10 UNL     1      23.307   2.558  51.779  1.00  0.00     0.052 A 
HETATM    7  C11 UNL     1      23.694   0.486  52.669  1.00  0.00     0.022 C 
HETATM    8  C18 UNL     1      23.488  -0.796  53.385  1.00  0.00     0.059 C 
HETATM    9  C19 UNL     1      22.584  -0.651  54.597  1.00  0.00     0.028 C 
HETATM   10  C20 UNL     1      21.167  -0.661  54.096  1.00  0.00     0.150 C 
HETATM   11  N3  UNL     1      20.808   0.642  53.584  1.00  0.00    -0.289 NA
ENDROOT
BRANCH   7  12
HETATM   12  N2  UNL     1      24.976   0.669  52.134  1.00  0.00    -0.359 N 
HETATM   13  H14 UNL     1      25.392   0.673  51.152  1.00  0.00     0.166 HD
BRANCH  12  14
HETATM   14  C12 UNL     1      26.255   0.941  52.734  1.00  0.00     0.033 A 
HETATM   15  C13 UNL     1      26.724   2.144  53.236  1.00  0.00     0.029 A 
HETATM   16  C14 UNL     1      27.981   2.221  53.773  1.00  0.00     0.004 A 
HETATM   17  C15 UNL     1      28.839   1.147  53.851  1.00  0.00     0.019 A 
HETATM   18  C16 UNL     1      28.433  -0.079  53.368  1.00  0.00     0.013 A 
HETATM   19 BR1  UNL     1      29.504  -1.658  53.404  1.00  0.00    -0.051 Br
HETATM   20  C17 UNL     1      27.143  -0.130  52.824  1.00  0.00     0.048 A 
ENDBRANCH  12  14
ENDBRANCH   7  12
BRANCH   1  21
HETATM   21  O1  UNL     1      23.308   4.591  50.789  1.00  0.00    -0.350 OA
BRANCH  21  22
HETATM   22  C4  UNL     1      24.027   4.339  49.644  1.00  0.00     0.195 C 
BRANCH  22  23
HETATM   23  C3  UNL     1      25.218   5.260  49.528  1.00  0.00     0.142 C 
BRANCH  23  24
HETATM   24  N1  UNL     1      26.379   4.498  49.249  1.00  0.00    -0.419 N 
HETATM   25  C1  UNL     1      27.494   5.087  48.646  1.00  0.00     0.142 C 
HETATM   26  C2  UNL     1      26.422   3.152  49.659  1.00  0.00     0.142 C 
ENDBRANCH  23  24
ENDBRANCH  22  23
ENDBRANCH  21  22
ENDBRANCH   1  21
TORSDOF 6
ENDMDL
MODEL 6
REMARK VINA RESULT:      -7.7      2.231      4.823
REMARK  6 active torsions:
REMARK  status: ('A' for Active; 'I' for Inactive)
REMARK    1  A    between atoms: N1_2  and  C3_4 
REMARK    2  A    between atoms: C3_4  and  C4_5 
REMARK    3  A    between atoms: C4_5  and  O1_6 
REMARK    4  A    between atoms: O1_6  and  C5_7 
REMARK    5  A    between atoms: C11_13  and  N2_14 
REMARK    6  A    between atoms: N2_14  and  C12_15 
ROOT
HETATM    1  C5  UNL     1      26.580   1.608  51.928  1.00  0.00     0.069 A 
HETATM    2  C6  UNL     1      27.163   0.683  52.738  1.00  0.00     0.039 A 
HETATM    3  C7  UNL     1      26.508  -0.137  53.623  1.00  0.00     0.035 A 
HETATM    4  C8  UNL     1      25.141  -0.049  53.733  1.00  0.00     0.063 A 
HETATM    5  C9  UNL     1      24.447   0.860  52.955  1.00  0.00     0.017 A 
HETATM    6  C10 UNL     1      25.188   1.662  52.075  1.00  0.00     0.052 A 
HETATM    7  C11 UNL     1      23.149   1.071  52.928  1.00  0.00     0.022 C 
HETATM    8  C18 UNL     1      22.106   0.380  53.724  1.00  0.00     0.059 C 
HETATM    9  C19 UNL     1      22.413  -1.092  53.940  1.00  0.00     0.028 C 
HETATM   10  C20 UNL     1      23.391  -1.179  55.077  1.00  0.00     0.150 C 
HETATM   11  N3  UNL     1      24.729  -0.895  54.610  1.00  0.00    -0.289 NA
ENDROOT
BRANCH   7  12
HETATM   12  N2  UNL     1      22.673   2.052  52.049  1.00  0.00    -0.359 N 
HETATM   13  H14 UNL     1      22.485   3.100  52.116  1.00  0.00     0.166 HD
BRANCH  12  14
HETATM   14  C12 UNL     1      22.254   2.012  50.673  1.00  0.00     0.033 A 
HETATM   15  C13 UNL     1      21.651   0.964  49.996  1.00  0.00     0.029 A 
HETATM   16  C14 UNL     1      21.320   1.101  48.674  1.00  0.00     0.004 A 
HETATM   17  C15 UNL     1      21.555   2.248  47.949  1.00  0.00     0.019 A 
HETATM   18  C16 UNL     1      22.153   3.327  48.565  1.00  0.00     0.013 A 
HETATM   19 BR1  UNL     1      22.543   4.981  47.697  1.00  0.00    -0.051 Br
HETATM   20  C17 UNL     1      22.481   3.160  49.917  1.00  0.00     0.048 A 
ENDBRANCH  12  14
ENDBRANCH   7  12
BRANCH   1  21
HETATM   21  O1  UNL     1      26.995   2.498  51.002  1.00  0.00    -0.350 OA
BRANCH  21  22
HETATM   22  C4  UNL     1      26.193   3.296  50.220  1.00  0.00     0.195 C 
BRANCH  22  23
HETATM   23  C3  UNL     1      27.004   4.063  49.202  1.00  0.00     0.142 C 
BRANCH  23  24
HETATM   24  N1  UNL     1      26.567   5.409  49.169  1.00  0.00    -0.419 N 
HETATM   25  C1  UNL     1      25.478   5.827  49.939  1.00  0.00     0.142 C 
HETATM   26  C2  UNL     1      27.295   6.342  48.406  1.00  0.00     0.142 C 
ENDBRANCH  23  24
ENDBRANCH  22  23
ENDBRANCH  21  22
ENDBRANCH   1  21
TORSDOF 6
ENDMDL
MODEL 7
REMARK VINA RESULT:      -7.6      1.443      1.701
REMARK  6 active torsions:
REMARK  status: ('A' for Active; 'I' for Inactive)
REMARK    1  A    between atoms: N1_2  and  C3_4 
REMARK    2  A    between atoms: C3_4  and  C4_5 
REMARK    3  A    between atoms: C4_5  and  O1_6 
REMARK    4  A    between atoms: O1_6  and  C5_7 
REMARK    5  A    between atoms: C11_13  and  N2_14 
REMARK    6  A    between atoms: N2_14  and  C12_15 
ROOT
HETATM    1  C5  UNL     1      24.415  -0.592  54.243  1.00  0.00     0.069 A 
HETATM    2  C6  UNL     1      23.495  -1.214  55.028  1.00  0.00     0.039 A 
HETATM    3  C7  UNL     1      22.132  -1.166  54.863  1.00  0.00     0.035 A 
HETATM    4  C8  UNL     1      21.609  -0.435  53.823  1.00  0.00     0.063 A 
HETATM    5  C9  UNL     1      22.457   0.238  52.963  1.00  0.00     0.017 A 
HETATM    6  C10 UNL     1      23.836   0.140  53.199  1.00  0.00     0.052 A 
HETATM    7  C11 UNL     1      22.130   0.973  51.922  1.00  0.00     0.022 C 
HETATM    8  C18 UNL     1      20.767   1.257  51.410  1.00  0.00     0.059 C 
HETATM    9  C19 UNL     1      19.829   0.071  51.554  1.00  0.00     0.028 C 
HETATM   10  C20 UNL     1      19.335   0.067  52.974  1.00  0.00     0.150 C 
HETATM   11  N3  UNL     1      20.326  -0.520  53.847  1.00  0.00    -0.289 NA
ENDROOT
BRANCH   7  12
HETATM   12  N2  UNL     1      23.173   1.560  51.193  1.00  0.00    -0.359 N 
HETATM   13  H14 UNL     1      24.215   1.365  51.073  1.00  0.00     0.166 HD
BRANCH  12  14
HETATM   14  C12 UNL     1      23.226   2.682  50.295  1.00  0.00     0.033 A 
HETATM   15  C13 UNL     1      23.000   2.692  48.928  1.00  0.00     0.029 A 
HETATM   16  C14 UNL     1      23.098   3.862  48.224  1.00  0.00     0.004 A 
HETATM   17  C15 UNL     1      23.415   5.070  48.803  1.00  0.00     0.019 A 
HETATM   18  C16 UNL     1      23.651   5.129  50.160  1.00  0.00     0.013 A 
HETATM   19 BR1  UNL     1      24.099   6.724  51.106  1.00  0.00    -0.051 Br
HETATM   20  C17 UNL     1      23.545   3.918  50.856  1.00  0.00     0.048 A 
ENDBRANCH  12  14
ENDBRANCH   7  12
BRANCH   1  21
HETATM   21  O1  UNL     1      25.761  -0.496  54.201  1.00  0.00    -0.350 OA
BRANCH  21  22
HETATM   22  C4  UNL     1      26.521   0.540  54.691  1.00  0.00     0.195 C 
BRANCH  22  23
HETATM   23  C3  UNL     1      27.941   0.101  54.960  1.00  0.00     0.142 C 
BRANCH  23  24
HETATM   24  N1  UNL     1      28.799   0.651  53.976  1.00  0.00    -0.419 N 
HETATM   25  C1  UNL     1      29.901  -0.068  53.505  1.00  0.00     0.142 C 
HETATM   26  C2  UNL     1      28.480   1.905  53.421  1.00  0.00     0.142 C 
ENDBRANCH  23  24
ENDBRANCH  22  23
ENDBRANCH  21  22
ENDBRANCH   1  21
TORSDOF 6
ENDMDL
MODEL 8
REMARK VINA RESULT:      -7.5      1.704      2.126
REMARK  6 active torsions:
REMARK  status: ('A' for Active; 'I' for Inactive)
REMARK    1  A    between atoms: N1_2  and  C3_4 
REMARK    2  A    between atoms: C3_4  and  C4_5 
REMARK    3  A    between atoms: C4_5  and  O1_6 
REMARK    4  A    between atoms: O1_6  and  C5_7 
REMARK    5  A    between atoms: C11_13  and  N2_14 
REMARK    6  A    between atoms: N2_14  and  C12_15 
ROOT
HETATM    1  C5  UNL     1      24.242   0.614  52.950  1.00  0.00     0.069 A 
HETATM    2  C6  UNL     1      23.031   0.004  53.052  1.00  0.00     0.039 A 
HETATM    3  C7  UNL     1      21.812   0.587  52.806  1.00  0.00     0.035 A 
HETATM    4  C8  UNL     1      21.766   1.905  52.421  1.00  0.00     0.063 A 
HETATM    5  C9  UNL     1      22.941   2.622  52.286  1.00  0.00     0.017 A 
HETATM    6  C10 UNL     1      24.145   1.955  52.555  1.00  0.00     0.052 A 
HETATM    7  C11 UNL     1      23.080   3.879  51.923  1.00  0.00     0.022 C 
HETATM    8  C18 UNL     1      22.008   4.838  51.563  1.00  0.00     0.059 C 
HETATM    9  C19 UNL     1      20.860   4.180  50.816  1.00  0.00     0.028 C 
HETATM   10  C20 UNL     1      19.981   3.524  51.842  1.00  0.00     0.150 C 
HETATM   11  N3  UNL     1      20.541   2.254  52.244  1.00  0.00    -0.289 NA
ENDROOT
BRANCH   7  12
HETATM   12  N2  UNL     1      24.382   4.391  51.856  1.00  0.00    -0.359 N 
HETATM   13  H14 UNL     1      25.094   4.743  52.569  1.00  0.00     0.166 HD
BRANCH  12  14
HETATM   14  C12 UNL     1      25.282   4.631  50.760  1.00  0.00     0.033 A 
HETATM   15  C13 UNL     1      26.157   3.738  50.162  1.00  0.00     0.029 A 
HETATM   16  C14 UNL     1      26.949   4.144  49.122  1.00  0.00     0.004 A 
HETATM   17  C15 UNL     1      26.935   5.423  48.613  1.00  0.00     0.019 A 
HETATM   18  C16 UNL     1      26.087   6.360  49.163  1.00  0.00     0.013 A 
HETATM   19 BR1  UNL     1      25.950   8.168  48.569  1.00  0.00    -0.051 Br
HETATM   20  C17 UNL     1      25.287   5.918  50.226  1.00  0.00     0.048 A 
ENDBRANCH  12  14
ENDBRANCH   7  12
BRANCH   1  21
HETATM   21  O1  UNL     1      25.533   0.263  53.126  1.00  0.00    -0.350 OA
BRANCH  21  22
HETATM   22  C4  UNL     1      26.041  -0.490  54.159  1.00  0.00     0.195 C 
BRANCH  22  23
HETATM   23  C3  UNL     1      27.172   0.225  54.859  1.00  0.00     0.142 C 
BRANCH  23  24
HETATM   24  N1  UNL     1      28.268   0.354  53.972  1.00  0.00    -0.419 N 
HETATM   25  C1  UNL     1      28.670   1.609  53.507  1.00  0.00     0.142 C 
HETATM   26  C2  UNL     1      28.999  -0.798  53.624  1.00  0.00     0.142 C 
ENDBRANCH  23  24
ENDBRANCH  22  23
ENDBRANCH  21  22
ENDBRANCH   1  21
TORSDOF 6
ENDMDL
MODEL 9
REMARK VINA RESULT:      -7.4      3.214      7.291
REMARK  6 active torsions:
REMARK  status: ('A' for Active; 'I' for Inactive)
REMARK    1  A    between atoms: N1_2  and  C3_4 
REMARK    2  A    between atoms: C3_4  and  C4_5 
REMARK    3  A    between atoms: C4_5  and  O1_6 
REMARK    4  A    between atoms: O1_6  and  C5_7 
REMARK    5  A    between atoms: C11_13  and  N2_14 
REMARK    6  A    between atoms: N2_14  and  C12_15 
ROOT
HETATM    1  C5  UNL     1      24.302   3.606  49.367  1.00  0.00     0.069 A 
HETATM    2  C6  UNL     1      25.604   3.975  49.235  1.00  0.00     0.039 A 
HETATM    3  C7  UNL     1      26.637   3.590  50.054  1.00  0.00     0.035 A 
HETATM    4  C8  UNL     1      26.375   2.757  51.116  1.00  0.00     0.063 A 
HETATM    5  C9  UNL     1      25.082   2.320  51.343  1.00  0.00     0.017 A 
HETATM    6  C10 UNL     1      24.083   2.758  50.461  1.00  0.00     0.052 A 
HETATM    7  C11 UNL     1      24.658   1.523  52.299  1.00  0.00     0.022 C 
HETATM    8  C18 UNL     1      25.466   0.889  53.369  1.00  0.00     0.059 C 
HETATM    9  C19 UNL     1      26.850   0.481  52.895  1.00  0.00     0.028 C 
HETATM   10  C20 UNL     1      27.710   1.713  52.924  1.00  0.00     0.150 C 
HETATM   11  N3  UNL     1      27.468   2.521  51.751  1.00  0.00    -0.289 NA
ENDROOT
BRANCH   7  12
HETATM   12  N2  UNL     1      23.291   1.217  52.326  1.00  0.00    -0.359 N 
HETATM   13  H14 UNL     1      22.425   1.585  51.824  1.00  0.00     0.166 HD
BRANCH  12  14
HETATM   14  C12 UNL     1      22.521   0.251  53.061  1.00  0.00     0.033 A 
HETATM   15  C13 UNL     1      22.961  -0.623  54.043  1.00  0.00     0.029 A 
HETATM   16  C14 UNL     1      22.080  -1.485  54.639  1.00  0.00     0.004 A 
HETATM   17  C15 UNL     1      20.742  -1.544  54.319  1.00  0.00     0.019 A 
HETATM   18  C16 UNL     1      20.241  -0.701  53.350  1.00  0.00     0.013 A 
HETATM   19 BR1  UNL     1      18.415  -0.663  52.797  1.00  0.00    -0.051 Br
HETATM   20  C17 UNL     1      21.163   0.170  52.755  1.00  0.00     0.048 A 
ENDBRANCH  12  14
ENDBRANCH   7  12
BRANCH   1  21
HETATM   21  O1  UNL     1      23.147   3.839  48.710  1.00  0.00    -0.350 OA
BRANCH  21  22
HETATM   22  C4  UNL     1      21.906   3.343  49.037  1.00  0.00     0.195 C 
BRANCH  22  23
HETATM   23  C3  UNL     1      20.950   4.452  49.408  1.00  0.00     0.142 C 
BRANCH  23  24
HETATM   24  N1  UNL     1      20.971   4.642  50.811  1.00  0.00    -0.419 N 
HETATM   25  C1  UNL     1      20.318   3.748  51.664  1.00  0.00     0.142 C 
HETATM   26  C2  UNL     1      21.725   5.707  51.341  1.00  0.00     0.142 C 
ENDBRANCH  23  24
ENDBRANCH  22  23
ENDBRANCH  21  22
ENDBRANCH   1  21
TORSDOF 6
ENDMDL
