MODEL 1
REMARK VINA RESULT:      -7.5      0.000      0.000
REMARK  1 active torsions:
REMARK  status: ('A' for Active; 'I' for Inactive)
REMARK    1  A    between atoms: C2_2  and  C3_3 
ROOT
HETATM    1  C3  UNL     1      23.477   1.569  51.607  1.00  0.00     0.048 C 
HETATM    2  C4  UNL     1      24.773   1.946  51.540  1.00  0.00     0.124 A 
HETATM    3  N1  UNL     1      25.523   1.320  52.583  1.00  0.00    -0.336 N 
HETATM    4  C5  UNL     1      26.915   1.605  52.686  1.00  0.00     0.228 A 
HETATM    5  N2  UNL     1      27.399   2.439  51.787  1.00  0.00    -0.056 NA
HETATM    6  C6  UNL     1      26.556   2.994  50.802  1.00  0.00     0.748 A 
HETATM    7  N3  UNL     1      26.443   3.755  49.813  1.00  0.00     0.019 NA
HETATM    8  N4  UNL     1      27.555   4.435  49.352  1.00  0.00    -0.274 N 
HETATM    9  C7  UNL     1      27.274   5.532  48.497  1.00  0.00     0.106 C 
HETATM   10  C8  UNL     1      26.809   6.757  48.642  1.00  0.00    -0.004 C 
HETATM   11  C9  UNL     1      26.333   7.666  49.701  1.00  0.00     0.055 C 
HETATM   12  C10 UNL     1      24.946   8.093  49.402  1.00  0.00    -0.025 C 
HETATM   13  C11 UNL     1      23.756   8.025  49.974  1.00  0.00    -0.011 C 
HETATM   14  C12 UNL     1      23.227   7.468  51.222  1.00  0.00     0.146 C 
HETATM   15  N5  UNL     1      22.215   6.477  51.097  1.00  0.00    -0.390 N 
HETATM   16  C13 UNL     1      22.335   5.177  50.590  1.00  0.00    -0.001 C 
HETATM   17  C14 UNL     1      21.151   4.339  50.415  1.00  0.00     0.067 C 
HETATM   18  C15 UNL     1      23.243   4.327  50.154  1.00  0.00     0.018 C 
HETATM   19  C16 UNL     1      24.135   3.272  49.643  1.00  0.00     0.178 C 
HETATM   20  N6  UNL     1      25.165   2.839  50.536  1.00  0.00    -0.160 N 
HETATM   21  H5  UNL     1      25.311   0.666  53.343  1.00  0.00     0.168 HD
HETATM   22  H7  UNL     1      28.545   4.181  49.598  1.00  0.00     0.188 HD
HETATM   23  H16 UNL     1      21.254   6.690  51.408  1.00  0.00     0.159 HD
ENDROOT
BRANCH   1  24
HETATM   24  C2  UNL     1      23.000   0.660  52.622  1.00  0.00    -0.007 C 
HETATM   25  C1  UNL     1      21.914  -0.053  52.375  1.00  0.00     0.011 C 
ENDBRANCH   1  24
TORSDOF 1
ENDMDL
MODEL 2
REMARK VINA RESULT:      -7.4      1.657      2.102
REMARK  1 active torsions:
REMARK  status: ('A' for Active; 'I' for Inactive)
REMARK    1  A    between atoms: C2_2  and  C3_3 
ROOT
HETATM    1  C3  UNL     1      23.398   0.029  53.039  1.00  0.00     0.048 C 
HETATM    2  C4  UNL     1      24.568   0.703  52.979  1.00  0.00     0.124 A 
HETATM    3  N1  UNL     1      25.355   0.430  54.141  1.00  0.00    -0.336 N 
HETATM    4  C5  UNL     1      26.625   1.063  54.266  1.00  0.00     0.228 A 
HETATM    5  N2  UNL     1      26.970   1.862  53.277  1.00  0.00    -0.056 NA
HETATM    6  C6  UNL     1      26.105   2.052  52.179  1.00  0.00     0.748 A 
HETATM    7  N3  UNL     1      25.898   2.621  51.082  1.00  0.00     0.019 NA
HETATM    8  N4  UNL     1      26.849   3.487  50.578  1.00  0.00    -0.274 N 
HETATM    9  C7  UNL     1      26.388   4.355  49.554  1.00  0.00     0.106 C 
HETATM   10  C8  UNL     1      25.633   5.433  49.489  1.00  0.00    -0.004 C 
HETATM   11  C9  UNL     1      24.866   6.330  50.374  1.00  0.00     0.055 C 
HETATM   12  C10 UNL     1      23.448   6.355  49.948  1.00  0.00    -0.025 C 
HETATM   13  C11 UNL     1      22.264   6.071  50.464  1.00  0.00    -0.011 C 
HETATM   14  C12 UNL     1      21.780   5.574  51.754  1.00  0.00     0.146 C 
HETATM   15  N5  UNL     1      21.048   4.354  51.732  1.00  0.00    -0.390 N 
HETATM   16  C13 UNL     1      21.518   3.069  51.434  1.00  0.00    -0.001 C 
HETATM   17  C14 UNL     1      20.588   1.947  51.330  1.00  0.00     0.067 C 
HETATM   18  C15 UNL     1      22.636   2.421  51.176  1.00  0.00     0.018 C 
HETATM   19  C16 UNL     1      23.794   1.561  50.875  1.00  0.00     0.178 C 
HETATM   20  N6  UNL     1      24.818   1.522  51.872  1.00  0.00    -0.160 N 
HETATM   21  H5  UNL     1      25.242  -0.148  54.979  1.00  0.00     0.168 HD
HETATM   22  H7  UNL     1      27.847   3.523  50.908  1.00  0.00     0.188 HD
HETATM   23  H16 UNL     1      20.042   4.362  51.960  1.00  0.00     0.159 HD
ENDROOT
BRANCH   1  24
HETATM   24  C2  UNL     1      23.069  -0.825  54.156  1.00  0.00    -0.007 C 
HETATM   25  C1  UNL     1      21.815  -1.218  54.305  1.00  0.00     0.011 C 
ENDBRANCH   1  24
TORSDOF 1
ENDMDL
MODEL 3
REMARK VINA RESULT:      -7.3      2.644      6.156
REMARK  1 active torsions:
REMARK  status: ('A' for Active; 'I' for Inactive)
REMARK    1  A    between atoms: C2_2  and  C3_3 
ROOT
HETATM    1  C3  UNL     1      25.534   2.977  51.117  1.00  0.00     0.048 C 
HETATM    2  C4  UNL     1      25.342   1.826  51.801  1.00  0.00     0.124 A 
HETATM    3  N1  UNL     1      26.453   0.948  51.610  1.00  0.00    -0.336 N 
HETATM    4  C5  UNL     1      26.429  -0.327  52.244  1.00  0.00     0.228 A 
HETATM    5  N2  UNL     1      25.360  -0.589  52.969  1.00  0.00    -0.056 NA
HETATM    6  C6  UNL     1      24.325   0.363  53.084  1.00  0.00     0.748 A 
HETATM    7  N3  UNL     1      23.202   0.652  53.559  1.00  0.00     0.019 NA
HETATM    8  N4  UNL     1      22.545  -0.269  54.351  1.00  0.00    -0.274 N 
HETATM    9  C7  UNL     1      21.158  -0.024  54.530  1.00  0.00     0.106 C 
HETATM   10  C8  UNL     1      20.069  -0.146  53.798  1.00  0.00    -0.004 C 
HETATM   11  C9  UNL     1      19.656  -0.577  52.450  1.00  0.00     0.055 C 
HETATM   12  C10 UNL     1      18.961   0.535  51.763  1.00  0.00    -0.025 C 
HETATM   13  C11 UNL     1      19.111   1.254  50.663  1.00  0.00    -0.011 C 
HETATM   14  C12 UNL     1      20.079   1.290  49.564  1.00  0.00     0.146 C 
HETATM   15  N5  UNL     1      20.773   2.516  49.367  1.00  0.00    -0.390 N 
HETATM   16  C13 UNL     1      21.727   3.114  50.202  1.00  0.00    -0.001 C 
HETATM   17  C14 UNL     1      22.239   4.449  49.902  1.00  0.00     0.067 C 
HETATM   18  C15 UNL     1      22.415   2.882  51.301  1.00  0.00     0.018 C 
HETATM   19  C16 UNL     1      23.252   2.771  52.509  1.00  0.00     0.178 C 
HETATM   20  N6  UNL     1      24.162   1.669  52.537  1.00  0.00    -0.160 N 
HETATM   21  H5  UNL     1      27.338   0.992  51.094  1.00  0.00     0.168 HD
HETATM   22  H7  UNL     1      23.010  -1.097  54.801  1.00  0.00     0.188 HD
HETATM   23  H16 UNL     1      20.590   3.073  48.518  1.00  0.00     0.159 HD
ENDROOT
BRANCH   1  24
HETATM   24  C2  UNL     1      26.722   3.203  50.328  1.00  0.00    -0.007 C 
HETATM   25  C1  UNL     1      26.656   4.048  49.313  1.00  0.00     0.011 C 
ENDBRANCH   1  24
TORSDOF 1
ENDMDL
MODEL 4
REMARK VINA RESULT:      -7.2      2.344      4.731
REMARK  1 active torsions:
REMARK  status: ('A' for Active; 'I' for Inactive)
REMARK    1  A    between atoms: C2_2  and  C3_3 
ROOT
HETATM    1  C3  UNL     1      22.616   0.570  53.265  1.00  0.00     0.048 C 
HETATM    2  C4  UNL     1      21.822   1.165  52.347  1.00  0.00     0.124 A 
HETATM    3  N1  UNL     1      20.853   0.236  51.857  1.00  0.00    -0.336 N 
HETATM    4  C5  UNL     1      19.929   0.676  50.867  1.00  0.00     0.228 A 
HETATM    5  N2  UNL     1      20.051   1.930  50.482  1.00  0.00    -0.056 NA
HETATM    6  C6  UNL     1      21.050   2.753  51.042  1.00  0.00     0.748 A 
HETATM    7  N3  UNL     1      21.599   3.880  51.072  1.00  0.00     0.019 NA
HETATM    8  N4  UNL     1      21.135   4.881  50.240  1.00  0.00    -0.274 N 
HETATM    9  C7  UNL     1      22.023   5.973  50.063  1.00  0.00     0.106 C 
HETATM   10  C8  UNL     1      23.142   6.192  49.402  1.00  0.00    -0.004 C 
HETATM   11  C9  UNL     1      24.082   5.489  48.510  1.00  0.00     0.055 C 
HETATM   12  C10 UNL     1      25.438   5.503  49.107  1.00  0.00    -0.025 C 
HETATM   13  C11 UNL     1      26.341   4.623  49.507  1.00  0.00    -0.011 C 
HETATM   14  C12 UNL     1      26.426   3.161  49.552  1.00  0.00     0.146 C 
HETATM   15  N5  UNL     1      26.618   2.575  50.834  1.00  0.00    -0.390 N 
HETATM   16  C13 UNL     1      25.722   2.538  51.910  1.00  0.00    -0.001 C 
HETATM   17  C14 UNL     1      26.143   2.004  53.204  1.00  0.00     0.067 C 
HETATM   18  C15 UNL     1      24.481   2.852  52.223  1.00  0.00     0.018 C 
HETATM   19  C16 UNL     1      23.126   3.145  52.721  1.00  0.00     0.178 C 
HETATM   20  N6  UNL     1      22.053   2.507  52.024  1.00  0.00    -0.160 N 
HETATM   21  H5  UNL     1      20.625  -0.746  52.042  1.00  0.00     0.168 HD
HETATM   22  H7  UNL     1      20.198   4.863  49.762  1.00  0.00     0.188 HD
HETATM   23  H16 UNL     1      27.510   2.102  51.048  1.00  0.00     0.159 HD
ENDROOT
BRANCH   1  24
HETATM   24  C2  UNL     1      22.442  -0.814  53.639  1.00  0.00    -0.007 C 
HETATM   25  C1  UNL     1      22.372  -1.119  54.924  1.00  0.00     0.011 C 
ENDBRANCH   1  24
TORSDOF 1
ENDMDL
MODEL 5
REMARK VINA RESULT:      -7.1      2.117      6.727
REMARK  1 active torsions:
REMARK  status: ('A' for Active; 'I' for Inactive)
REMARK    1  A    between atoms: C2_2  and  C3_3 
ROOT
HETATM    1  C3  UNL     1      23.610   5.512  48.491  1.00  0.00     0.048 C 
HETATM    2  C4  UNL     1      22.447   5.117  49.056  1.00  0.00     0.124 A 
HETATM    3  N1  UNL     1      21.570   6.234  49.213  1.00  0.00    -0.336 N 
HETATM    4  C5  UNL     1      20.293   6.018  49.807  1.00  0.00     0.228 A 
HETATM    5  N2  UNL     1      20.028   4.778  50.166  1.00  0.00    -0.056 NA
HETATM    6  C6  UNL     1      20.978   3.756  49.958  1.00  0.00     0.748 A 
HETATM    7  N3  UNL     1      21.273   2.544  50.081  1.00  0.00     0.019 NA
HETATM    8  N4  UNL     1      20.363   1.683  50.665  1.00  0.00    -0.274 N 
HETATM    9  C7  UNL     1      20.905   0.445  51.100  1.00  0.00     0.106 C 
HETATM   10  C8  UNL     1      21.660   0.036  52.099  1.00  0.00    -0.004 C 
HETATM   11  C9  UNL     1      22.352   0.574  53.286  1.00  0.00     0.055 C 
HETATM   12  C10 UNL     1      23.800   0.275  53.194  1.00  0.00    -0.025 C 
HETATM   13  C11 UNL     1      24.939   0.947  53.162  1.00  0.00    -0.011 C 
HETATM   14  C12 UNL     1      25.318   2.362  53.199  1.00  0.00     0.146 C 
HETATM   15  N5  UNL     1      26.051   2.854  52.085  1.00  0.00    -0.390 N 
HETATM   16  C13 UNL     1      25.609   3.026  50.767  1.00  0.00    -0.001 C 
HETATM   17  C14 UNL     1      26.546   3.421  49.717  1.00  0.00     0.067 C 
HETATM   18  C15 UNL     1      24.516   2.949  50.034  1.00  0.00     0.018 C 
HETATM   19  C16 UNL     1      23.388   2.908  49.088  1.00  0.00     0.178 C 
HETATM   20  N6  UNL     1      22.286   3.767  49.393  1.00  0.00    -0.160 N 
HETATM   21  H5  UNL     1      21.616   7.234  48.995  1.00  0.00     0.168 HD
HETATM   22  H7  UNL     1      19.342   1.900  50.790  1.00  0.00     0.188 HD
HETATM   23  H16 UNL     1      27.036   3.136  52.209  1.00  0.00     0.159 HD
ENDROOT
BRANCH   1  24
HETATM   24  C2  UNL     1      23.849   6.889  48.128  1.00  0.00    -0.007 C 
HETATM   25  C1  UNL     1      25.096   7.288  47.943  1.00  0.00     0.011 C 
ENDBRANCH   1  24
TORSDOF 1
ENDMDL
MODEL 6
REMARK VINA RESULT:      -7.1      2.962      5.808
REMARK  1 active torsions:
REMARK  status: ('A' for Active; 'I' for Inactive)
REMARK    1  A    between atoms: C2_2  and  C3_3 
ROOT
HETATM    1  C3  UNL     1      26.075   2.135  52.474  1.00  0.00     0.048 C 
HETATM    2  C4  UNL     1      25.122   1.296  52.937  1.00  0.00     0.124 A 
HETATM    3  N1  UNL     1      25.720   0.109  53.461  1.00  0.00    -0.336 N 
HETATM    4  C5  UNL     1      24.870  -0.906  53.987  1.00  0.00     0.228 A 
HETATM    5  N2  UNL     1      23.578  -0.654  53.944  1.00  0.00    -0.056 NA
HETATM    6  C6  UNL     1      23.106   0.560  53.402  1.00  0.00     0.748 A 
HETATM    7  N3  UNL     1      22.119   1.276  53.112  1.00  0.00     0.019 NA
HETATM    8  N4  UNL     1      20.845   0.813  53.382  1.00  0.00    -0.274 N 
HETATM    9  C7  UNL     1      19.803   1.494  52.698  1.00  0.00     0.106 C 
HETATM   10  C8  UNL     1      19.336   1.526  51.467  1.00  0.00    -0.004 C 
HETATM   11  C9  UNL     1      19.589   0.921  50.147  1.00  0.00     0.055 C 
HETATM   12  C10 UNL     1      19.866   1.987  49.156  1.00  0.00    -0.025 C 
HETATM   13  C11 UNL     1      20.849   2.337  48.343  1.00  0.00    -0.011 C 
HETATM   14  C12 UNL     1      22.182   1.816  48.030  1.00  0.00     0.146 C 
HETATM   15  N5  UNL     1      23.277   2.694  48.255  1.00  0.00    -0.390 N 
HETATM   16  C13 UNL     1      23.770   3.166  49.479  1.00  0.00    -0.001 C 
HETATM   17  C14 UNL     1      24.828   4.174  49.510  1.00  0.00     0.067 C 
HETATM   18  C15 UNL     1      23.603   3.017  50.777  1.00  0.00     0.018 C 
HETATM   19  C16 UNL     1      23.535   2.961  52.248  1.00  0.00     0.178 C 
HETATM   20  N6  UNL     1      23.779   1.680  52.835  1.00  0.00    -0.160 N 
HETATM   21  H5  UNL     1      26.678  -0.238  53.569  1.00  0.00     0.168 HD
HETATM   22  H7  UNL     1      20.632   0.021  54.039  1.00  0.00     0.188 HD
HETATM   23  H16 UNL     1      23.813   3.055  47.450  1.00  0.00     0.159 HD
ENDROOT
BRANCH   1  24
HETATM   24  C2  UNL     1      27.478   1.799  52.537  1.00  0.00    -0.007 C 
HETATM   25  C1  UNL     1      28.240   2.423  53.421  1.00  0.00     0.011 C 
ENDBRANCH   1  24
TORSDOF 1
ENDMDL
MODEL 7
REMARK VINA RESULT:      -6.8      1.995      5.758
REMARK  1 active torsions:
REMARK  status: ('A' for Active; 'I' for Inactive)
REMARK    1  A    between atoms: C2_2  and  C3_3 
ROOT
HETATM    1  C3  UNL     1      23.670   5.305  50.285  1.00  0.00     0.048 C 
HETATM    2  C4  UNL     1      24.734   4.485  50.430  1.00  0.00     0.124 A 
HETATM    3  N1  UNL     1      25.603   4.599  49.301  1.00  0.00    -0.336 N 
HETATM    4  C5  UNL     1      26.780   3.798  49.264  1.00  0.00     0.228 A 
HETATM    5  N2  UNL     1      26.969   3.004  50.299  1.00  0.00    -0.056 NA
HETATM    6  C6  UNL     1      26.037   2.980  51.358  1.00  0.00     0.748 A 
HETATM    7  N3  UNL     1      25.705   2.493  52.464  1.00  0.00     0.019 NA
HETATM    8  N4  UNL     1      26.508   1.531  53.047  1.00  0.00    -0.274 N 
HETATM    9  C7  UNL     1      25.887   0.778  54.079  1.00  0.00     0.106 C 
HETATM   10  C8  UNL     1      24.992  -0.187  54.145  1.00  0.00    -0.004 C 
HETATM   11  C9  UNL     1      24.152  -1.011  53.257  1.00  0.00     0.055 C 
HETATM   12  C10 UNL     1      22.726  -0.829  53.612  1.00  0.00    -0.025 C 
HETATM   13  C11 UNL     1      21.616  -0.413  53.025  1.00  0.00    -0.011 C 
HETATM   14  C12 UNL     1      21.262   0.086  51.694  1.00  0.00     0.146 C 
HETATM   15  N5  UNL     1      20.701   1.392  51.633  1.00  0.00    -0.390 N 
HETATM   16  C13 UNL     1      21.326   2.616  51.906  1.00  0.00    -0.001 C 
HETATM   17  C14 UNL     1      20.552   3.855  51.920  1.00  0.00     0.067 C 
HETATM   18  C15 UNL     1      22.508   3.120  52.196  1.00  0.00     0.018 C 
HETATM   19  C16 UNL     1      23.757   3.831  52.523  1.00  0.00     0.178 C 
HETATM   20  N6  UNL     1      24.821   3.689  51.579  1.00  0.00    -0.160 N 
HETATM   21  H5  UNL     1      25.606   5.150  48.436  1.00  0.00     0.168 HD
HETATM   22  H7  UNL     1      27.505   1.348  52.770  1.00  0.00     0.188 HD
HETATM   23  H16 UNL     1      19.714   1.508  51.355  1.00  0.00     0.159 HD
ENDROOT
BRANCH   1  24
HETATM   24  C2  UNL     1      23.510   6.145  49.122  1.00  0.00    -0.007 C 
HETATM   25  C1  UNL     1      22.289   6.506  48.764  1.00  0.00     0.011 C 
ENDBRANCH   1  24
TORSDOF 1
ENDMDL
MODEL 8
REMARK VINA RESULT:      -6.6      1.620      5.448
REMARK  1 active torsions:
REMARK  status: ('A' for Active; 'I' for Inactive)
REMARK    1  A    between atoms: C2_2  and  C3_3 
ROOT
HETATM    1  C3  UNL     1      25.121   7.071  50.153  1.00  0.00     0.048 C 
HETATM    2  C4  UNL     1      25.561   5.796  50.070  1.00  0.00     0.124 A 
HETATM    3  N1  UNL     1      26.690   5.719  49.197  1.00  0.00    -0.336 N 
HETATM    4  C5  UNL     1      27.289   4.448  48.969  1.00  0.00     0.228 A 
HETATM    5  N2  UNL     1      26.739   3.430  49.601  1.00  0.00    -0.056 NA
HETATM    6  C6  UNL     1      25.623   3.632  50.441  1.00  0.00     0.748 A 
HETATM    7  N3  UNL     1      24.767   3.125  51.202  1.00  0.00     0.019 NA
HETATM    8  N4  UNL     1      24.785   1.761  51.427  1.00  0.00    -0.274 N 
HETATM    9  C7  UNL     1      23.589   1.229  51.978  1.00  0.00     0.106 C 
HETATM   10  C8  UNL     1      22.377   0.958  51.538  1.00  0.00    -0.004 C 
HETATM   11  C9  UNL     1      21.582   1.036  50.298  1.00  0.00     0.055 C 
HETATM   12  C10 UNL     1      20.383   1.875  50.529  1.00  0.00    -0.025 C 
HETATM   13  C11 UNL     1      19.856   2.986  50.041  1.00  0.00    -0.011 C 
HETATM   14  C12 UNL     1      20.227   3.949  49.003  1.00  0.00     0.146 C 
HETATM   15  N5  UNL     1      20.403   5.298  49.419  1.00  0.00    -0.390 N 
HETATM   16  C13 UNL     1      21.407   5.825  50.242  1.00  0.00    -0.001 C 
HETATM   17  C14 UNL     1      21.352   7.220  50.675  1.00  0.00     0.067 C 
HETATM   18  C15 UNL     1      22.523   5.476  50.848  1.00  0.00     0.018 C 
HETATM   19  C16 UNL     1      23.780   5.240  51.581  1.00  0.00     0.178 C 
HETATM   20  N6  UNL     1      24.889   4.802  50.792  1.00  0.00    -0.160 N 
HETATM   21  H5  UNL     1      27.229   6.391  48.642  1.00  0.00     0.168 HD
HETATM   22  H7  UNL     1      25.606   1.140  51.217  1.00  0.00     0.188 HD
HETATM   23  H16 UNL     1      19.736   6.019  49.101  1.00  0.00     0.159 HD
ENDROOT
BRANCH   1  24
HETATM   24  C2  UNL     1      25.758   8.145  49.428  1.00  0.00    -0.007 C 
HETATM   25  C1  UNL     1      26.364   9.100  50.113  1.00  0.00     0.011 C 
ENDBRANCH   1  24
TORSDOF 1
ENDMDL
MODEL 9
REMARK VINA RESULT:      -6.4      3.237      5.244
REMARK  1 active torsions:
REMARK  status: ('A' for Active; 'I' for Inactive)
REMARK    1  A    between atoms: C2_2  and  C3_3 
ROOT
HETATM    1  C3  UNL     1      22.411   2.959  48.477  1.00  0.00     0.048 C 
HETATM    2  C4  UNL     1      22.336   3.863  47.475  1.00  0.00     0.124 A 
HETATM    3  N1  UNL     1      21.774   3.260  46.307  1.00  0.00    -0.336 N 
HETATM    4  C5  UNL     1      21.626   4.056  45.135  1.00  0.00     0.228 A 
HETATM    5  N2  UNL     1      22.028   5.307  45.234  1.00  0.00    -0.056 NA
HETATM    6  C6  UNL     1      22.567   5.789  46.445  1.00  0.00     0.748 A 
HETATM    7  N3  UNL     1      23.068   6.753  47.070  1.00  0.00     0.019 NA
HETATM    8  N4  UNL     1      23.236   7.964  46.426  1.00  0.00    -0.274 N 
HETATM    9  C7  UNL     1      24.130   8.863  47.064  1.00  0.00     0.106 C 
HETATM   10  C8  UNL     1      25.436   8.964  47.209  1.00  0.00    -0.004 C 
HETATM   11  C9  UNL     1      26.672   8.258  46.825  1.00  0.00     0.055 C 
HETATM   12  C10 UNL     1      27.428   7.882  48.042  1.00  0.00    -0.025 C 
HETATM   13  C11 UNL     1      27.873   6.776  48.616  1.00  0.00    -0.011 C 
HETATM   14  C12 UNL     1      27.823   5.346  48.306  1.00  0.00     0.146 C 
HETATM   15  N5  UNL     1      27.199   4.507  49.270  1.00  0.00    -0.390 N 
HETATM   16  C13 UNL     1      25.844   4.458  49.625  1.00  0.00    -0.001 C 
HETATM   17  C14 UNL     1      25.402   3.621  50.739  1.00  0.00     0.067 C 
HETATM   18  C15 UNL     1      24.676   4.959  49.281  1.00  0.00     0.018 C 
HETATM   19  C16 UNL     1      23.304   5.429  49.016  1.00  0.00     0.178 C 
HETATM   20  N6  UNL     1      22.797   5.165  47.705  1.00  0.00    -0.160 N 
HETATM   21  H5  UNL     1      21.420   2.330  46.065  1.00  0.00     0.168 HD
HETATM   22  H7  UNL     1      22.751   8.227  45.531  1.00  0.00     0.188 HD
HETATM   23  H16 UNL     1      27.769   3.829  49.799  1.00  0.00     0.159 HD
ENDROOT
BRANCH   1  24
HETATM   24  C2  UNL     1      21.965   1.597  48.306  1.00  0.00    -0.007 C 
HETATM   25  C1  UNL     1      21.239   1.044  49.263  1.00  0.00     0.011 C 
ENDBRANCH   1  24
TORSDOF 1
ENDMDL
