MODEL 1
REMARK VINA RESULT:      -7.9      0.000      0.000
REMARK  9 active torsions:
REMARK  status: ('A' for Active; 'I' for Inactive)
REMARK    1  A    between atoms: C3_3  and  C4_4 
REMARK    2  A    between atoms: C5_5  and  C6_6 
REMARK    3  A    between atoms: C7_7  and  C8_8 
REMARK    4  A    between atoms: C8_8  and  C9_9 
REMARK    5  A    between atoms: C9_9  and  C10_10 
REMARK    6  A    between atoms: C11_11  and  O1_12 
REMARK    7  A    between atoms: N1_13  and  S1_14 
REMARK    8  A    between atoms: S1_14  and  N2_16 
REMARK    9  A    between atoms: N2_16  and  C12_17 
ROOT
HETATM    1  C10 UNL     1      23.905   1.377  52.466  1.00  0.00    -0.006 C 
HETATM    2  C11 UNL     1      24.005   2.540  51.804  1.00  0.00     0.156 C 
HETATM    3  N1  UNL     1      23.171   3.656  51.520  1.00  0.00    -0.281 N 
HETATM    4  C16 UNL     1      22.021   4.247  52.150  1.00  0.00     0.168 C 
HETATM    5  C17 UNL     1      20.864   3.323  52.198  1.00  0.00    -0.006 C 
HETATM    6  C18 UNL     1      20.633   2.094  52.622  1.00  0.00     0.004 C 
HETATM    7  C19 UNL     1      21.478   1.065  53.265  1.00  0.00    -0.062 C 
HETATM    8  C20 UNL     1      20.682   0.180  54.160  1.00  0.00     0.048 C 
HETATM    9  C21 UNL     1      22.788   0.764  53.214  1.00  0.00     0.018 C 
ENDROOT
BRANCH   1  10
HETATM   10  C9  UNL     1      25.097   0.526  52.475  1.00  0.00     0.047 C 
BRANCH  10  11
HETATM   11  C8  UNL     1      24.933  -0.745  53.250  1.00  0.00     0.032 C 
BRANCH  11  12
HETATM   12  C7  UNL     1      26.294  -1.205  53.630  1.00  0.00    -0.026 C 
HETATM   13  C6  UNL     1      27.218  -1.611  52.743  1.00  0.00    -0.004 C 
BRANCH  13  14
HETATM   14  C5  UNL     1      28.539  -2.053  53.174  1.00  0.00    -0.000 C 
HETATM   15  C4  UNL     1      29.536  -1.215  53.352  1.00  0.00    -0.000 C 
BRANCH  15  16
HETATM   16  C3  UNL     1      29.466   0.219  53.152  1.00  0.00    -0.004 C 
HETATM   17  C2  UNL     1      28.983   1.090  54.031  1.00  0.00    -0.031 C 
HETATM   18  C1  UNL     1      28.927   2.546  53.796  1.00  0.00     0.036 C 
ENDBRANCH  15  16
ENDBRANCH  13  14
ENDBRANCH  11  12
ENDBRANCH  10  11
ENDBRANCH   1  10
BRANCH   2  19
HETATM   19  O1  UNL     1      25.313   2.594  51.284  1.00  0.00    -0.345 OA
HETATM   20  H14 UNL     1      25.912   3.292  51.724  1.00  0.00     0.219 HD
ENDBRANCH   2  19
BRANCH   3  21
HETATM   21  S1  UNL     1      23.758   4.423  50.040  1.00  0.00     0.054 SA
HETATM   22  S2  UNL     1      22.574   5.561  49.550  1.00  0.00     0.021 SA
BRANCH  21  23
HETATM   23  N2  UNL     1      25.244   5.291  50.360  1.00  0.00    -0.314 N 
HETATM   24  H15 UNL     1      25.491   5.743  51.276  1.00  0.00     0.175 HD
BRANCH  23  25
HETATM   25  C12 UNL     1      26.334   5.527  49.472  1.00  0.00     0.039 A 
HETATM   26  C13 UNL     1      27.041   6.352  48.712  1.00  0.00     0.030 A 
HETATM   27  C14 UNL     1      27.975   5.286  48.298  1.00  0.00     0.005 A 
HETATM   28  C15 UNL     1      27.252   4.479  49.066  1.00  0.00     0.030 A 
ENDBRANCH  23  25
ENDBRANCH  21  23
ENDBRANCH   3  21
TORSDOF 9
ENDMDL
MODEL 2
REMARK VINA RESULT:      -7.6      2.842      6.326
REMARK  9 active torsions:
REMARK  status: ('A' for Active; 'I' for Inactive)
REMARK    1  A    between atoms: C3_3  and  C4_4 
REMARK    2  A    between atoms: C5_5  and  C6_6 
REMARK    3  A    between atoms: C7_7  and  C8_8 
REMARK    4  A    between atoms: C8_8  and  C9_9 
REMARK    5  A    between atoms: C9_9  and  C10_10 
REMARK    6  A    between atoms: C11_11  and  O1_12 
REMARK    7  A    between atoms: N1_13  and  S1_14 
REMARK    8  A    between atoms: S1_14  and  N2_16 
REMARK    9  A    between atoms: N2_16  and  C12_17 
ROOT
HETATM    1  C10 UNL     1      23.861   2.131  51.844  1.00  0.00    -0.006 C 
HETATM    2  C11 UNL     1      24.514   1.150  52.486  1.00  0.00     0.156 C 
HETATM    3  N1  UNL     1      24.182   0.015  53.274  1.00  0.00    -0.281 N 
HETATM    4  C16 UNL     1      23.030  -0.839  53.385  1.00  0.00     0.168 C 
HETATM    5  C17 UNL     1      21.822  -0.107  53.831  1.00  0.00    -0.006 C 
HETATM    6  C18 UNL     1      21.156   0.969  53.451  1.00  0.00     0.004 C 
HETATM    7  C19 UNL     1      21.346   1.950  52.361  1.00  0.00    -0.062 C 
HETATM    8  C20 UNL     1      20.048   2.521  51.903  1.00  0.00     0.048 C 
HETATM    9  C21 UNL     1      22.419   2.425  51.706  1.00  0.00     0.018 C 
ENDROOT
BRANCH   1  10
HETATM   10  C9  UNL     1      24.686   3.113  51.139  1.00  0.00     0.047 C 
BRANCH  10  11
HETATM   11  C8  UNL     1      24.320   3.295  49.698  1.00  0.00     0.032 C 
BRANCH  11  12
HETATM   12  C7  UNL     1      24.786   4.647  49.294  1.00  0.00    -0.026 C 
HETATM   13  C6  UNL     1      26.071   4.949  49.046  1.00  0.00    -0.004 C 
BRANCH  13  14
HETATM   14  C5  UNL     1      26.471   6.295  48.653  1.00  0.00    -0.000 C 
HETATM   15  C4  UNL     1      27.694   6.579  48.266  1.00  0.00    -0.000 C 
BRANCH  15  16
HETATM   16  C3  UNL     1      28.784   5.627  48.179  1.00  0.00    -0.004 C 
HETATM   17  C2  UNL     1      30.036   5.928  47.851  1.00  0.00    -0.031 C 
HETATM   18  C1  UNL     1      31.124   4.933  47.772  1.00  0.00     0.036 C 
ENDBRANCH  15  16
ENDBRANCH  13  14
ENDBRANCH  11  12
ENDBRANCH  10  11
ENDBRANCH   1  10
BRANCH   2  19
HETATM   19  O1  UNL     1      25.888   1.377  52.272  1.00  0.00    -0.345 OA
HETATM   20  H14 UNL     1      26.166   2.356  52.331  1.00  0.00     0.219 HD
ENDBRANCH   2  19
BRANCH   3  21
HETATM   21  S1  UNL     1      25.555  -0.352  54.325  1.00  0.00     0.054 SA
HETATM   22  S2  UNL     1      24.957  -1.254  55.653  1.00  0.00     0.021 SA
BRANCH  21  23
HETATM   23  N2  UNL     1      26.716  -1.347  53.473  1.00  0.00    -0.314 N 
HETATM   24  H15 UNL     1      26.473  -2.173  52.871  1.00  0.00     0.175 HD
BRANCH  23  25
HETATM   25  C12 UNL     1      28.136  -1.215  53.446  1.00  0.00     0.039 A 
HETATM   26  C13 UNL     1      29.339  -1.760  53.334  1.00  0.00     0.030 A 
HETATM   27  C14 UNL     1      30.022  -0.460  53.491  1.00  0.00     0.005 A 
HETATM   28  C15 UNL     1      28.805   0.062  53.601  1.00  0.00     0.030 A 
ENDBRANCH  23  25
ENDBRANCH  21  23
ENDBRANCH   3  21
TORSDOF 9
ENDMDL
MODEL 3
REMARK VINA RESULT:      -7.6      3.344      5.026
REMARK  9 active torsions:
REMARK  status: ('A' for Active; 'I' for Inactive)
REMARK    1  A    between atoms: C3_3  and  C4_4 
REMARK    2  A    between atoms: C5_5  and  C6_6 
REMARK    3  A    between atoms: C7_7  and  C8_8 
REMARK    4  A    between atoms: C8_8  and  C9_9 
REMARK    5  A    between atoms: C9_9  and  C10_10 
REMARK    6  A    between atoms: C11_11  and  O1_12 
REMARK    7  A    between atoms: N1_13  and  S1_14 
REMARK    8  A    between atoms: S1_14  and  N2_16 
REMARK    9  A    between atoms: N2_16  and  C12_17 
ROOT
HETATM    1  C10 UNL     1      25.883   4.224  49.459  1.00  0.00    -0.006 C 
HETATM    2  C11 UNL     1      26.758   5.186  49.123  1.00  0.00     0.156 C 
HETATM    3  N1  UNL     1      26.710   6.499  48.583  1.00  0.00    -0.281 N 
HETATM    4  C16 UNL     1      25.725   7.548  48.555  1.00  0.00     0.168 C 
HETATM    5  C17 UNL     1      24.492   7.148  47.838  1.00  0.00    -0.006 C 
HETATM    6  C18 UNL     1      23.627   6.151  47.897  1.00  0.00     0.004 C 
HETATM    7  C19 UNL     1      23.518   4.949  48.751  1.00  0.00    -0.062 C 
HETATM    8  C20 UNL     1      22.099   4.534  48.937  1.00  0.00     0.048 C 
HETATM    9  C21 UNL     1      24.409   4.167  49.384  1.00  0.00     0.018 C 
ENDROOT
BRANCH   1  10
HETATM   10  C9  UNL     1      26.449   2.988  50.002  1.00  0.00     0.047 C 
BRANCH  10  11
HETATM   11  C8  UNL     1      25.650   2.391  51.119  1.00  0.00     0.032 C 
BRANCH  11  12
HETATM   12  C7  UNL     1      26.466   2.510  52.355  1.00  0.00    -0.026 C 
HETATM   13  C6  UNL     1      27.769   2.190  52.422  1.00  0.00    -0.004 C 
BRANCH  13  14
HETATM   14  C5  UNL     1      28.521   2.327  53.663  1.00  0.00    -0.000 C 
HETATM   15  C4  UNL     1      28.908   1.288  54.368  1.00  0.00    -0.000 C 
BRANCH  15  16
HETATM   16  C3  UNL     1      28.652  -0.097  54.022  1.00  0.00    -0.004 C 
HETATM   17  C2  UNL     1      29.564  -0.953  53.575  1.00  0.00    -0.031 C 
HETATM   18  C1  UNL     1      29.270  -2.358  53.232  1.00  0.00     0.036 C 
ENDBRANCH  15  16
ENDBRANCH  13  14
ENDBRANCH  11  12
ENDBRANCH  10  11
ENDBRANCH   1  10
BRANCH   2  19
HETATM   19  O1  UNL     1      28.040   4.681  49.415  1.00  0.00    -0.345 OA
HETATM   20  H14 UNL     1      28.805   5.307  49.166  1.00  0.00     0.219 HD
ENDBRANCH   2  19
BRANCH   3  21
HETATM   21  S1  UNL     1      28.252   6.827  47.784  1.00  0.00     0.054 SA
HETATM   22  S2  UNL     1      28.067   8.279  46.893  1.00  0.00     0.021 SA
BRANCH  21  23
HETATM   23  N2  UNL     1      29.507   7.079  48.977  1.00  0.00    -0.314 N 
HETATM   24  H15 UNL     1      29.366   7.545  49.908  1.00  0.00     0.175 HD
BRANCH  23  25
HETATM   25  C12 UNL     1      30.883   6.712  48.898  1.00  0.00     0.039 A 
HETATM   26  C13 UNL     1      31.819   5.815  48.624  1.00  0.00     0.030 A 
HETATM   27  C14 UNL     1      32.913   6.742  48.976  1.00  0.00     0.005 A 
HETATM   28  C15 UNL     1      31.956   7.624  49.244  1.00  0.00     0.030 A 
ENDBRANCH  23  25
ENDBRANCH  21  23
ENDBRANCH   3  21
TORSDOF 9
ENDMDL
MODEL 4
REMARK VINA RESULT:      -7.5      3.020      6.751
REMARK  9 active torsions:
REMARK  status: ('A' for Active; 'I' for Inactive)
REMARK    1  A    between atoms: C3_3  and  C4_4 
REMARK    2  A    between atoms: C5_5  and  C6_6 
REMARK    3  A    between atoms: C7_7  and  C8_8 
REMARK    4  A    between atoms: C8_8  and  C9_9 
REMARK    5  A    between atoms: C9_9  and  C10_10 
REMARK    6  A    between atoms: C11_11  and  O1_12 
REMARK    7  A    between atoms: N1_13  and  S1_14 
REMARK    8  A    between atoms: S1_14  and  N2_16 
REMARK    9  A    between atoms: N2_16  and  C12_17 
ROOT
HETATM    1  C10 UNL     1      26.123   4.518  49.267  1.00  0.00    -0.006 C 
HETATM    2  C11 UNL     1      25.863   3.494  50.096  1.00  0.00     0.156 C 
HETATM    3  N1  UNL     1      24.720   2.901  50.697  1.00  0.00    -0.281 N 
HETATM    4  C16 UNL     1      23.321   2.839  50.369  1.00  0.00     0.168 C 
HETATM    5  C17 UNL     1      22.684   4.176  50.347  1.00  0.00    -0.006 C 
HETATM    6  C18 UNL     1      22.909   5.338  49.760  1.00  0.00     0.004 C 
HETATM    7  C19 UNL     1      23.947   5.819  48.824  1.00  0.00    -0.062 C 
HETATM    8  C20 UNL     1      23.426   6.888  47.927  1.00  0.00     0.048 C 
HETATM    9  C21 UNL     1      25.236   5.502  48.613  1.00  0.00     0.018 C 
ENDROOT
BRANCH   1  10
HETATM   10  C9  UNL     1      27.529   4.739  48.923  1.00  0.00     0.047 C 
BRANCH  10  11
HETATM   11  C8  UNL     1      27.816   6.103  48.374  1.00  0.00     0.032 C 
BRANCH  11  12
HETATM   12  C7  UNL     1      29.285   6.193  48.169  1.00  0.00    -0.026 C 
HETATM   13  C6  UNL     1      30.053   5.149  47.815  1.00  0.00    -0.004 C 
BRANCH  13  14
HETATM   14  C5  UNL     1      31.491   5.297  47.628  1.00  0.00    -0.000 C 
HETATM   15  C4  UNL     1      32.237   4.336  47.131  1.00  0.00    -0.000 C 
BRANCH  15  16
HETATM   16  C3  UNL     1      31.752   3.035  46.714  1.00  0.00    -0.004 C 
HETATM   17  C2  UNL     1      32.386   1.884  46.914  1.00  0.00    -0.031 C 
HETATM   18  C1  UNL     1      31.863   0.575  46.476  1.00  0.00     0.036 C 
ENDBRANCH  15  16
ENDBRANCH  13  14
ENDBRANCH  11  12
ENDBRANCH  10  11
ENDBRANCH   1  10
BRANCH   2  19
HETATM   19  O1  UNL     1      27.104   2.902  50.402  1.00  0.00    -0.345 OA
HETATM   20  H14 UNL     1      27.416   2.206  49.727  1.00  0.00     0.219 HD
ENDBRANCH   2  19
BRANCH   3  21
HETATM   21  S1  UNL     1      25.235   2.079  52.174  1.00  0.00     0.054 SA
HETATM   22  S2  UNL     1      23.820   1.586  53.005  1.00  0.00     0.021 SA
BRANCH  21  23
HETATM   23  N2  UNL     1      26.157   0.645  51.776  1.00  0.00    -0.314 N 
HETATM   24  H15 UNL     1      26.061   0.098  50.884  1.00  0.00     0.175 HD
BRANCH  23  25
HETATM   25  C12 UNL     1      27.158  -0.003  52.558  1.00  0.00     0.039 A 
HETATM   26  C13 UNL     1      27.713  -1.112  53.025  1.00  0.00     0.030 A 
HETATM   27  C14 UNL     1      28.746  -0.367  53.772  1.00  0.00     0.005 A 
HETATM   28  C15 UNL     1      28.172   0.730  53.292  1.00  0.00     0.030 A 
ENDBRANCH  23  25
ENDBRANCH  21  23
ENDBRANCH   3  21
TORSDOF 9
ENDMDL
MODEL 5
REMARK VINA RESULT:      -7.3      3.501      5.749
REMARK  9 active torsions:
REMARK  status: ('A' for Active; 'I' for Inactive)
REMARK    1  A    between atoms: C3_3  and  C4_4 
REMARK    2  A    between atoms: C5_5  and  C6_6 
REMARK    3  A    between atoms: C7_7  and  C8_8 
REMARK    4  A    between atoms: C8_8  and  C9_9 
REMARK    5  A    between atoms: C9_9  and  C10_10 
REMARK    6  A    between atoms: C11_11  and  O1_12 
REMARK    7  A    between atoms: N1_13  and  S1_14 
REMARK    8  A    between atoms: S1_14  and  N2_16 
REMARK    9  A    between atoms: N2_16  and  C12_17 
ROOT
HETATM    1  C10 UNL     1      26.140   4.720  49.146  1.00  0.00    -0.006 C 
HETATM    2  C11 UNL     1      27.096   5.628  48.893  1.00  0.00     0.156 C 
HETATM    3  N1  UNL     1      27.168   6.969  48.429  1.00  0.00    -0.281 N 
HETATM    4  C16 UNL     1      26.268   8.091  48.433  1.00  0.00     0.168 C 
HETATM    5  C17 UNL     1      25.033   7.830  47.657  1.00  0.00    -0.006 C 
HETATM    6  C18 UNL     1      24.092   6.903  47.632  1.00  0.00     0.004 C 
HETATM    7  C19 UNL     1      23.862   5.667  48.411  1.00  0.00    -0.062 C 
HETATM    8  C20 UNL     1      22.411   5.355  48.530  1.00  0.00     0.048 C 
HETATM    9  C21 UNL     1      24.669   4.783  49.023  1.00  0.00     0.018 C 
ENDROOT
BRANCH   1  10
HETATM   10  C9  UNL     1      26.590   3.415  49.633  1.00  0.00     0.047 C 
BRANCH  10  11
HETATM   11  C8  UNL     1      26.146   3.099  51.028  1.00  0.00     0.032 C 
BRANCH  11  12
HETATM   12  C7  UNL     1      26.314   1.635  51.220  1.00  0.00    -0.026 C 
HETATM   13  C6  UNL     1      26.873   1.086  52.311  1.00  0.00    -0.004 C 
BRANCH  13  14
HETATM   14  C5  UNL     1      27.012  -0.359  52.445  1.00  0.00    -0.000 C 
HETATM   15  C4  UNL     1      26.133  -1.092  53.092  1.00  0.00    -0.000 C 
BRANCH  15  16
HETATM   16  C3  UNL     1      24.941  -0.585  53.742  1.00  0.00    -0.004 C 
HETATM   17  C2  UNL     1      23.718  -0.612  53.222  1.00  0.00    -0.031 C 
HETATM   18  C1  UNL     1      22.523  -0.087  53.911  1.00  0.00     0.036 C 
ENDBRANCH  15  16
ENDBRANCH  13  14
ENDBRANCH  11  12
ENDBRANCH  10  11
ENDBRANCH   1  10
BRANCH   2  19
HETATM   19  O1  UNL     1      28.325   5.008  49.193  1.00  0.00    -0.345 OA
HETATM   20  H14 UNL     1      28.299   4.395  50.007  1.00  0.00     0.219 HD
ENDBRANCH   2  19
BRANCH   3  21
HETATM   21  S1  UNL     1      28.757   7.219  47.697  1.00  0.00     0.054 SA
HETATM   22  S2  UNL     1      28.634   8.577  46.660  1.00  0.00     0.021 SA
BRANCH  21  23
HETATM   23  N2  UNL     1      29.940   7.585  48.934  1.00  0.00    -0.314 N 
HETATM   24  H15 UNL     1      29.718   8.006  49.871  1.00  0.00     0.175 HD
BRANCH  23  25
HETATM   25  C12 UNL     1      31.351   7.386  48.889  1.00  0.00     0.039 A 
HETATM   26  C13 UNL     1      32.409   6.612  49.082  1.00  0.00     0.030 A 
HETATM   27  C14 UNL     1      33.347   7.656  48.624  1.00  0.00     0.005 A 
HETATM   28  C15 UNL     1      32.271   8.413  48.439  1.00  0.00     0.030 A 
ENDBRANCH  23  25
ENDBRANCH  21  23
ENDBRANCH   3  21
TORSDOF 9
ENDMDL
MODEL 6
REMARK VINA RESULT:      -7.3      3.287      7.143
REMARK  9 active torsions:
REMARK  status: ('A' for Active; 'I' for Inactive)
REMARK    1  A    between atoms: C3_3  and  C4_4 
REMARK    2  A    between atoms: C5_5  and  C6_6 
REMARK    3  A    between atoms: C7_7  and  C8_8 
REMARK    4  A    between atoms: C8_8  and  C9_9 
REMARK    5  A    between atoms: C9_9  and  C10_10 
REMARK    6  A    between atoms: C11_11  and  O1_12 
REMARK    7  A    between atoms: N1_13  and  S1_14 
REMARK    8  A    between atoms: S1_14  and  N2_16 
REMARK    9  A    between atoms: N2_16  and  C12_17 
ROOT
HETATM    1  C10 UNL     1      26.472   5.031  49.383  1.00  0.00    -0.006 C 
HETATM    2  C11 UNL     1      25.824   3.994  49.937  1.00  0.00     0.156 C 
HETATM    3  N1  UNL     1      24.659   3.790  50.724  1.00  0.00    -0.281 N 
HETATM    4  C16 UNL     1      23.430   4.511  50.920  1.00  0.00     0.168 C 
HETATM    5  C17 UNL     1      23.649   5.859  51.495  1.00  0.00    -0.006 C 
HETATM    6  C18 UNL     1      24.383   6.919  51.205  1.00  0.00     0.004 C 
HETATM    7  C19 UNL     1      25.347   7.224  50.126  1.00  0.00    -0.062 C 
HETATM    8  C20 UNL     1      25.371   8.678  49.805  1.00  0.00     0.048 C 
HETATM    9  C21 UNL     1      26.189   6.482  49.386  1.00  0.00     0.018 C 
ENDROOT
BRANCH   1  10
HETATM   10  C9  UNL     1      27.685   4.716  48.627  1.00  0.00     0.047 C 
BRANCH  10  11
HETATM   11  C8  UNL     1      28.439   5.920  48.153  1.00  0.00     0.032 C 
BRANCH  11  12
HETATM   12  C7  UNL     1      29.874   5.689  48.463  1.00  0.00    -0.026 C 
HETATM   13  C6  UNL     1      30.790   5.348  47.542  1.00  0.00    -0.004 C 
BRANCH  13  14
HETATM   14  C5  UNL     1      32.186   5.133  47.904  1.00  0.00    -0.000 C 
HETATM   15  C4  UNL     1      32.825   4.023  47.611  1.00  0.00    -0.000 C 
BRANCH  15  16
HETATM   16  C3  UNL     1      32.251   2.891  46.910  1.00  0.00    -0.004 C 
HETATM   17  C2  UNL     1      32.497   1.616  47.190  1.00  0.00    -0.031 C 
HETATM   18  C1  UNL     1      31.896   0.485  46.456  1.00  0.00     0.036 C 
ENDBRANCH  15  16
ENDBRANCH  13  14
ENDBRANCH  11  12
ENDBRANCH  10  11
ENDBRANCH   1  10
BRANCH   2  19
HETATM   19  O1  UNL     1      26.557   2.839  49.602  1.00  0.00    -0.345 OA
HETATM   20  H14 UNL     1      26.328   2.446  48.690  1.00  0.00     0.219 HD
ENDBRANCH   2  19
BRANCH   3  21
HETATM   21  S1  UNL     1      24.860   2.288  51.633  1.00  0.00     0.054 SA
HETATM   22  S2  UNL     1      25.027   2.708  53.286  1.00  0.00     0.021 SA
BRANCH  21  23
HETATM   23  N2  UNL     1      23.432   1.288  51.469  1.00  0.00    -0.314 N 
HETATM   24  H15 UNL     1      22.999   1.006  50.555  1.00  0.00     0.175 HD
BRANCH  23  25
HETATM   25  C12 UNL     1      22.641   0.708  52.504  1.00  0.00     0.039 A 
HETATM   26  C13 UNL     1      21.562   0.725  53.273  1.00  0.00     0.030 A 
HETATM   27  C14 UNL     1      21.952  -0.516  53.972  1.00  0.00     0.005 A 
HETATM   28  C15 UNL     1      23.025  -0.511  53.190  1.00  0.00     0.030 A 
ENDBRANCH  23  25
ENDBRANCH  21  23
ENDBRANCH   3  21
TORSDOF 9
ENDMDL
MODEL 7
REMARK VINA RESULT:      -7.3      2.958      6.909
REMARK  9 active torsions:
REMARK  status: ('A' for Active; 'I' for Inactive)
REMARK    1  A    between atoms: C3_3  and  C4_4 
REMARK    2  A    between atoms: C5_5  and  C6_6 
REMARK    3  A    between atoms: C7_7  and  C8_8 
REMARK    4  A    between atoms: C8_8  and  C9_9 
REMARK    5  A    between atoms: C9_9  and  C10_10 
REMARK    6  A    between atoms: C11_11  and  O1_12 
REMARK    7  A    between atoms: N1_13  and  S1_14 
REMARK    8  A    between atoms: S1_14  and  N2_16 
REMARK    9  A    between atoms: N2_16  and  C12_17 
ROOT
HETATM    1  C10 UNL     1      25.675   3.431  49.993  1.00  0.00    -0.006 C 
HETATM    2  C11 UNL     1      26.165   2.768  51.052  1.00  0.00     0.156 C 
HETATM    3  N1  UNL     1      25.710   1.785  51.972  1.00  0.00    -0.281 N 
HETATM    4  C16 UNL     1      24.705   0.756  51.940  1.00  0.00     0.168 C 
HETATM    5  C17 UNL     1      23.340   1.302  51.761  1.00  0.00    -0.006 C 
HETATM    6  C18 UNL     1      22.732   2.110  50.911  1.00  0.00     0.004 C 
HETATM    7  C19 UNL     1      23.183   2.850  49.713  1.00  0.00    -0.062 C 
HETATM    8  C20 UNL     1      22.079   3.029  48.729  1.00  0.00     0.048 C 
HETATM    9  C21 UNL     1      24.355   3.385  49.329  1.00  0.00     0.018 C 
ENDROOT
BRANCH   1  10
HETATM   10  C9  UNL     1      26.576   4.387  49.346  1.00  0.00     0.047 C 
BRANCH  10  11
HETATM   11  C8  UNL     1      26.073   5.798  49.349  1.00  0.00     0.032 C 
BRANCH  11  12
HETATM   12  C7  UNL     1      26.777   6.517  48.256  1.00  0.00    -0.026 C 
HETATM   13  C6  UNL     1      28.107   6.701  48.221  1.00  0.00    -0.004 C 
BRANCH  13  14
HETATM   14  C5  UNL     1      28.743   7.416  47.121  1.00  0.00    -0.000 C 
HETATM   15  C4  UNL     1      30.017   7.267  46.831  1.00  0.00    -0.000 C 
BRANCH  15  16
HETATM   16  C3  UNL     1      30.938   6.400  47.540  1.00  0.00    -0.004 C 
HETATM   17  C2  UNL     1      32.019   6.809  48.195  1.00  0.00    -0.031 C 
HETATM   18  C1  UNL     1      32.938   5.899  48.907  1.00  0.00     0.036 C 
ENDBRANCH  15  16
ENDBRANCH  13  14
ENDBRANCH  11  12
ENDBRANCH  10  11
ENDBRANCH   1  10
BRANCH   2  19
HETATM   19  O1  UNL     1      27.487   3.222  51.232  1.00  0.00    -0.345 OA
HETATM   20  H14 UNL     1      27.637   4.194  50.964  1.00  0.00     0.219 HD
ENDBRANCH   2  19
BRANCH   3  21
HETATM   21  S1  UNL     1      26.647   1.945  53.462  1.00  0.00     0.054 SA
HETATM   22  S2  UNL     1      25.865   1.003  54.661  1.00  0.00     0.021 SA
BRANCH  21  23
HETATM   23  N2  UNL     1      28.258   1.301  53.232  1.00  0.00    -0.314 N 
HETATM   24  H15 UNL     1      29.113   1.879  53.032  1.00  0.00     0.175 HD
BRANCH  23  25
HETATM   25  C12 UNL     1      28.676  -0.062  53.275  1.00  0.00     0.039 A 
HETATM   26  C13 UNL     1      28.409  -1.351  53.126  1.00  0.00     0.030 A 
HETATM   27  C14 UNL     1      29.781  -1.752  53.494  1.00  0.00     0.005 A 
HETATM   28  C15 UNL     1      30.025  -0.454  53.636  1.00  0.00     0.030 A 
ENDBRANCH  23  25
ENDBRANCH  21  23
ENDBRANCH   3  21
TORSDOF 9
ENDMDL
MODEL 8
REMARK VINA RESULT:      -7.3      2.633      6.639
REMARK  9 active torsions:
REMARK  status: ('A' for Active; 'I' for Inactive)
REMARK    1  A    between atoms: C3_3  and  C4_4 
REMARK    2  A    between atoms: C5_5  and  C6_6 
REMARK    3  A    between atoms: C7_7  and  C8_8 
REMARK    4  A    between atoms: C8_8  and  C9_9 
REMARK    5  A    between atoms: C9_9  and  C10_10 
REMARK    6  A    between atoms: C11_11  and  O1_12 
REMARK    7  A    between atoms: N1_13  and  S1_14 
REMARK    8  A    between atoms: S1_14  and  N2_16 
REMARK    9  A    between atoms: N2_16  and  C12_17 
ROOT
HETATM    1  C10 UNL     1      22.459   1.063  51.939  1.00  0.00    -0.006 C 
HETATM    2  C11 UNL     1      23.718   1.445  51.669  1.00  0.00     0.156 C 
HETATM    3  N1  UNL     1      25.031   1.069  52.062  1.00  0.00    -0.281 N 
HETATM    4  C16 UNL     1      25.630  -0.137  52.570  1.00  0.00     0.168 C 
HETATM    5  C17 UNL     1      25.062  -0.544  53.876  1.00  0.00    -0.006 C 
HETATM    6  C18 UNL     1      23.859  -0.772  54.372  1.00  0.00     0.004 C 
HETATM    7  C19 UNL     1      22.496  -0.713  53.800  1.00  0.00    -0.062 C 
HETATM    8  C20 UNL     1      21.580  -1.683  54.463  1.00  0.00     0.048 C 
HETATM    9  C21 UNL     1      21.920   0.013  52.827  1.00  0.00     0.018 C 
ENDROOT
BRANCH   1  10
HETATM   10  C9  UNL     1      21.394   1.793  51.249  1.00  0.00     0.047 C 
BRANCH  10  11
HETATM   11  C8  UNL     1      20.411   2.449  52.169  1.00  0.00     0.032 C 
BRANCH  11  12
HETATM   12  C7  UNL     1      19.052   2.072  51.700  1.00  0.00    -0.026 C 
HETATM   13  C6  UNL     1      18.777   0.923  51.060  1.00  0.00    -0.004 C 
BRANCH  13  14
HETATM   14  C5  UNL     1      17.423   0.606  50.622  1.00  0.00    -0.000 C 
HETATM   15  C4  UNL     1      16.631  -0.188  51.308  1.00  0.00    -0.000 C 
BRANCH  15  16
HETATM   16  C3  UNL     1      16.981  -0.840  52.555  1.00  0.00    -0.004 C 
HETATM   17  C2  UNL     1      17.603  -2.009  52.656  1.00  0.00    -0.031 C 
HETATM   18  C1  UNL     1      17.945  -2.646  53.943  1.00  0.00     0.036 C 
ENDBRANCH  15  16
ENDBRANCH  13  14
ENDBRANCH  11  12
ENDBRANCH  10  11
ENDBRANCH   1  10
BRANCH   2  19
HETATM   19  O1  UNL     1      23.626   2.503  50.743  1.00  0.00    -0.345 OA
HETATM   20  H14 UNL     1      23.818   2.235  49.779  1.00  0.00     0.219 HD
ENDBRANCH   2  19
BRANCH   3  21
HETATM   21  S1  UNL     1      26.096   2.462  51.843  1.00  0.00     0.054 SA
HETATM   22  S2  UNL     1      27.560   2.121  52.665  1.00  0.00     0.021 SA
BRANCH  21  23
HETATM   23  N2  UNL     1      26.465   2.677  50.145  1.00  0.00    -0.314 N 
HETATM   24  H15 UNL     1      26.498   1.903  49.435  1.00  0.00     0.175 HD
BRANCH  23  25
HETATM   25  C12 UNL     1      26.771   3.888  49.457  1.00  0.00     0.039 A 
HETATM   26  C13 UNL     1      27.630   4.646  48.790  1.00  0.00     0.030 A 
HETATM   27  C14 UNL     1      26.647   5.734  48.618  1.00  0.00     0.005 A 
HETATM   28  C15 UNL     1      25.804   4.956  49.289  1.00  0.00     0.030 A 
ENDBRANCH  23  25
ENDBRANCH  21  23
ENDBRANCH   3  21
TORSDOF 9
ENDMDL
MODEL 9
REMARK VINA RESULT:      -7.2      4.950      8.207
REMARK  9 active torsions:
REMARK  status: ('A' for Active; 'I' for Inactive)
REMARK    1  A    between atoms: C3_3  and  C4_4 
REMARK    2  A    between atoms: C5_5  and  C6_6 
REMARK    3  A    between atoms: C7_7  and  C8_8 
REMARK    4  A    between atoms: C8_8  and  C9_9 
REMARK    5  A    between atoms: C9_9  and  C10_10 
REMARK    6  A    between atoms: C11_11  and  O1_12 
REMARK    7  A    between atoms: N1_13  and  S1_14 
REMARK    8  A    between atoms: S1_14  and  N2_16 
REMARK    9  A    between atoms: N2_16  and  C12_17 
ROOT
HETATM    1  C10 UNL     1      20.105  -0.225  52.780  1.00  0.00    -0.006 C 
HETATM    2  C11 UNL     1      18.811  -0.578  52.741  1.00  0.00     0.156 C 
HETATM    3  N1  UNL     1      17.727  -0.477  51.828  1.00  0.00    -0.281 N 
HETATM    4  C16 UNL     1      17.613  -0.351  50.400  1.00  0.00     0.168 C 
HETATM    5  C17 UNL     1      18.232   0.895  49.890  1.00  0.00    -0.006 C 
HETATM    6  C18 UNL     1      19.406   1.493  49.986  1.00  0.00     0.004 C 
HETATM    7  C19 UNL     1      20.667   1.153  50.680  1.00  0.00    -0.062 C 
HETATM    8  C20 UNL     1      21.853   1.702  49.965  1.00  0.00     0.048 C 
HETATM    9  C21 UNL     1      20.965   0.467  51.797  1.00  0.00     0.018 C 
ENDROOT
BRANCH   1  10
HETATM   10  C9  UNL     1      20.840  -0.566  53.999  1.00  0.00     0.047 C 
BRANCH  10  11
HETATM   11  C8  UNL     1      22.024  -1.454  53.769  1.00  0.00     0.032 C 
BRANCH  11  12
HETATM   12  C7  UNL     1      23.233  -0.683  54.160  1.00  0.00    -0.026 C 
HETATM   13  C6  UNL     1      24.227  -0.375  53.310  1.00  0.00    -0.004 C 
BRANCH  13  14
HETATM   14  C5  UNL     1      25.390   0.385  53.751  1.00  0.00    -0.000 C 
HETATM   15  C4  UNL     1      25.563   1.649  53.435  1.00  0.00    -0.000 C 
BRANCH  15  16
HETATM   16  C3  UNL     1      24.653   2.441  52.632  1.00  0.00    -0.004 C 
HETATM   17  C2  UNL     1      23.957   3.484  53.071  1.00  0.00    -0.031 C 
HETATM   18  C1  UNL     1      23.037   4.270  52.225  1.00  0.00     0.036 C 
ENDBRANCH  15  16
ENDBRANCH  13  14
ENDBRANCH  11  12
ENDBRANCH  10  11
ENDBRANCH   1  10
BRANCH   2  19
HETATM   19  O1  UNL     1      18.533  -1.213  53.968  1.00  0.00    -0.345 OA
HETATM   20  H14 UNL     1      19.360  -1.458  54.511  1.00  0.00     0.219 HD
ENDBRANCH   2  19
BRANCH   3  21
HETATM   21  S1  UNL     1      16.219  -0.522  52.751  1.00  0.00     0.054 SA
HETATM   22  S2  UNL     1      15.145   0.601  52.030  1.00  0.00     0.021 SA
BRANCH  21  23
HETATM   23  N2  UNL     1      15.495  -2.112  52.643  1.00  0.00    -0.314 N 
HETATM   24  H15 UNL     1      14.563  -2.319  52.202  1.00  0.00     0.175 HD
BRANCH  23  25
HETATM   25  C12 UNL     1      16.019  -3.351  53.114  1.00  0.00     0.039 A 
HETATM   26  C13 UNL     1      17.054  -4.110  53.446  1.00  0.00     0.030 A 
HETATM   27  C14 UNL     1      16.193  -5.256  53.800  1.00  0.00     0.005 A 
HETATM   28  C15 UNL     1      15.172  -4.476  53.461  1.00  0.00     0.030 A 
ENDBRANCH  23  25
ENDBRANCH  21  23
ENDBRANCH   3  21
TORSDOF 9
ENDMDL
