MODEL 1
REMARK VINA RESULT:      -8.3      0.000      0.000
REMARK  2 active torsions:
REMARK  status: ('A' for Active; 'I' for Inactive)
REMARK    1  A    between atoms: C10_15  and  O2_16 
REMARK    2  A    between atoms: C11_17  and  C12_18 
ROOT
HETATM    1  C1  UNL     1      20.720   6.206  50.074  1.00  0.00     0.048 C 
HETATM    2  C2  UNL     1      21.242   4.873  49.755  1.00  0.00    -0.029 C 
HETATM    3  C3  UNL     1      21.660   3.675  49.885  1.00  0.00     0.005 C 
HETATM    4  C4  UNL     1      22.138   2.332  49.937  1.00  0.00     0.012 C 
HETATM    5  C5  UNL     1      22.453   1.421  50.794  1.00  0.00     0.283 A 
HETATM    6  C6  UNL     1      22.568   1.089  52.177  1.00  0.00     0.254 A 
HETATM    7  N1  UNL     1      23.776   0.906  51.645  1.00  0.00     0.046 N 
HETATM    8  N2  UNL     1      24.472   2.100  51.709  1.00  0.00    -0.172 N 
HETATM    9  C7  UNL     1      24.804   3.164  50.831  1.00  0.00     0.197 A 
HETATM   10  N3  UNL     1      24.198   4.079  50.204  1.00  0.00    -0.198 NA
HETATM   11  C8  UNL     1      24.610   4.955  49.395  1.00  0.00     0.176 A 
HETATM   12  C9  UNL     1      25.993   4.896  49.160  1.00  0.00     0.111 A 
HETATM   13  S1  UNL     1      26.457   3.406  50.293  1.00  0.00    -0.058 SA
HETATM   14  O1  UNL     1      23.401   5.578  49.127  1.00  0.00    -0.298 OA
HETATM   15  C10 UNL     1      22.221   4.987  48.563  1.00  0.00     0.295 C 
HETATM   16  C11 UNL     1      24.665   1.630  53.040  1.00  0.00     0.180 C 
HETATM   17  C18 UNL     1      23.496   0.685  53.268  1.00  0.00     0.315 A 
ENDROOT
BRANCH  16  18
HETATM   18  C12 UNL     1      25.967   0.918  53.160  1.00  0.00    -0.032 A 
HETATM   19  C13 UNL     1      27.098   1.641  53.567  1.00  0.00     0.011 A 
HETATM   20  C14 UNL     1      28.326   1.024  53.690  1.00  0.00     0.024 A 
HETATM   21  C15 UNL     1      28.439  -0.319  53.409  1.00  0.00     0.034 A 
HETATM   22 CL1  UNL     1      29.968  -1.152  53.553  1.00  0.00    -0.084 Cl
HETATM   23  C16 UNL     1      27.314  -0.991  53.014  1.00  0.00     0.024 A 
HETATM   24  C17 UNL     1      26.054  -0.423  52.873  1.00  0.00     0.011 A 
ENDBRANCH  16  18
BRANCH  15  25
HETATM   25  O2  UNL     1      21.690   5.920  47.684  1.00  0.00    -0.367 OA
HETATM   26  H9  UNL     1      20.963   5.480  47.166  1.00  0.00     0.213 HD
ENDBRANCH  15  25
TORSDOF 2
ENDMDL
MODEL 2
REMARK VINA RESULT:      -8.3      2.589      3.730
REMARK  2 active torsions:
REMARK  status: ('A' for Active; 'I' for Inactive)
REMARK    1  A    between atoms: C10_15  and  O2_16 
REMARK    2  A    between atoms: C11_17  and  C12_18 
ROOT
HETATM    1  C1  UNL     1      18.761   3.605  49.529  1.00  0.00     0.048 C 
HETATM    2  C2  UNL     1      19.742   3.991  50.549  1.00  0.00    -0.029 C 
HETATM    3  C3  UNL     1      20.848   4.276  51.117  1.00  0.00     0.005 C 
HETATM    4  C4  UNL     1      22.037   4.611  51.829  1.00  0.00     0.012 C 
HETATM    5  C5  UNL     1      23.317   4.640  51.672  1.00  0.00     0.283 A 
HETATM    6  C6  UNL     1      24.404   4.383  50.784  1.00  0.00     0.254 A 
HETATM    7  N1  UNL     1      24.627   3.648  51.873  1.00  0.00     0.046 N 
HETATM    8  N2  UNL     1      23.999   2.425  51.716  1.00  0.00    -0.172 N 
HETATM    9  C7  UNL     1      22.804   1.800  52.157  1.00  0.00     0.197 A 
HETATM   10  N3  UNL     1      21.559   1.944  51.989  1.00  0.00    -0.198 NA
HETATM   11  C8  UNL     1      20.571   1.340  52.488  1.00  0.00     0.176 A 
HETATM   12  C9  UNL     1      20.930   0.323  53.387  1.00  0.00     0.111 A 
HETATM   13  S1  UNL     1      22.851   0.478  53.312  1.00  0.00    -0.058 SA
HETATM   14  O1  UNL     1      19.555   2.036  51.850  1.00  0.00    -0.298 OA
HETATM   15  C10 UNL     1      19.285   3.444  51.921  1.00  0.00     0.295 C 
HETATM   16  C11 UNL     1      25.185   2.193  50.960  1.00  0.00     0.180 C 
HETATM   17  C18 UNL     1      25.641   3.587  50.558  1.00  0.00     0.315 A 
ENDROOT
BRANCH  16  18
HETATM   18  C12 UNL     1      26.210   1.507  51.793  1.00  0.00    -0.032 A 
HETATM   19  C13 UNL     1      27.235   2.271  52.371  1.00  0.00     0.011 A 
HETATM   20  C14 UNL     1      28.208   1.678  53.149  1.00  0.00     0.024 A 
HETATM   21  C15 UNL     1      28.169   0.318  53.360  1.00  0.00     0.034 A 
HETATM   22 CL1  UNL     1      29.372  -0.485  54.340  1.00  0.00    -0.084 Cl
HETATM   23  C16 UNL     1      27.155  -0.395  52.779  1.00  0.00     0.024 A 
HETATM   24  C17 UNL     1      26.150   0.148  51.988  1.00  0.00     0.011 A 
ENDBRANCH  16  18
BRANCH  15  25
HETATM   25  O2  UNL     1      17.906   3.582  51.979  1.00  0.00    -0.367 OA
HETATM   26  H9  UNL     1      17.547   2.860  52.563  1.00  0.00     0.213 HD
ENDBRANCH  15  25
TORSDOF 2
ENDMDL
MODEL 3
REMARK VINA RESULT:      -8.2      1.853      2.271
REMARK  2 active torsions:
REMARK  status: ('A' for Active; 'I' for Inactive)
REMARK    1  A    between atoms: C10_15  and  O2_16 
REMARK    2  A    between atoms: C11_17  and  C12_18 
ROOT
HETATM    1  C1  UNL     1      18.845   3.621  51.622  1.00  0.00     0.048 C 
HETATM    2  C2  UNL     1      19.636   2.446  51.241  1.00  0.00    -0.029 C 
HETATM    3  C3  UNL     1      20.365   1.402  51.319  1.00  0.00     0.005 C 
HETATM    4  C4  UNL     1      21.175   0.229  51.313  1.00  0.00     0.012 C 
HETATM    5  C5  UNL     1      21.849  -0.519  52.119  1.00  0.00     0.283 A 
HETATM    6  C6  UNL     1      22.267  -0.727  53.467  1.00  0.00     0.254 A 
HETATM    7  N1  UNL     1      23.379  -0.632  52.740  1.00  0.00     0.046 N 
HETATM    8  N2  UNL     1      23.743   0.701  52.663  1.00  0.00    -0.172 N 
HETATM    9  C7  UNL     1      23.643   1.758  51.723  1.00  0.00     0.197 A 
HETATM   10  N3  UNL     1      22.729   2.451  51.192  1.00  0.00    -0.198 NA
HETATM   11  C8  UNL     1      22.765   3.352  50.310  1.00  0.00     0.176 A 
HETATM   12  C9  UNL     1      24.059   3.629  49.843  1.00  0.00     0.111 A 
HETATM   13  S1  UNL     1      25.070   2.376  50.906  1.00  0.00    -0.058 SA
HETATM   14  O1  UNL     1      21.409   3.632  50.242  1.00  0.00    -0.298 OA
HETATM   15  C10 UNL     1      20.347   2.730  49.898  1.00  0.00     0.295 C 
HETATM   16  C11 UNL     1      24.262   0.376  53.950  1.00  0.00     0.180 C 
HETATM   17  C18 UNL     1      23.430  -0.817  54.391  1.00  0.00     0.315 A 
ENDROOT
BRANCH  16  18
HETATM   18  C12 UNL     1      25.706   0.025  53.858  1.00  0.00    -0.032 A 
HETATM   19  C13 UNL     1      26.586   0.513  54.836  1.00  0.00     0.011 A 
HETATM   20  C14 UNL     1      27.932   0.214  54.790  1.00  0.00     0.024 A 
HETATM   21  C15 UNL     1      28.416  -0.574  53.769  1.00  0.00     0.034 A 
HETATM   22 CL1  UNL     1      30.109  -0.987  53.665  1.00  0.00    -0.084 Cl
HETATM   23  C16 UNL     1      27.527  -1.031  52.833  1.00  0.00     0.024 A 
HETATM   24  C17 UNL     1      26.164  -0.763  52.829  1.00  0.00     0.011 A 
ENDBRANCH  16  18
BRANCH  15  25
HETATM   25  O2  UNL     1      19.459   3.443  49.106  1.00  0.00    -0.367 OA
HETATM   26  H9  UNL     1      18.758   2.815  48.783  1.00  0.00     0.213 HD
ENDBRANCH  15  25
TORSDOF 2
ENDMDL
MODEL 4
REMARK VINA RESULT:      -8.2      3.319      5.768
REMARK  2 active torsions:
REMARK  status: ('A' for Active; 'I' for Inactive)
REMARK    1  A    between atoms: C10_15  and  O2_16 
REMARK    2  A    between atoms: C11_17  and  C12_18 
ROOT
HETATM    1  C1  UNL     1      19.236  -0.176  52.356  1.00  0.00     0.048 C 
HETATM    2  C2  UNL     1      19.944   1.069  52.674  1.00  0.00    -0.029 C 
HETATM    3  C3  UNL     1      20.495   2.213  52.549  1.00  0.00     0.005 C 
HETATM    4  C4  UNL     1      21.129   3.489  52.500  1.00  0.00     0.012 C 
HETATM    5  C5  UNL     1      21.484   4.391  51.650  1.00  0.00     0.283 A 
HETATM    6  C6  UNL     1      21.528   4.767  50.274  1.00  0.00     0.254 A 
HETATM    7  N1  UNL     1      22.788   4.780  50.706  1.00  0.00     0.046 N 
HETATM    8  N2  UNL     1      23.323   3.514  50.544  1.00  0.00    -0.172 N 
HETATM    9  C7  UNL     1      23.591   2.381  51.355  1.00  0.00     0.197 A 
HETATM   10  N3  UNL     1      22.929   1.519  52.001  1.00  0.00    -0.198 NA
HETATM   11  C8  UNL     1      23.293   0.566  52.742  1.00  0.00     0.176 A 
HETATM   12  C9  UNL     1      24.687   0.447  52.860  1.00  0.00     0.111 A 
HETATM   13  S1  UNL     1      25.240   1.918  51.742  1.00  0.00    -0.058 SA
HETATM   14  O1  UNL     1      22.041   0.082  53.092  1.00  0.00    -0.298 OA
HETATM   15  C10 UNL     1      20.994   0.787  53.774  1.00  0.00     0.295 C 
HETATM   16  C11 UNL     1      23.465   4.015  49.217  1.00  0.00     0.180 C 
HETATM   17  C18 UNL     1      22.407   5.103  49.122  1.00  0.00     0.315 A 
ENDROOT
BRANCH  16  18
HETATM   18  C12 UNL     1      24.831   4.568  49.010  1.00  0.00    -0.032 A 
HETATM   19  C13 UNL     1      24.969   5.921  48.666  1.00  0.00     0.011 A 
HETATM   20  C14 UNL     1      26.216   6.476  48.463  1.00  0.00     0.024 A 
HETATM   21  C15 UNL     1      27.337   5.690  48.600  1.00  0.00     0.034 A 
HETATM   22 CL1  UNL     1      28.940   6.342  48.360  1.00  0.00    -0.084 Cl
HETATM   23  C16 UNL     1      27.164   4.374  48.936  1.00  0.00     0.024 A 
HETATM   24  C17 UNL     1      25.935   3.762  49.153  1.00  0.00     0.011 A 
ENDBRANCH  16  18
BRANCH  15  25
HETATM   25  O2  UNL     1      20.424  -0.112  54.663  1.00  0.00    -0.367 OA
HETATM   26  H9  UNL     1      20.421   0.305  55.567  1.00  0.00     0.213 HD
ENDBRANCH  15  25
TORSDOF 2
ENDMDL
MODEL 5
REMARK VINA RESULT:      -8.1      4.190      7.383
REMARK  2 active torsions:
REMARK  status: ('A' for Active; 'I' for Inactive)
REMARK    1  A    between atoms: C10_15  and  O2_16 
REMARK    2  A    between atoms: C11_17  and  C12_18 
ROOT
HETATM    1  C1  UNL     1      28.493   0.613  54.579  1.00  0.00     0.048 C 
HETATM    2  C2  UNL     1      27.777   0.685  53.300  1.00  0.00    -0.029 C 
HETATM    3  C3  UNL     1      27.119   1.140  52.306  1.00  0.00     0.005 C 
HETATM    4  C4  UNL     1      26.388   1.562  51.157  1.00  0.00     0.012 C 
HETATM    5  C5  UNL     1      25.773   2.598  50.695  1.00  0.00     0.283 A 
HETATM    6  C6  UNL     1      25.383   3.948  50.941  1.00  0.00     0.254 A 
HETATM    7  N1  UNL     1      24.260   3.269  50.714  1.00  0.00     0.046 N 
HETATM    8  N2  UNL     1      23.808   2.750  51.915  1.00  0.00    -0.172 N 
HETATM    9  C7  UNL     1      23.829   1.501  52.587  1.00  0.00     0.197 A 
HETATM   10  N3  UNL     1      24.690   0.736  53.107  1.00  0.00    -0.198 NA
HETATM   11  C8  UNL     1      24.586  -0.401  53.644  1.00  0.00     0.176 A 
HETATM   12  C9  UNL     1      23.272  -0.892  53.667  1.00  0.00     0.111 A 
HETATM   13  S1  UNL     1      22.357   0.568  52.800  1.00  0.00    -0.058 SA
HETATM   14  O1  UNL     1      25.920  -0.605  53.963  1.00  0.00    -0.298 OA
HETATM   15  C10 UNL     1      27.035  -0.651  53.061  1.00  0.00     0.295 C 
HETATM   16  C11 UNL     1      23.324   4.086  52.024  1.00  0.00     0.180 C 
HETATM   17  C18 UNL     1      24.238   4.883  51.107  1.00  0.00     0.315 A 
ENDROOT
BRANCH  16  18
HETATM   18  C12 UNL     1      21.906   4.167  51.579  1.00  0.00    -0.032 A 
HETATM   19  C13 UNL     1      21.593   4.939  50.450  1.00  0.00     0.011 A 
HETATM   20  C14 UNL     1      20.293   5.044  50.002  1.00  0.00     0.024 A 
HETATM   21  C15 UNL     1      19.290   4.381  50.674  1.00  0.00     0.034 A 
HETATM   22 CL1  UNL     1      17.627   4.475  50.148  1.00  0.00    -0.084 Cl
HETATM   23  C16 UNL     1      19.633   3.638  51.772  1.00  0.00     0.024 A 
HETATM   24  C17 UNL     1      20.923   3.496  52.267  1.00  0.00     0.011 A 
ENDBRANCH  16  18
BRANCH  15  25
HETATM   25  O2  UNL     1      27.866  -1.667  53.508  1.00  0.00    -0.367 OA
HETATM   26  H9  UNL     1      28.633  -1.741  52.878  1.00  0.00     0.213 HD
ENDBRANCH  15  25
TORSDOF 2
ENDMDL
MODEL 6
REMARK VINA RESULT:      -8.0      3.721      5.871
REMARK  2 active torsions:
REMARK  status: ('A' for Active; 'I' for Inactive)
REMARK    1  A    between atoms: C10_15  and  O2_16 
REMARK    2  A    between atoms: C11_17  and  C12_18 
ROOT
HETATM    1  C1  UNL     1      25.651   5.957  49.988  1.00  0.00     0.048 C 
HETATM    2  C2  UNL     1      25.049   4.712  49.499  1.00  0.00    -0.029 C 
HETATM    3  C3  UNL     1      24.182   3.829  49.186  1.00  0.00     0.005 C 
HETATM    4  C4  UNL     1      23.285   2.789  48.805  1.00  0.00     0.012 C 
HETATM    5  C5  UNL     1      22.033   2.483  48.865  1.00  0.00     0.283 A 
HETATM    6  C6  UNL     1      20.738   2.886  49.309  1.00  0.00     0.254 A 
HETATM    7  N1  UNL     1      20.980   1.706  49.878  1.00  0.00     0.046 N 
HETATM    8  N2  UNL     1      21.636   1.920  51.078  1.00  0.00    -0.172 N 
HETATM    9  C7  UNL     1      22.966   1.858  51.567  1.00  0.00     0.197 A 
HETATM   10  N3  UNL     1      24.055   2.474  51.388  1.00  0.00    -0.198 NA
HETATM   11  C8  UNL     1      25.211   2.287  51.859  1.00  0.00     0.176 A 
HETATM   12  C9  UNL     1      25.288   1.198  52.741  1.00  0.00     0.111 A 
HETATM   13  S1  UNL     1      23.453   0.604  52.696  1.00  0.00    -0.058 SA
HETATM   14  O1  UNL     1      25.868   3.327  51.219  1.00  0.00    -0.298 OA
HETATM   15  C10 UNL     1      26.003   3.534  49.805  1.00  0.00     0.295 C 
HETATM   16  C11 UNL     1      20.292   2.169  51.482  1.00  0.00     0.180 C 
HETATM   17  C18 UNL     1      19.587   2.555  50.191  1.00  0.00     0.315 A 
ENDROOT
BRANCH  16  18
HETATM   18  C12 UNL     1      19.691   0.946  52.082  1.00  0.00    -0.032 A 
HETATM   19  C13 UNL     1      18.548   0.391  51.487  1.00  0.00     0.011 A 
HETATM   20  C14 UNL     1      17.956  -0.740  52.010  1.00  0.00     0.024 A 
HETATM   21  C15 UNL     1      18.497  -1.330  53.130  1.00  0.00     0.034 A 
HETATM   22 CL1  UNL     1      17.792  -2.767  53.831  1.00  0.00    -0.084 Cl
HETATM   23  C16 UNL     1      19.612  -0.760  53.683  1.00  0.00     0.024 A 
HETATM   24  C17 UNL     1      20.249   0.376  53.201  1.00  0.00     0.011 A 
ENDBRANCH  16  18
BRANCH  15  25
HETATM   25  O2  UNL     1      27.296   3.988  49.591  1.00  0.00    -0.367 OA
HETATM   26  H9  UNL     1      27.606   3.640  48.712  1.00  0.00     0.213 HD
ENDBRANCH  15  25
TORSDOF 2
ENDMDL
MODEL 7
REMARK VINA RESULT:      -7.7      3.923      6.055
REMARK  2 active torsions:
REMARK  status: ('A' for Active; 'I' for Inactive)
REMARK    1  A    between atoms: C10_15  and  O2_16 
REMARK    2  A    between atoms: C11_17  and  C12_18 
ROOT
HETATM    1  C1  UNL     1      26.791   3.599  49.335  1.00  0.00     0.048 C 
HETATM    2  C2  UNL     1      25.901   3.622  50.502  1.00  0.00    -0.029 C 
HETATM    3  C3  UNL     1      25.136   3.237  51.447  1.00  0.00     0.005 C 
HETATM    4  C4  UNL     1      24.273   2.895  52.530  1.00  0.00     0.012 C 
HETATM    5  C5  UNL     1      23.667   1.876  53.035  1.00  0.00     0.283 A 
HETATM    6  C6  UNL     1      23.406   0.477  52.917  1.00  0.00     0.254 A 
HETATM    7  N1  UNL     1      22.220   1.083  52.896  1.00  0.00     0.046 N 
HETATM    8  N2  UNL     1      21.916   1.414  51.587  1.00  0.00    -0.172 N 
HETATM    9  C7  UNL     1      21.953   2.570  50.766  1.00  0.00     0.197 A 
HETATM   10  N3  UNL     1      22.830   3.337  50.274  1.00  0.00    -0.198 NA
HETATM   11  C8  UNL     1      22.731   4.388  49.583  1.00  0.00     0.176 A 
HETATM   12  C9  UNL     1      21.405   4.762  49.316  1.00  0.00     0.111 A 
HETATM   13  S1  UNL     1      20.471   3.345  50.233  1.00  0.00    -0.058 SA
HETATM   14  O1  UNL     1      24.082   4.662  49.427  1.00  0.00    -0.298 OA
HETATM   15  C10 UNL     1      25.046   4.910  50.460  1.00  0.00     0.295 C 
HETATM   16  C11 UNL     1      21.542   0.038  51.589  1.00  0.00     0.180 C 
HETATM   17  C18 UNL     1      22.361  -0.563  52.719  1.00  0.00     0.315 A 
ENDROOT
BRANCH  16  18
HETATM   18  C12 UNL     1      20.082  -0.106  51.842  1.00  0.00    -0.032 A 
HETATM   19  C13 UNL     1      19.658  -0.730  53.024  1.00  0.00     0.011 A 
HETATM   20  C14 UNL     1      18.315  -0.887  53.300  1.00  0.00     0.024 A 
HETATM   21  C15 UNL     1      17.381  -0.425  52.400  1.00  0.00     0.034 A 
HETATM   22 CL1  UNL     1      15.669  -0.593  52.701  1.00  0.00    -0.084 Cl
HETATM   23  C16 UNL     1      17.833   0.177  51.256  1.00  0.00     0.024 A 
HETATM   24  C17 UNL     1      19.170   0.363  50.927  1.00  0.00     0.011 A 
ENDBRANCH  16  18
BRANCH  15  25
HETATM   25  O2  UNL     1      25.866   5.931  50.002  1.00  0.00    -0.367 OA
HETATM   26  H9  UNL     1      25.354   6.466  49.336  1.00  0.00     0.213 HD
ENDBRANCH  15  25
TORSDOF 2
ENDMDL
MODEL 8
REMARK VINA RESULT:      -7.7      4.022      4.929
REMARK  2 active torsions:
REMARK  status: ('A' for Active; 'I' for Inactive)
REMARK    1  A    between atoms: C10_15  and  O2_16 
REMARK    2  A    between atoms: C11_17  and  C12_18 
ROOT
HETATM    1  C1  UNL     1      15.064   3.598  52.555  1.00  0.00     0.048 C 
HETATM    2  C2  UNL     1      15.954   2.673  51.845  1.00  0.00    -0.029 C 
HETATM    3  C3  UNL     1      16.821   1.765  51.615  1.00  0.00     0.005 C 
HETATM    4  C4  UNL     1      17.774   0.764  51.266  1.00  0.00     0.012 C 
HETATM    5  C5  UNL     1      18.636  -0.023  51.815  1.00  0.00     0.283 A 
HETATM    6  C6  UNL     1      19.240  -0.447  53.037  1.00  0.00     0.254 A 
HETATM    7  N1  UNL     1      20.232  -0.023  52.255  1.00  0.00     0.046 N 
HETATM    8  N2  UNL     1      20.401   1.336  52.455  1.00  0.00    -0.172 N 
HETATM    9  C7  UNL     1      20.046   2.541  51.796  1.00  0.00     0.197 A 
HETATM   10  N3  UNL     1      18.988   3.178  51.523  1.00  0.00    -0.198 NA
HETATM   11  C8  UNL     1      18.795   4.241  50.872  1.00  0.00     0.176 A 
HETATM   12  C9  UNL     1      19.973   4.813  50.369  1.00  0.00     0.111 A 
HETATM   13  S1  UNL     1      21.265   3.538  51.020  1.00  0.00    -0.058 SA
HETATM   14  O1  UNL     1      17.415   4.311  50.992  1.00  0.00    -0.298 OA
HETATM   15  C10 UNL     1      16.451   3.347  50.545  1.00  0.00     0.295 C 
HETATM   16  C11 UNL     1      21.113   0.829  53.581  1.00  0.00     0.180 C 
HETATM   17  C18 UNL     1      20.509  -0.547  53.807  1.00  0.00     0.315 A 
ENDROOT
BRANCH  16  18
HETATM   18  C12 UNL     1      22.569   0.739  53.282  1.00  0.00    -0.032 A 
HETATM   19  C13 UNL     1      23.213  -0.499  53.421  1.00  0.00     0.011 A 
HETATM   20  C14 UNL     1      24.561  -0.629  53.156  1.00  0.00     0.024 A 
HETATM   21  C15 UNL     1      25.280   0.473  52.752  1.00  0.00     0.034 A 
HETATM   22 CL1  UNL     1      26.988   0.364  52.399  1.00  0.00    -0.084 Cl
HETATM   23  C16 UNL     1      24.618   1.664  52.628  1.00  0.00     0.024 A 
HETATM   24  C17 UNL     1      23.265   1.854  52.880  1.00  0.00     0.011 A 
ENDBRANCH  16  18
BRANCH  15  25
HETATM   25  O2  UNL     1      15.385   4.064  50.022  1.00  0.00    -0.367 OA
HETATM   26  H9  UNL     1      14.573   3.488  50.065  1.00  0.00     0.213 HD
ENDBRANCH  15  25
TORSDOF 2
ENDMDL
MODEL 9
REMARK VINA RESULT:      -7.6      2.394      2.887
REMARK  2 active torsions:
REMARK  status: ('A' for Active; 'I' for Inactive)
REMARK    1  A    between atoms: C10_15  and  O2_16 
REMARK    2  A    between atoms: C11_17  and  C12_18 
ROOT
HETATM    1  C1  UNL     1      17.004   4.115  51.573  1.00  0.00     0.048 C 
HETATM    2  C2  UNL     1      18.065   3.397  50.859  1.00  0.00    -0.029 C 
HETATM    3  C3  UNL     1      19.000   2.569  50.596  1.00  0.00     0.005 C 
HETATM    4  C4  UNL     1      20.049   1.681  50.217  1.00  0.00     0.012 C 
HETATM    5  C5  UNL     1      20.805   0.764  50.716  1.00  0.00     0.283 A 
HETATM    6  C6  UNL     1      21.150   0.024  51.887  1.00  0.00     0.254 A 
HETATM    7  N1  UNL     1      22.267   0.624  51.480  1.00  0.00     0.046 N 
HETATM    8  N2  UNL     1      22.331   1.879  52.060  1.00  0.00    -0.172 N 
HETATM    9  C7  UNL     1      22.073   3.221  51.676  1.00  0.00     0.197 A 
HETATM   10  N3  UNL     1      21.073   3.923  51.354  1.00  0.00    -0.198 NA
HETATM   11  C8  UNL     1      20.978   5.123  50.976  1.00  0.00     0.176 A 
HETATM   12  C9  UNL     1      22.211   5.790  50.910  1.00  0.00     0.111 A 
HETATM   13  S1  UNL     1      23.387   4.368  51.473  1.00  0.00    -0.058 SA
HETATM   14  O1  UNL     1      19.603   5.180  50.804  1.00  0.00    -0.298 OA
HETATM   15  C10 UNL     1      18.800   4.382  49.922  1.00  0.00     0.295 C 
HETATM   16  C11 UNL     1      22.804   1.083  53.142  1.00  0.00     0.180 C 
HETATM   17  C18 UNL     1      22.226  -0.295  52.864  1.00  0.00     0.315 A 
ENDROOT
BRANCH  16  18
HETATM   18  C12 UNL     1      24.293   1.052  53.157  1.00  0.00    -0.032 A 
HETATM   19  C13 UNL     1      24.990   2.218  53.505  1.00  0.00     0.011 A 
HETATM   20  C14 UNL     1      26.370   2.237  53.530  1.00  0.00     0.024 A 
HETATM   21  C15 UNL     1      27.068   1.095  53.209  1.00  0.00     0.034 A 
HETATM   22 CL1  UNL     1      28.814   1.061  53.230  1.00  0.00    -0.084 Cl
HETATM   23  C16 UNL     1      26.353  -0.023  52.874  1.00  0.00     0.024 A 
HETATM   24  C17 UNL     1      24.966  -0.100  52.832  1.00  0.00     0.011 A 
ENDBRANCH  16  18
BRANCH  15  25
HETATM   25  O2  UNL     1      17.842   5.228  49.383  1.00  0.00    -0.367 OA
HETATM   26  H9  UNL     1      18.048   6.157  49.674  1.00  0.00     0.213 HD
ENDBRANCH  15  25
TORSDOF 2
ENDMDL
