MODEL 1
REMARK VINA RESULT:      -7.2      0.000      0.000
REMARK  6 active torsions:
REMARK  status: ('A' for Active; 'I' for Inactive)
REMARK    1  A    between atoms: C2_2  and  O1_3 
REMARK    2  A    between atoms: O1_3  and  C3_4 
REMARK    3  A    between atoms: C10_13  and  C11_14 
REMARK    4  A    between atoms: C11_14  and  N3_15 
REMARK    5  A    between atoms: C17_23  and  C18_24 
REMARK    6  A    between atoms: C18_24  and  C19_25 
ROOT
HETATM    1  C3  UNL     1      21.687   0.778  52.321  1.00  0.00     0.084 C 
HETATM    2  C4  UNL     1      22.152   1.797  51.639  1.00  0.00     0.054 C 
HETATM    3  N1  UNL     1      21.323   2.950  52.274  1.00  0.00    -0.372 N 
HETATM    4  C5  UNL     1      21.157   4.386  51.983  1.00  0.00     0.269 C 
HETATM    5  N2  UNL     1      21.504   4.880  50.709  1.00  0.00    -0.285 NA
HETATM    6  C6  UNL     1      22.467   4.575  49.783  1.00  0.00     0.101 C 
HETATM    7  C7  UNL     1      23.446   3.357  49.851  1.00  0.00     0.039 A 
HETATM    8  C8  UNL     1      24.204   3.093  50.896  1.00  0.00    -0.066 A 
HETATM    9  C9  UNL     1      25.120   2.947  52.010  1.00  0.00     0.045 C 
HETATM   10  C10 UNL     1      25.058   1.809  52.906  1.00  0.00     0.004 C 
HETATM   11  C14 UNL     1      24.344   0.693  53.078  1.00  0.00     0.007 C 
HETATM   12  O2  UNL     1      23.924  -0.485  53.623  1.00  0.00     0.000 OA
HETATM   13  N4  UNL     1      22.835  -1.178  53.151  1.00  0.00    -0.255 NA
HETATM   14  C15 UNL     1      22.212  -0.574  52.025  1.00  0.00     0.171 C 
HETATM   15  C16 UNL     1      23.165   2.200  50.488  1.00  0.00     0.047 A 
HETATM   16  C17 UNL     1      22.212   1.714  49.802  1.00  0.00    -0.076 A 
HETATM   17  C25 UNL     1      23.254   2.382  48.718  1.00  0.00     0.070 A 
HETATM   18  H6  UNL     1      20.706   2.716  53.122  1.00  0.00     0.161 HD
HETATM   19  H21 UNL     1      22.194  -1.327  53.954  1.00  0.00     0.141 HD
ENDROOT
BRANCH  16  20
HETATM   20  C18 UNL     1      21.048   1.094  49.219  1.00  0.00     0.070 C 
BRANCH  20  21
HETATM   21  C19 UNL     1      19.966   2.071  48.959  1.00  0.00    -0.054 A 
HETATM   22  C20 UNL     1      18.919   2.396  49.772  1.00  0.00     0.007 A 
HETATM   23  C21 UNL     1      17.937   3.314  49.498  1.00  0.00     0.001 A 
HETATM   24  C22 UNL     1      17.976   3.991  48.302  1.00  0.00     0.000 A 
HETATM   25  C23 UNL     1      19.003   3.719  47.423  1.00  0.00     0.001 A 
HETATM   26  C24 UNL     1      19.969   2.781  47.754  1.00  0.00     0.007 A 
ENDBRANCH  20  21
ENDBRANCH  16  20
BRANCH   1  27
HETATM   27  O1  UNL     1      20.730   1.045  53.272  1.00  0.00    -0.352 OA
BRANCH  27  28
HETATM   28  C2  UNL     1      19.800   0.008  53.581  1.00  0.00     0.171 C 
HETATM   29  C1  UNL     1      18.810  -0.057  52.438  1.00  0.00     0.034 C 
ENDBRANCH  27  28
ENDBRANCH   1  27
BRANCH  10  30
HETATM   30  C11 UNL     1      26.191   2.028  53.863  1.00  0.00     0.282 C 
BRANCH  30  31
HETATM   31  N3  UNL     1      27.426   1.428  53.485  1.00  0.00     0.080 N 
HETATM   32  C12 UNL     1      27.715   0.442  54.562  1.00  0.00     0.309 C 
HETATM   33  C13 UNL     1      28.549   2.360  53.591  1.00  0.00     0.309 C 
ENDBRANCH  30  31
ENDBRANCH  10  30
TORSDOF 6
ENDMDL
MODEL 2
REMARK VINA RESULT:      -7.1      3.621      5.707
REMARK  6 active torsions:
REMARK  status: ('A' for Active; 'I' for Inactive)
REMARK    1  A    between atoms: C2_2  and  O1_3 
REMARK    2  A    between atoms: O1_3  and  C3_4 
REMARK    3  A    between atoms: C10_13  and  C11_14 
REMARK    4  A    between atoms: C11_14  and  N3_15 
REMARK    5  A    between atoms: C17_23  and  C18_24 
REMARK    6  A    between atoms: C18_24  and  C19_25 
ROOT
HETATM    1  C3  UNL     1      25.568   3.873  50.256  1.00  0.00     0.084 C 
HETATM    2  C4  UNL     1      24.379   4.422  50.278  1.00  0.00     0.054 C 
HETATM    3  N1  UNL     1      24.028   4.254  51.784  1.00  0.00    -0.372 N 
HETATM    4  C5  UNL     1      22.823   4.494  52.598  1.00  0.00     0.269 C 
HETATM    5  N2  UNL     1      21.566   4.586  51.966  1.00  0.00    -0.285 NA
HETATM    6  C6  UNL     1      21.122   5.069  50.763  1.00  0.00     0.101 C 
HETATM    7  C7  UNL     1      22.027   5.561  49.586  1.00  0.00     0.039 A 
HETATM    8  C8  UNL     1      22.975   6.465  49.730  1.00  0.00    -0.066 A 
HETATM    9  C9  UNL     1      23.894   7.570  49.921  1.00  0.00     0.045 C 
HETATM   10  C10 UNL     1      25.327   7.405  49.776  1.00  0.00     0.004 C 
HETATM   11  C14 UNL     1      26.212   6.448  49.487  1.00  0.00     0.007 C 
HETATM   12  O2  UNL     1      27.414   5.845  49.258  1.00  0.00     0.000 OA
HETATM   13  N4  UNL     1      27.538   4.499  49.006  1.00  0.00    -0.255 NA
HETATM   14  C15 UNL     1      26.297   3.805  48.970  1.00  0.00     0.171 C 
HETATM   15  C16 UNL     1      23.284   5.116  49.366  1.00  0.00     0.047 A 
HETATM   16  C17 UNL     1      23.110   3.898  49.052  1.00  0.00    -0.076 A 
HETATM   17  C25 UNL     1      21.880   4.726  48.340  1.00  0.00     0.070 A 
HETATM   18  H6  UNL     1      24.793   3.878  52.438  1.00  0.00     0.161 HD
HETATM   19  H21 UNL     1      28.212   4.118  49.697  1.00  0.00     0.141 HD
ENDROOT
BRANCH  16  20
HETATM   20  C18 UNL     1      23.101   2.476  48.812  1.00  0.00     0.070 C 
BRANCH  20  21
HETATM   21  C19 UNL     1      22.184   1.760  49.728  1.00  0.00    -0.054 A 
HETATM   22  C20 UNL     1      22.468   1.241  50.958  1.00  0.00     0.007 A 
HETATM   23  C21 UNL     1      21.587   0.587  51.783  1.00  0.00     0.001 A 
HETATM   24  C22 UNL     1      20.288   0.420  51.367  1.00  0.00     0.000 A 
HETATM   25  C23 UNL     1      19.920   0.916  50.134  1.00  0.00     0.001 A 
HETATM   26  C24 UNL     1      20.854   1.568  49.342  1.00  0.00     0.007 A 
ENDBRANCH  20  21
ENDBRANCH  16  20
BRANCH   1  27
HETATM   27  O1  UNL     1      26.058   3.390  51.449  1.00  0.00    -0.352 OA
BRANCH  27  28
HETATM   28  C2  UNL     1      26.730   2.133  51.425  1.00  0.00     0.171 C 
HETATM   29  C1  UNL     1      25.904   1.170  52.249  1.00  0.00     0.034 C 
ENDBRANCH  27  28
ENDBRANCH   1  27
BRANCH  10  30
HETATM   30  C11 UNL     1      25.883   8.778  50.007  1.00  0.00     0.282 C 
BRANCH  30  31
HETATM   31  N3  UNL     1      26.717   9.275  48.965  1.00  0.00     0.080 N 
HETATM   32  C12 UNL     1      27.978   9.676  49.647  1.00  0.00     0.309 C 
HETATM   33  C13 UNL     1      26.228  10.542  48.421  1.00  0.00     0.309 C 
ENDBRANCH  30  31
ENDBRANCH  10  30
TORSDOF 6
ENDMDL
MODEL 3
REMARK VINA RESULT:      -7.0      1.846      2.478
REMARK  6 active torsions:
REMARK  status: ('A' for Active; 'I' for Inactive)
REMARK    1  A    between atoms: C2_2  and  O1_3 
REMARK    2  A    between atoms: O1_3  and  C3_4 
REMARK    3  A    between atoms: C10_13  and  C11_14 
REMARK    4  A    between atoms: C11_14  and  N3_15 
REMARK    5  A    between atoms: C17_23  and  C18_24 
REMARK    6  A    between atoms: C18_24  and  C19_25 
ROOT
HETATM    1  C3  UNL     1      21.999   1.997  51.781  1.00  0.00     0.084 C 
HETATM    2  C4  UNL     1      23.014   2.753  51.442  1.00  0.00     0.054 C 
HETATM    3  N1  UNL     1      22.682   4.036  52.256  1.00  0.00    -0.372 N 
HETATM    4  C5  UNL     1      23.256   5.393  52.329  1.00  0.00     0.269 C 
HETATM    5  N2  UNL     1      24.063   5.861  51.272  1.00  0.00    -0.285 NA
HETATM    6  C6  UNL     1      24.961   5.285  50.412  1.00  0.00     0.101 C 
HETATM    7  C7  UNL     1      25.237   3.752  50.273  1.00  0.00     0.039 A 
HETATM    8  C8  UNL     1      25.538   2.973  51.293  1.00  0.00    -0.066 A 
HETATM    9  C9  UNL     1      26.014   2.206  52.426  1.00  0.00     0.045 C 
HETATM   10  C10 UNL     1      25.244   1.111  52.985  1.00  0.00     0.004 C 
HETATM   11  C14 UNL     1      24.082   0.483  52.783  1.00  0.00     0.007 C 
HETATM   12  O2  UNL     1      23.064  -0.407  52.955  1.00  0.00     0.000 OA
HETATM   13  N4  UNL     1      21.914  -0.380  52.202  1.00  0.00    -0.255 NA
HETATM   14  C15 UNL     1      21.902   0.636  51.207  1.00  0.00     0.171 C 
HETATM   15  C16 UNL     1      24.327   2.794  50.555  1.00  0.00     0.047 A 
HETATM   16  C17 UNL     1      23.437   2.968  49.664  1.00  0.00    -0.076 A 
HETATM   17  C25 UNL     1      24.880   3.210  48.913  1.00  0.00     0.070 A 
HETATM   18  H6  UNL     1      21.854   3.996  52.941  1.00  0.00     0.161 HD
HETATM   19  H21 UNL     1      21.115  -0.329  52.862  1.00  0.00     0.141 HD
ENDROOT
BRANCH  16  20
HETATM   20  C18 UNL     1      22.281   3.114  48.815  1.00  0.00     0.070 C 
BRANCH  20  21
HETATM   21  C19 UNL     1      21.976   4.534  48.525  1.00  0.00    -0.054 A 
HETATM   22  C20 UNL     1      21.173   5.379  49.235  1.00  0.00     0.007 A 
HETATM   23  C21 UNL     1      20.919   6.694  48.938  1.00  0.00     0.001 A 
HETATM   24  C22 UNL     1      21.511   7.250  47.828  1.00  0.00     0.000 A 
HETATM   25  C23 UNL     1      22.338   6.461  47.056  1.00  0.00     0.001 A 
HETATM   26  C24 UNL     1      22.558   5.137  47.405  1.00  0.00     0.007 A 
ENDBRANCH  20  21
ENDBRANCH  16  20
BRANCH   1  27
HETATM   27  O1  UNL     1      21.082   2.533  52.656  1.00  0.00    -0.352 OA
BRANCH  27  28
HETATM   28  C2  UNL     1      19.702   2.262  52.415  1.00  0.00     0.171 C 
HETATM   29  C1  UNL     1      19.172   3.386  51.553  1.00  0.00     0.034 C 
ENDBRANCH  27  28
ENDBRANCH   1  27
BRANCH  10  30
HETATM   30  C11 UNL     1      26.107   0.575  54.087  1.00  0.00     0.282 C 
BRANCH  30  31
HETATM   31  N3  UNL     1      27.469   0.351  53.733  1.00  0.00     0.080 N 
HETATM   32  C12 UNL     1      27.484  -1.005  53.120  1.00  0.00     0.309 C 
HETATM   33  C13 UNL     1      28.325   0.184  54.908  1.00  0.00     0.309 C 
ENDBRANCH  30  31
ENDBRANCH  10  30
TORSDOF 6
ENDMDL
MODEL 4
REMARK VINA RESULT:      -6.9      2.640      6.879
REMARK  6 active torsions:
REMARK  status: ('A' for Active; 'I' for Inactive)
REMARK    1  A    between atoms: C2_2  and  O1_3 
REMARK    2  A    between atoms: O1_3  and  C3_4 
REMARK    3  A    between atoms: C10_13  and  C11_14 
REMARK    4  A    between atoms: C11_14  and  N3_15 
REMARK    5  A    between atoms: C17_23  and  C18_24 
REMARK    6  A    between atoms: C18_24  and  C19_25 
ROOT
HETATM    1  C3  UNL     1      22.884   4.266  51.124  1.00  0.00     0.084 C 
HETATM    2  C4  UNL     1      21.993   3.331  50.903  1.00  0.00     0.054 C 
HETATM    3  N1  UNL     1      20.711   4.051  51.409  1.00  0.00    -0.372 N 
HETATM    4  C5  UNL     1      19.311   3.640  51.622  1.00  0.00     0.269 C 
HETATM    5  N2  UNL     1      19.000   2.270  51.741  1.00  0.00    -0.285 NA
HETATM    6  C6  UNL     1      19.489   1.116  51.187  1.00  0.00     0.101 C 
HETATM    7  C7  UNL     1      20.764   1.002  50.289  1.00  0.00     0.039 A 
HETATM    8  C8  UNL     1      20.963   1.739  49.215  1.00  0.00    -0.066 A 
HETATM    9  C9  UNL     1      21.049   2.468  47.965  1.00  0.00     0.045 C 
HETATM   10  C10 UNL     1      22.066   3.476  47.737  1.00  0.00     0.004 C 
HETATM   11  C14 UNL     1      23.092   4.043  48.377  1.00  0.00     0.007 C 
HETATM   12  O2  UNL     1      24.160   4.858  48.610  1.00  0.00     0.000 OA
HETATM   13  N4  UNL     1      24.815   4.902  49.819  1.00  0.00    -0.255 NA
HETATM   14  C15 UNL     1      24.299   3.995  50.786  1.00  0.00     0.171 C 
HETATM   15  C16 UNL     1      21.812   1.852  50.360  1.00  0.00     0.047 A 
HETATM   16  C17 UNL     1      22.297   1.620  51.511  1.00  0.00    -0.076 A 
HETATM   17  C25 UNL     1      21.847   0.158  50.909  1.00  0.00     0.070 A 
HETATM   18  H6  UNL     1      20.793   5.085  51.687  1.00  0.00     0.161 HD
HETATM   19  H21 UNL     1      24.816   5.892  50.131  1.00  0.00     0.141 HD
ENDROOT
BRANCH  16  20
HETATM   20  C18 UNL     1      22.887   1.578  52.827  1.00  0.00     0.070 C 
BRANCH  20  21
HETATM   21  C19 UNL     1      24.177   0.852  52.837  1.00  0.00    -0.054 A 
HETATM   22  C20 UNL     1      25.237   1.017  51.995  1.00  0.00     0.007 A 
HETATM   23  C21 UNL     1      26.423   0.327  52.040  1.00  0.00     0.001 A 
HETATM   24  C22 UNL     1      26.596  -0.629  53.012  1.00  0.00     0.000 A 
HETATM   25  C23 UNL     1      25.570  -0.858  53.904  1.00  0.00     0.001 A 
HETATM   26  C24 UNL     1      24.394  -0.130  53.810  1.00  0.00     0.007 A 
ENDBRANCH  20  21
ENDBRANCH  16  20
BRANCH   1  27
HETATM   27  O1  UNL     1      22.432   5.448  51.665  1.00  0.00    -0.352 OA
BRANCH  27  28
HETATM   28  C2  UNL     1      22.931   6.663  51.109  1.00  0.00     0.171 C 
HETATM   29  C1  UNL     1      21.871   7.190  50.167  1.00  0.00     0.034 C 
ENDBRANCH  27  28
ENDBRANCH   1  27
BRANCH  10  30
HETATM   30  C11 UNL     1      21.827   3.932  46.329  1.00  0.00     0.282 C 
BRANCH  30  31
HETATM   31  N3  UNL     1      20.461   4.158  45.991  1.00  0.00     0.080 N 
HETATM   32  C12 UNL     1      20.385   3.904  44.526  1.00  0.00     0.309 C 
HETATM   33  C13 UNL     1      20.093   5.571  46.093  1.00  0.00     0.309 C 
ENDBRANCH  30  31
ENDBRANCH  10  30
TORSDOF 6
ENDMDL
MODEL 5
REMARK VINA RESULT:      -6.9      2.228      4.033
REMARK  6 active torsions:
REMARK  status: ('A' for Active; 'I' for Inactive)
REMARK    1  A    between atoms: C2_2  and  O1_3 
REMARK    2  A    between atoms: O1_3  and  C3_4 
REMARK    3  A    between atoms: C10_13  and  C11_14 
REMARK    4  A    between atoms: C11_14  and  N3_15 
REMARK    5  A    between atoms: C17_23  and  C18_24 
REMARK    6  A    between atoms: C18_24  and  C19_25 
ROOT
HETATM    1  C3  UNL     1      23.141   3.944  51.330  1.00  0.00     0.084 C 
HETATM    2  C4  UNL     1      22.284   2.997  51.035  1.00  0.00     0.054 C 
HETATM    3  N1  UNL     1      22.707   2.694  49.569  1.00  0.00    -0.372 N 
HETATM    4  C5  UNL     1      22.163   1.849  48.490  1.00  0.00     0.269 C 
HETATM    5  N2  UNL     1      20.818   1.430  48.548  1.00  0.00    -0.285 NA
HETATM    6  C6  UNL     1      19.955   1.088  49.556  1.00  0.00     0.101 C 
HETATM    7  C7  UNL     1      20.233   1.237  51.087  1.00  0.00     0.039 A 
HETATM    8  C8  UNL     1      21.303   0.747  51.681  1.00  0.00    -0.066 A 
HETATM    9  C9  UNL     1      22.418   0.055  52.296  1.00  0.00     0.045 C 
HETATM   10  C10 UNL     1      23.504   0.772  52.934  1.00  0.00     0.004 C 
HETATM   11  C14 UNL     1      23.881   2.030  53.181  1.00  0.00     0.007 C 
HETATM   12  O2  UNL     1      24.633   3.074  53.635  1.00  0.00     0.000 OA
HETATM   13  N4  UNL     1      24.302   4.388  53.401  1.00  0.00    -0.255 NA
HETATM   14  C15 UNL     1      23.090   4.556  52.676  1.00  0.00     0.171 C 
HETATM   15  C16 UNL     1      21.071   2.157  51.614  1.00  0.00     0.047 A 
HETATM   16  C17 UNL     1      20.491   3.258  51.359  1.00  0.00    -0.076 A 
HETATM   17  C25 UNL     1      19.297   2.203  51.765  1.00  0.00     0.070 A 
HETATM   18  H6  UNL     1      23.588   3.178  49.191  1.00  0.00     0.161 HD
HETATM   19  H21 UNL     1      25.124   4.836  52.953  1.00  0.00     0.141 HD
ENDROOT
BRANCH  16  20
HETATM   20  C18 UNL     1      20.039   4.588  51.034  1.00  0.00     0.070 C 
BRANCH  20  21
HETATM   21  C19 UNL     1      19.729   4.737  49.594  1.00  0.00    -0.054 A 
HETATM   22  C20 UNL     1      18.599   4.346  48.937  1.00  0.00     0.007 A 
HETATM   23  C21 UNL     1      18.345   4.507  47.598  1.00  0.00     0.001 A 
HETATM   24  C22 UNL     1      19.295   5.116  46.811  1.00  0.00     0.000 A 
HETATM   25  C23 UNL     1      20.466   5.540  47.400  1.00  0.00     0.001 A 
HETATM   26  C24 UNL     1      20.669   5.351  48.759  1.00  0.00     0.007 A 
ENDBRANCH  20  21
ENDBRANCH  16  20
BRANCH   1  27
HETATM   27  O1  UNL     1      24.037   4.306  50.350  1.00  0.00    -0.352 OA
BRANCH  27  28
HETATM   28  C2  UNL     1      24.278   5.699  50.158  1.00  0.00     0.171 C 
HETATM   29  C1  UNL     1      24.392   5.931  48.668  1.00  0.00     0.034 C 
ENDBRANCH  27  28
ENDBRANCH   1  27
BRANCH  10  30
HETATM   30  C11 UNL     1      24.398  -0.306  53.469  1.00  0.00     0.282 C 
BRANCH  30  31
HETATM   31  N3  UNL     1      25.792  -0.020  53.410  1.00  0.00     0.080 N 
HETATM   32  C12 UNL     1      26.410  -1.255  52.853  1.00  0.00     0.309 C 
HETATM   33  C13 UNL     1      26.394   0.071  54.741  1.00  0.00     0.309 C 
ENDBRANCH  30  31
ENDBRANCH  10  30
TORSDOF 6
ENDMDL
MODEL 6
REMARK VINA RESULT:      -6.9      2.448      4.059
REMARK  6 active torsions:
REMARK  status: ('A' for Active; 'I' for Inactive)
REMARK    1  A    between atoms: C2_2  and  O1_3 
REMARK    2  A    between atoms: O1_3  and  C3_4 
REMARK    3  A    between atoms: C10_13  and  C11_14 
REMARK    4  A    between atoms: C11_14  and  N3_15 
REMARK    5  A    between atoms: C17_23  and  C18_24 
REMARK    6  A    between atoms: C18_24  and  C19_25 
ROOT
HETATM    1  C3  UNL     1      20.096   2.763  50.966  1.00  0.00     0.084 C 
HETATM    2  C4  UNL     1      21.377   3.039  50.967  1.00  0.00     0.054 C 
HETATM    3  N1  UNL     1      21.424   4.110  52.095  1.00  0.00    -0.372 N 
HETATM    4  C5  UNL     1      22.467   5.008  52.625  1.00  0.00     0.269 C 
HETATM    5  N2  UNL     1      23.602   5.294  51.838  1.00  0.00    -0.285 NA
HETATM    6  C6  UNL     1      24.353   4.591  50.933  1.00  0.00     0.101 C 
HETATM    7  C7  UNL     1      24.009   3.175  50.365  1.00  0.00     0.039 A 
HETATM    8  C8  UNL     1      23.743   2.133  51.127  1.00  0.00    -0.066 A 
HETATM    9  C9  UNL     1      23.612   0.996  52.017  1.00  0.00     0.045 C 
HETATM   10  C10 UNL     1      22.365   0.267  52.146  1.00  0.00     0.004 C 
HETATM   11  C14 UNL     1      21.122   0.291  51.657  1.00  0.00     0.007 C 
HETATM   12  O2  UNL     1      19.820  -0.062  51.457  1.00  0.00     0.000 OA
HETATM   13  N4  UNL     1      18.971   0.650  50.643  1.00  0.00    -0.255 NA
HETATM   14  C15 UNL     1      19.585   1.762  50.003  1.00  0.00     0.171 C 
HETATM   15  C16 UNL     1      22.752   2.691  50.260  1.00  0.00     0.047 A 
HETATM   16  C17 UNL     1      22.224   3.444  49.383  1.00  0.00    -0.076 A 
HETATM   17  C25 UNL     1      23.766   3.179  48.878  1.00  0.00     0.070 A 
HETATM   18  H6  UNL     1      20.525   4.288  52.655  1.00  0.00     0.161 HD
HETATM   19  H21 UNL     1      18.139   0.900  51.210  1.00  0.00     0.141 HD
ENDROOT
BRANCH  16  20
HETATM   20  C18 UNL     1      21.437   4.283  48.513  1.00  0.00     0.070 C 
BRANCH  20  21
HETATM   21  C19 UNL     1      21.651   5.723  48.784  1.00  0.00    -0.054 A 
HETATM   22  C20 UNL     1      20.951   6.527  49.636  1.00  0.00     0.007 A 
HETATM   23  C21 UNL     1      21.183   7.860  49.865  1.00  0.00     0.001 A 
HETATM   24  C22 UNL     1      22.209   8.480  49.191  1.00  0.00     0.000 A 
HETATM   25  C23 UNL     1      22.965   7.736  48.310  1.00  0.00     0.001 A 
HETATM   26  C24 UNL     1      22.684   6.392  48.118  1.00  0.00     0.007 A 
ENDBRANCH  20  21
ENDBRANCH  16  20
BRANCH   1  27
HETATM   27  O1  UNL     1      19.309   3.436  51.873  1.00  0.00    -0.352 OA
BRANCH  27  28
HETATM   28  C2  UNL     1      17.945   3.662  51.522  1.00  0.00     0.171 C 
HETATM   29  C1  UNL     1      17.937   4.659  50.385  1.00  0.00     0.034 C 
ENDBRANCH  27  28
ENDBRANCH   1  27
BRANCH  10  30
HETATM   30  C11 UNL     1      22.679  -0.836  53.111  1.00  0.00     0.282 C 
BRANCH  30  31
HETATM   31  N3  UNL     1      22.008  -0.751  54.365  1.00  0.00     0.080 N 
HETATM   32  C12 UNL     1      22.982  -1.286  55.355  1.00  0.00     0.309 C 
HETATM   33  C13 UNL     1      20.895  -1.696  54.462  1.00  0.00     0.309 C 
ENDBRANCH  30  31
ENDBRANCH  10  30
TORSDOF 6
ENDMDL
MODEL 7
REMARK VINA RESULT:      -6.9      2.372      6.275
REMARK  6 active torsions:
REMARK  status: ('A' for Active; 'I' for Inactive)
REMARK    1  A    between atoms: C2_2  and  O1_3 
REMARK    2  A    between atoms: O1_3  and  C3_4 
REMARK    3  A    between atoms: C10_13  and  C11_14 
REMARK    4  A    between atoms: C11_14  and  N3_15 
REMARK    5  A    between atoms: C17_23  and  C18_24 
REMARK    6  A    between atoms: C18_24  and  C19_25 
ROOT
HETATM    1  C3  UNL     1      21.146   0.527  52.414  1.00  0.00     0.084 C 
HETATM    2  C4  UNL     1      20.639   1.223  51.425  1.00  0.00     0.054 C 
HETATM    3  N1  UNL     1      21.441   0.628  50.233  1.00  0.00    -0.372 N 
HETATM    4  C5  UNL     1      21.558   0.954  48.800  1.00  0.00     0.269 C 
HETATM    5  N2  UNL     1      21.175   2.234  48.347  1.00  0.00    -0.285 NA
HETATM    6  C6  UNL     1      20.208   3.136  48.703  1.00  0.00     0.101 C 
HETATM    7  C7  UNL     1      19.268   3.025  49.948  1.00  0.00     0.039 A 
HETATM    8  C8  UNL     1      18.536   1.961  50.211  1.00  0.00    -0.066 A 
HETATM    9  C9  UNL     1      17.643   0.829  50.360  1.00  0.00     0.045 C 
HETATM   10  C10 UNL     1      17.754  -0.090  51.475  1.00  0.00     0.004 C 
HETATM   11  C14 UNL     1      18.506  -0.276  52.563  1.00  0.00     0.007 C 
HETATM   12  O2  UNL     1      18.971  -0.840  53.715  1.00  0.00     0.000 OA
HETATM   13  N4  UNL     1      20.074  -0.366  54.385  1.00  0.00    -0.255 NA
HETATM   14  C15 UNL     1      20.660   0.784  53.788  1.00  0.00     0.171 C 
HETATM   15  C16 UNL     1      19.596   2.366  51.081  1.00  0.00     0.047 A 
HETATM   16  C17 UNL     1      20.552   3.057  51.553  1.00  0.00    -0.076 A 
HETATM   17  C25 UNL     1      19.473   4.138  50.942  1.00  0.00     0.070 A 
HETATM   18  H6  UNL     1      22.079  -0.214  50.428  1.00  0.00     0.161 HD
HETATM   19  H21 UNL     1      20.731  -1.162  54.496  1.00  0.00     0.141 HD
ENDROOT
BRANCH  16  20
HETATM   20  C18 UNL     1      21.726   3.645  52.150  1.00  0.00     0.070 C 
BRANCH  20  21
HETATM   21  C19 UNL     1      22.771   3.948  51.146  1.00  0.00    -0.054 A 
HETATM   22  C20 UNL     1      23.792   3.142  50.731  1.00  0.00     0.007 A 
HETATM   23  C21 UNL     1      24.740   3.456  49.791  1.00  0.00     0.001 A 
HETATM   24  C22 UNL     1      24.691   4.691  49.187  1.00  0.00     0.000 A 
HETATM   25  C23 UNL     1      23.690   5.565  49.551  1.00  0.00     0.001 A 
HETATM   26  C24 UNL     1      22.758   5.193  50.508  1.00  0.00     0.007 A 
ENDBRANCH  20  21
ENDBRANCH  16  20
BRANCH   1  27
HETATM   27  O1  UNL     1      22.110  -0.402  52.096  1.00  0.00    -0.352 OA
BRANCH  27  28
HETATM   28  C2  UNL     1      23.099  -0.692  53.082  1.00  0.00     0.171 C 
HETATM   29  C1  UNL     1      24.181   0.357  52.949  1.00  0.00     0.034 C 
ENDBRANCH  27  28
ENDBRANCH   1  27
BRANCH  10  30
HETATM   30  C11 UNL     1      16.631  -1.061  51.269  1.00  0.00     0.282 C 
BRANCH  30  31
HETATM   31  N3  UNL     1      15.822  -1.302  52.417  1.00  0.00     0.080 N 
HETATM   32  C12 UNL     1      15.052  -2.533  52.088  1.00  0.00     0.309 C 
HETATM   33  C13 UNL     1      14.771  -0.296  52.573  1.00  0.00     0.309 C 
ENDBRANCH  30  31
ENDBRANCH  10  30
TORSDOF 6
ENDMDL
MODEL 8
REMARK VINA RESULT:      -6.8     10.010     13.215
REMARK  6 active torsions:
REMARK  status: ('A' for Active; 'I' for Inactive)
REMARK    1  A    between atoms: C2_2  and  O1_3 
REMARK    2  A    between atoms: O1_3  and  C3_4 
REMARK    3  A    between atoms: C10_13  and  C11_14 
REMARK    4  A    between atoms: C11_14  and  N3_15 
REMARK    5  A    between atoms: C17_23  and  C18_24 
REMARK    6  A    between atoms: C18_24  and  C19_25 
ROOT
HETATM    1  C3  UNL     1      30.027   8.301  47.996  1.00  0.00     0.084 C 
HETATM    2  C4  UNL     1      31.157   8.411  47.342  1.00  0.00     0.054 C 
HETATM    3  N1  UNL     1      30.777   7.691  46.017  1.00  0.00    -0.372 N 
HETATM    4  C5  UNL     1      31.524   7.279  44.814  1.00  0.00     0.269 C 
HETATM    5  N2  UNL     1      32.927   7.156  44.877  1.00  0.00    -0.285 NA
HETATM    6  C6  UNL     1      33.927   7.815  45.544  1.00  0.00     0.101 C 
HETATM    7  C7  UNL     1      33.724   8.901  46.650  1.00  0.00     0.039 A 
HETATM    8  C8  UNL     1      32.970   9.969  46.489  1.00  0.00    -0.066 A 
HETATM    9  C9  UNL     1      32.254  11.195  46.194  1.00  0.00     0.045 C 
HETATM   10  C10 UNL     1      31.025  11.545  46.879  1.00  0.00     0.004 C 
HETATM   11  C14 UNL     1      30.214  11.052  47.820  1.00  0.00     0.007 C 
HETATM   12  O2  UNL     1      29.155  10.961  48.675  1.00  0.00     0.000 OA
HETATM   13  N4  UNL     1      28.939   9.867  49.479  1.00  0.00    -0.255 NA
HETATM   14  C15 UNL     1      29.937   8.861  49.363  1.00  0.00     0.171 C 
HETATM   15  C16 UNL     1      32.638   8.966  47.452  1.00  0.00     0.047 A 
HETATM   16  C17 UNL     1      32.732   7.911  48.154  1.00  0.00    -0.076 A 
HETATM   17  C25 UNL     1      34.266   8.482  47.993  1.00  0.00     0.070 A 
HETATM   18  H6  UNL     1      29.753   7.397  45.882  1.00  0.00     0.161 HD
HETATM   19  H21 UNL     1      27.978   9.527  49.283  1.00  0.00     0.141 HD
ENDROOT
BRANCH  16  20
HETATM   20  C18 UNL     1      32.615   6.703  48.934  1.00  0.00     0.070 C 
BRANCH  20  21
HETATM   21  C19 UNL     1      32.936   5.494  48.142  1.00  0.00    -0.054 A 
HETATM   22  C20 UNL     1      32.080   4.716  47.418  1.00  0.00     0.007 A 
HETATM   23  C21 UNL     1      32.417   3.603  46.690  1.00  0.00     0.001 A 
HETATM   24  C22 UNL     1      33.732   3.201  46.663  1.00  0.00     0.000 A 
HETATM   25  C23 UNL     1      34.661   3.934  47.370  1.00  0.00     0.001 A 
HETATM   26  C24 UNL     1      34.262   5.051  48.089  1.00  0.00     0.007 A 
ENDBRANCH  20  21
ENDBRANCH  16  20
BRANCH   1  27
HETATM   27  O1  UNL     1      28.992   7.660  47.354  1.00  0.00    -0.352 OA
BRANCH  27  28
HETATM   28  C2  UNL     1      28.092   6.895  48.154  1.00  0.00     0.171 C 
HETATM   29  C1  UNL     1      28.704   5.522  48.325  1.00  0.00     0.034 C 
ENDBRANCH  27  28
ENDBRANCH   1  27
BRANCH  10  30
HETATM   30  C11 UNL     1      30.655  12.884  46.317  1.00  0.00     0.282 C 
BRANCH  30  31
HETATM   31  N3  UNL     1      29.277  13.226  46.429  1.00  0.00     0.080 N 
HETATM   32  C12 UNL     1      28.805  13.367  45.024  1.00  0.00     0.309 C 
HETATM   33  C13 UNL     1      29.084  14.572  46.970  1.00  0.00     0.309 C 
ENDBRANCH  30  31
ENDBRANCH  10  30
TORSDOF 6
ENDMDL
MODEL 9
REMARK VINA RESULT:      -6.7      9.848     12.366
REMARK  6 active torsions:
REMARK  status: ('A' for Active; 'I' for Inactive)
REMARK    1  A    between atoms: C2_2  and  O1_3 
REMARK    2  A    between atoms: O1_3  and  C3_4 
REMARK    3  A    between atoms: C10_13  and  C11_14 
REMARK    4  A    between atoms: C11_14  and  N3_15 
REMARK    5  A    between atoms: C17_23  and  C18_24 
REMARK    6  A    between atoms: C18_24  and  C19_25 
ROOT
HETATM    1  C3  UNL     1      32.689   6.191  47.687  1.00  0.00     0.084 C 
HETATM    2  C4  UNL     1      32.277   7.069  46.806  1.00  0.00     0.054 C 
HETATM    3  N1  UNL     1      33.351   8.177  47.003  1.00  0.00    -0.372 N 
HETATM    4  C5  UNL     1      33.532   9.545  46.485  1.00  0.00     0.269 C 
HETATM    5  N2  UNL     1      32.424  10.237  45.953  1.00  0.00    -0.285 NA
HETATM    6  C6  UNL     1      31.308   9.877  45.245  1.00  0.00     0.101 C 
HETATM    7  C7  UNL     1      30.851   8.412  44.943  1.00  0.00     0.039 A 
HETATM    8  C8  UNL     1      31.635   7.508  44.390  1.00  0.00    -0.066 A 
HETATM    9  C9  UNL     1      32.493   6.611  43.642  1.00  0.00     0.045 C 
HETATM   10  C10 UNL     1      33.006   5.385  44.221  1.00  0.00     0.004 C 
HETATM   11  C14 UNL     1      32.950   4.707  45.371  1.00  0.00     0.007 C 
HETATM   12  O2  UNL     1      33.179   3.722  46.287  1.00  0.00     0.000 OA
HETATM   13  N4  UNL     1      32.703   3.778  47.575  1.00  0.00    -0.255 NA
HETATM   14  C15 UNL     1      31.923   4.935  47.851  1.00  0.00     0.171 C 
HETATM   15  C16 UNL     1      31.152   7.353  45.727  1.00  0.00     0.047 A 
HETATM   16  C17 UNL     1      30.513   7.595  46.798  1.00  0.00    -0.076 A 
HETATM   17  C25 UNL     1      29.526   8.066  45.570  1.00  0.00     0.070 A 
HETATM   18  H6  UNL     1      34.178   7.963  47.654  1.00  0.00     0.161 HD
HETATM   19  H21 UNL     1      33.517   3.661  48.209  1.00  0.00     0.141 HD
ENDROOT
BRANCH  16  20
HETATM   20  C18 UNL     1      29.967   7.782  48.120  1.00  0.00     0.070 C 
BRANCH  20  21
HETATM   21  C19 UNL     1      28.782   6.927  48.360  1.00  0.00    -0.054 A 
HETATM   22  C20 UNL     1      28.723   5.564  48.369  1.00  0.00     0.007 A 
HETATM   23  C21 UNL     1      27.604   4.804  48.603  1.00  0.00     0.001 A 
HETATM   24  C22 UNL     1      26.411   5.441  48.856  1.00  0.00     0.000 A 
HETATM   25  C23 UNL     1      26.387   6.819  48.864  1.00  0.00     0.001 A 
HETATM   26  C24 UNL     1      27.550   7.535  48.621  1.00  0.00     0.007 A 
ENDBRANCH  20  21
ENDBRANCH  16  20
BRANCH   1  27
HETATM   27  O1  UNL     1      33.817   6.508  48.408  1.00  0.00    -0.352 OA
BRANCH  27  28
HETATM   28  C2  UNL     1      34.995   5.741  48.162  1.00  0.00     0.171 C 
HETATM   29  C1  UNL     1      35.684   5.544  49.494  1.00  0.00     0.034 C 
ENDBRANCH  27  28
ENDBRANCH   1  27
BRANCH  10  30
HETATM   30  C11 UNL     1      33.790   4.750  43.112  1.00  0.00     0.282 C 
BRANCH  30  31
HETATM   31  N3  UNL     1      33.450   5.192  41.802  1.00  0.00     0.080 N 
HETATM   32  C12 UNL     1      32.897   3.986  41.126  1.00  0.00     0.309 C 
HETATM   33  C13 UNL     1      34.632   5.500  40.997  1.00  0.00     0.309 C 
ENDBRANCH  30  31
ENDBRANCH  10  30
TORSDOF 6
ENDMDL
