MODEL 1
REMARK VINA RESULT:      -7.7      0.000      0.000
REMARK  3 active torsions:
REMARK  status: ('A' for Active; 'I' for Inactive)
REMARK    1  A    between atoms: O1_2  and  C2_3 
REMARK    2  A    between atoms: N3_9  and  C6_10 
REMARK    3  A    between atoms: C16_20  and  O2_21 
ROOT
HETATM    1  C2  UNL     1      21.305   0.952  52.850  1.00  0.00     0.103 A 
HETATM    2  C3  UNL     1      21.404   2.210  52.450  1.00  0.00     0.071 A 
HETATM    3  C4  UNL     1      22.740   2.790  52.358  1.00  0.00     0.094 A 
HETATM    4  N1  UNL     1      22.782   4.030  51.923  1.00  0.00    -0.180 NA
HETATM    5  N2  UNL     1      24.112   4.538  51.854  1.00  0.00    -0.286 N 
HETATM    6  C5  UNL     1      24.838   3.583  51.014  1.00  0.00     0.416 C 
HETATM    7  N3  UNL     1      24.999   2.287  51.685  1.00  0.00     0.133 N 
HETATM    8  C14 UNL     1      24.030   2.114  52.706  1.00  0.00     0.305 A 
HETATM    9  C15 UNL     1      23.736   0.739  53.117  1.00  0.00     0.054 A 
HETATM   10  C16 UNL     1      22.516   0.207  53.187  1.00  0.00     0.100 A 
HETATM   11  H5  UNL     1      24.555   5.387  52.273  1.00  0.00     0.184 HD
ENDROOT
BRANCH   7  12
HETATM   12  C6  UNL     1      26.371   2.233  52.042  1.00  0.00     0.273 A 
HETATM   13  C7  UNL     1      26.735   2.230  53.446  1.00  0.00     0.020 A 
HETATM   14  C8  UNL     1      27.317   1.073  53.814  1.00  0.00    -0.053 A 
HETATM   15  C9  UNL     1      27.949   0.234  54.897  1.00  0.00     0.039 C 
HETATM   16  C12 UNL     1      27.387   0.203  52.628  1.00  0.00    -0.053 A 
HETATM   17  C10 UNL     1      28.927  -0.617  54.140  1.00  0.00     0.009 C 
HETATM   18  C11 UNL     1      28.039  -1.104  52.995  1.00  0.00     0.039 C 
HETATM   19  C13 UNL     1      26.853   0.865  51.614  1.00  0.00     0.020 A 
ENDBRANCH   7  12
BRANCH  10  20
HETATM   20  O2  UNL     1      22.225  -1.111  53.584  1.00  0.00    -0.353 OA
HETATM   21  C17 UNL     1      22.289  -1.462  54.960  1.00  0.00     0.210 C 
ENDBRANCH  10  20
BRANCH   1  22
HETATM   22  O1  UNL     1      20.028   0.447  52.917  1.00  0.00    -0.353 OA
HETATM   23  C1  UNL     1      19.194   0.228  51.796  1.00  0.00     0.210 C 
ENDBRANCH   1  22
TORSDOF 3
ENDMDL
MODEL 2
REMARK VINA RESULT:      -7.6      2.371      3.529
REMARK  3 active torsions:
REMARK  status: ('A' for Active; 'I' for Inactive)
REMARK    1  A    between atoms: O1_2  and  C2_3 
REMARK    2  A    between atoms: N3_9  and  C6_10 
REMARK    3  A    between atoms: C16_20  and  O2_21 
ROOT
HETATM    1  C2  UNL     1      20.509   2.801  52.273  1.00  0.00     0.103 A 
HETATM    2  C3  UNL     1      20.391   1.568  52.742  1.00  0.00     0.071 A 
HETATM    3  C4  UNL     1      21.571   0.711  52.702  1.00  0.00     0.094 A 
HETATM    4  N1  UNL     1      21.407  -0.490  53.210  1.00  0.00    -0.180 NA
HETATM    5  N2  UNL     1      22.594  -1.276  53.145  1.00  0.00    -0.286 N 
HETATM    6  C5  UNL     1      23.616  -0.475  53.819  1.00  0.00     0.416 C 
HETATM    7  N3  UNL     1      23.956   0.727  53.045  1.00  0.00     0.133 N 
HETATM    8  C14 UNL     1      22.914   1.071  52.147  1.00  0.00     0.305 A 
HETATM    9  C15 UNL     1      22.867   2.460  51.684  1.00  0.00     0.054 A 
HETATM   10  C16 UNL     1      21.792   3.246  51.735  1.00  0.00     0.100 A 
HETATM   11  H5  UNL     1      22.781  -2.218  52.731  1.00  0.00     0.184 HD
ENDROOT
BRANCH   7  12
HETATM   12  C6  UNL     1      25.245   0.463  52.515  1.00  0.00     0.273 A 
HETATM   13  C7  UNL     1      26.148   1.571  52.271  1.00  0.00     0.020 A 
HETATM   14  C8  UNL     1      27.235   1.521  53.065  1.00  0.00    -0.053 A 
HETATM   15  C9  UNL     1      28.545   2.129  53.498  1.00  0.00     0.039 C 
HETATM   16  C12 UNL     1      27.121   0.322  53.913  1.00  0.00    -0.053 A 
HETATM   17  C10 UNL     1      29.347   0.935  53.932  1.00  0.00     0.009 C 
HETATM   18  C11 UNL     1      28.323   0.223  54.815  1.00  0.00     0.039 C 
HETATM   19  C13 UNL     1      25.989  -0.286  53.597  1.00  0.00     0.020 A 
ENDBRANCH   7  12
BRANCH  10  20
HETATM   20  O2  UNL     1      21.737   4.580  51.290  1.00  0.00    -0.353 OA
HETATM   21  C17 UNL     1      22.762   5.490  51.667  1.00  0.00     0.210 C 
ENDBRANCH  10  20
BRANCH   1  22
HETATM   22  O1  UNL     1      19.373   3.573  52.335  1.00  0.00    -0.353 OA
HETATM   23  C1  UNL     1      18.356   3.582  51.351  1.00  0.00     0.210 C 
ENDBRANCH   1  22
TORSDOF 3
ENDMDL
MODEL 3
REMARK VINA RESULT:      -7.6      2.723      4.122
REMARK  3 active torsions:
REMARK  status: ('A' for Active; 'I' for Inactive)
REMARK    1  A    between atoms: O1_2  and  C2_3 
REMARK    2  A    between atoms: N3_9  and  C6_10 
REMARK    3  A    between atoms: C16_20  and  O2_21 
ROOT
HETATM    1  C2  UNL     1      23.446   3.008  50.736  1.00  0.00     0.103 A 
HETATM    2  C3  UNL     1      22.492   2.148  51.061  1.00  0.00     0.071 A 
HETATM    3  C4  UNL     1      22.877   0.965  51.825  1.00  0.00     0.094 A 
HETATM    4  N1  UNL     1      21.886   0.164  52.149  1.00  0.00    -0.180 NA
HETATM    5  N2  UNL     1      22.325  -0.968  52.895  1.00  0.00    -0.286 N 
HETATM    6  C5  UNL     1      23.044  -0.411  54.041  1.00  0.00     0.416 C 
HETATM    7  N3  UNL     1      24.298   0.235  53.629  1.00  0.00     0.133 N 
HETATM    8  C14 UNL     1      24.262   0.597  52.258  1.00  0.00     0.305 A 
HETATM    9  C15 UNL     1      25.179   1.653  51.825  1.00  0.00     0.054 A 
HETATM   10  C16 UNL     1      24.824   2.740  51.140  1.00  0.00     0.100 A 
HETATM   11  H5  UNL     1      22.204  -1.995  52.735  1.00  0.00     0.184 HD
ENDROOT
BRANCH   7  12
HETATM   12  C6  UNL     1      25.320  -0.646  54.067  1.00  0.00     0.273 A 
HETATM   13  C7  UNL     1      26.241  -1.199  53.092  1.00  0.00     0.020 A 
HETATM   14  C8  UNL     1      27.501  -0.765  53.286  1.00  0.00    -0.053 A 
HETATM   15  C9  UNL     1      28.948  -0.774  52.859  1.00  0.00     0.039 C 
HETATM   16  C12 UNL     1      27.498   0.130  54.455  1.00  0.00    -0.053 A 
HETATM   17  C10 UNL     1      29.684  -0.547  54.149  1.00  0.00     0.009 C 
HETATM   18  C11 UNL     1      28.893   0.633  54.712  1.00  0.00     0.039 C 
HETATM   19  C13 UNL     1      26.255   0.196  54.906  1.00  0.00     0.020 A 
ENDBRANCH   7  12
BRANCH  10  20
HETATM   20  O2  UNL     1      25.700   3.757  50.718  1.00  0.00    -0.353 OA
HETATM   21  C17 UNL     1      26.533   3.544  49.586  1.00  0.00     0.210 C 
ENDBRANCH  10  20
BRANCH   1  22
HETATM   22  O1  UNL     1      23.037   4.108  50.021  1.00  0.00    -0.353 OA
HETATM   23  C1  UNL     1      22.881   4.136  48.615  1.00  0.00     0.210 C 
ENDBRANCH   1  22
TORSDOF 3
ENDMDL
MODEL 4
REMARK VINA RESULT:      -7.4      2.352      3.433
REMARK  3 active torsions:
REMARK  status: ('A' for Active; 'I' for Inactive)
REMARK    1  A    between atoms: O1_2  and  C2_3 
REMARK    2  A    between atoms: N3_9  and  C6_10 
REMARK    3  A    between atoms: C16_20  and  O2_21 
ROOT
HETATM    1  C2  UNL     1      20.688  -0.439  53.581  1.00  0.00     0.103 A 
HETATM    2  C3  UNL     1      21.323  -1.006  54.595  1.00  0.00     0.071 A 
HETATM    3  C4  UNL     1      22.782  -1.023  54.558  1.00  0.00     0.094 A 
HETATM    4  N1  UNL     1      23.360  -1.568  55.606  1.00  0.00    -0.180 NA
HETATM    5  N2  UNL     1      24.782  -1.552  55.511  1.00  0.00    -0.286 N 
HETATM    6  C5  UNL     1      25.132  -0.147  55.297  1.00  0.00     0.416 C 
HETATM    7  N3  UNL     1      24.694   0.322  53.975  1.00  0.00     0.133 N 
HETATM    8  C14 UNL     1      23.651  -0.490  53.462  1.00  0.00     0.305 A 
HETATM    9  C15 UNL     1      22.790   0.103  52.436  1.00  0.00     0.054 A 
HETATM   10  C16 UNL     1      21.459   0.131  52.478  1.00  0.00     0.100 A 
HETATM   11  H5  UNL     1      25.491  -2.318  55.571  1.00  0.00     0.184 HD
ENDROOT
BRANCH   7  12
HETATM   12  C6  UNL     1      25.889   0.442  53.221  1.00  0.00     0.273 A 
HETATM   13  C7  UNL     1      27.125   0.772  53.904  1.00  0.00     0.020 A 
HETATM   14  C8  UNL     1      28.019  -0.234  53.845  1.00  0.00    -0.053 A 
HETATM   15  C9  UNL     1      29.383  -0.769  54.201  1.00  0.00     0.039 C 
HETATM   16  C12 UNL     1      27.412  -1.334  53.079  1.00  0.00    -0.053 A 
HETATM   17  C10 UNL     1      29.692  -1.696  53.060  1.00  0.00     0.009 C 
HETATM   18  C11 UNL     1      28.383  -2.481  52.983  1.00  0.00     0.039 C 
HETATM   19  C13 UNL     1      26.199  -0.950  52.717  1.00  0.00     0.020 A 
ENDBRANCH   7  12
BRANCH  10  20
HETATM   20  O2  UNL     1      20.625   0.695  51.495  1.00  0.00    -0.353 OA
HETATM   21  C17 UNL     1      21.045   0.705  50.137  1.00  0.00     0.210 C 
ENDBRANCH  10  20
BRANCH   1  22
HETATM   22  O1  UNL     1      19.315  -0.442  53.660  1.00  0.00    -0.353 OA
HETATM   23  C1  UNL     1      18.505  -1.584  53.460  1.00  0.00     0.210 C 
ENDBRANCH   1  22
TORSDOF 3
ENDMDL
MODEL 5
REMARK VINA RESULT:      -7.3      3.071      6.308
REMARK  3 active torsions:
REMARK  status: ('A' for Active; 'I' for Inactive)
REMARK    1  A    between atoms: O1_2  and  C2_3 
REMARK    2  A    between atoms: N3_9  and  C6_10 
REMARK    3  A    between atoms: C16_20  and  O2_21 
ROOT
HETATM    1  C2  UNL     1      25.861  -0.452  53.876  1.00  0.00     0.103 A 
HETATM    2  C3  UNL     1      24.948  -0.921  54.712  1.00  0.00     0.071 A 
HETATM    3  C4  UNL     1      23.553  -0.577  54.456  1.00  0.00     0.094 A 
HETATM    4  N1  UNL     1      22.686  -1.096  55.297  1.00  0.00    -0.180 NA
HETATM    5  N2  UNL     1      21.344  -0.727  54.992  1.00  0.00    -0.286 N 
HETATM    6  C5  UNL     1      21.146  -1.134  53.601  1.00  0.00     0.416 C 
HETATM    7  N3  UNL     1      21.945  -0.314  52.680  1.00  0.00     0.133 N 
HETATM    8  C14 UNL     1      23.039   0.291  53.350  1.00  0.00     0.305 A 
HETATM    9  C15 UNL     1      24.174   0.711  52.525  1.00  0.00     0.054 A 
HETATM   10  C16 UNL     1      25.446   0.384  52.753  1.00  0.00     0.100 A 
HETATM   11  H5  UNL     1      20.602  -0.268  55.568  1.00  0.00     0.184 HD
ENDROOT
BRANCH   7  12
HETATM   12  C6  UNL     1      21.003   0.524  52.032  1.00  0.00     0.273 A 
HETATM   13  C7  UNL     1      21.208   1.960  52.048  1.00  0.00     0.020 A 
HETATM   14  C8  UNL     1      21.441   2.451  50.816  1.00  0.00    -0.053 A 
HETATM   15  C9  UNL     1      21.729   3.641  49.935  1.00  0.00     0.039 C 
HETATM   16  C12 UNL     1      21.393   1.329  49.864  1.00  0.00    -0.053 A 
HETATM   17  C10 UNL     1      21.099   3.256  48.627  1.00  0.00     0.009 C 
HETATM   18  C11 UNL     1      21.642   1.836  48.469  1.00  0.00     0.039 C 
HETATM   19  C13 UNL     1      21.138   0.229  50.555  1.00  0.00     0.020 A 
ENDBRANCH   7  12
BRANCH  10  20
HETATM   20  O2  UNL     1      26.542   0.786  51.967  1.00  0.00    -0.353 OA
HETATM   21  C17 UNL     1      26.745   2.167  51.694  1.00  0.00     0.210 C 
ENDBRANCH  10  20
BRANCH   1  22
HETATM   22  O1  UNL     1      27.161  -0.804  54.154  1.00  0.00    -0.353 OA
HETATM   23  C1  UNL     1      28.093   0.031  54.814  1.00  0.00     0.210 C 
ENDBRANCH   1  22
TORSDOF 3
ENDMDL
MODEL 6
REMARK VINA RESULT:      -7.2      2.769      6.996
REMARK  3 active torsions:
REMARK  status: ('A' for Active; 'I' for Inactive)
REMARK    1  A    between atoms: O1_2  and  C2_3 
REMARK    2  A    between atoms: N3_9  and  C6_10 
REMARK    3  A    between atoms: C16_20  and  O2_21 
ROOT
HETATM    1  C2  UNL     1      26.591  -0.145  52.957  1.00  0.00     0.103 A 
HETATM    2  C3  UNL     1      25.995  -0.834  53.918  1.00  0.00     0.071 A 
HETATM    3  C4  UNL     1      24.583  -0.567  54.168  1.00  0.00     0.094 A 
HETATM    4  N1  UNL     1      24.033  -1.302  55.109  1.00  0.00    -0.180 NA
HETATM    5  N2  UNL     1      22.655  -0.997  55.304  1.00  0.00    -0.286 N 
HETATM    6  C5  UNL     1      22.042  -1.157  53.984  1.00  0.00     0.416 C 
HETATM    7  N3  UNL     1      22.495  -0.119  53.049  1.00  0.00     0.133 N 
HETATM    8  C14 UNL     1      23.729   0.443  53.465  1.00  0.00     0.305 A 
HETATM    9  C15 UNL     1      24.540   1.101  52.438  1.00  0.00     0.054 A 
HETATM   10  C16 UNL     1      25.827   0.845  52.202  1.00  0.00     0.100 A 
HETATM   11  H5  UNL     1      22.119  -0.715  56.156  1.00  0.00     0.184 HD
ENDROOT
BRANCH   7  12
HETATM   12  C6  UNL     1      21.379   0.742  52.896  1.00  0.00     0.273 A 
HETATM   13  C7  UNL     1      21.006   1.185  51.566  1.00  0.00     0.020 A 
HETATM   14  C8  UNL     1      19.802   0.709  51.195  1.00  0.00    -0.053 A 
HETATM   15  C9  UNL     1      18.715   0.623  50.152  1.00  0.00     0.039 C 
HETATM   16  C12 UNL     1      19.274  -0.102  52.304  1.00  0.00    -0.053 A 
HETATM   17  C10 UNL     1      17.470   0.452  50.974  1.00  0.00     0.009 C 
HETATM   18  C11 UNL     1      17.921  -0.650  51.932  1.00  0.00     0.039 C 
HETATM   19  C13 UNL     1      20.169  -0.081  53.278  1.00  0.00     0.020 A 
ENDBRANCH   7  12
BRANCH  10  20
HETATM   20  O2  UNL     1      26.614   1.475  51.219  1.00  0.00    -0.353 OA
HETATM   21  C17 UNL     1      26.368   2.834  50.885  1.00  0.00     0.210 C 
ENDBRANCH  10  20
BRANCH   1  22
HETATM   22  O1  UNL     1      27.920  -0.432  52.754  1.00  0.00    -0.353 OA
HETATM   23  C1  UNL     1      28.933  -0.265  53.728  1.00  0.00     0.210 C 
ENDBRANCH   1  22
TORSDOF 3
ENDMDL
MODEL 7
REMARK VINA RESULT:      -7.2      2.739      5.928
REMARK  3 active torsions:
REMARK  status: ('A' for Active; 'I' for Inactive)
REMARK    1  A    between atoms: O1_2  and  C2_3 
REMARK    2  A    between atoms: N3_9  and  C6_10 
REMARK    3  A    between atoms: C16_20  and  O2_21 
ROOT
HETATM    1  C2  UNL     1      26.829  -0.101  53.733  1.00  0.00     0.103 A 
HETATM    2  C3  UNL     1      25.702  -0.696  54.093  1.00  0.00     0.071 A 
HETATM    3  C4  UNL     1      24.446  -0.057  53.712  1.00  0.00     0.094 A 
HETATM    4  N1  UNL     1      23.359  -0.707  54.064  1.00  0.00    -0.180 NA
HETATM    5  N2  UNL     1      22.169  -0.035  53.662  1.00  0.00    -0.286 N 
HETATM    6  C5  UNL     1      22.311   0.155  52.217  1.00  0.00     0.416 C 
HETATM    7  N3  UNL     1      23.374   1.119  51.902  1.00  0.00     0.133 N 
HETATM    8  C14 UNL     1      24.294   1.237  52.975  1.00  0.00     0.305 A 
HETATM    9  C15 UNL     1      25.629   1.747  52.652  1.00  0.00     0.054 A 
HETATM   10  C16 UNL     1      26.774   1.154  52.989  1.00  0.00     0.100 A 
HETATM   11  H5  UNL     1      21.335   0.286  54.204  1.00  0.00     0.184 HD
ENDROOT
BRANCH   7  12
HETATM   12  C6  UNL     1      22.689   2.284  51.470  1.00  0.00     0.273 A 
HETATM   13  C7  UNL     1      22.943   3.543  52.144  1.00  0.00     0.020 A 
HETATM   14  C8  UNL     1      23.533   4.440  51.332  1.00  0.00    -0.053 A 
HETATM   15  C9  UNL     1      24.108   5.821  51.137  1.00  0.00     0.039 C 
HETATM   16  C12 UNL     1      23.706   3.812  50.012  1.00  0.00    -0.053 A 
HETATM   17  C10 UNL     1      23.854   6.092  49.682  1.00  0.00     0.009 C 
HETATM   18  C11 UNL     1      24.359   4.787  49.068  1.00  0.00     0.039 C 
HETATM   19  C13 UNL     1      23.220   2.583  50.086  1.00  0.00     0.020 A 
ENDBRANCH   7  12
BRANCH  10  20
HETATM   20  O2  UNL     1      28.061   1.638  52.686  1.00  0.00    -0.353 OA
HETATM   21  C17 UNL     1      28.706   2.533  53.583  1.00  0.00     0.210 C 
ENDBRANCH  10  20
BRANCH   1  22
HETATM   22  O1  UNL     1      27.986  -0.741  54.111  1.00  0.00    -0.353 OA
HETATM   23  C1  UNL     1      28.774  -1.543  53.252  1.00  0.00     0.210 C 
ENDBRANCH   1  22
TORSDOF 3
ENDMDL
MODEL 8
REMARK VINA RESULT:      -7.2      2.577      5.835
REMARK  3 active torsions:
REMARK  status: ('A' for Active; 'I' for Inactive)
REMARK    1  A    between atoms: O1_2  and  C2_3 
REMARK    2  A    between atoms: N3_9  and  C6_10 
REMARK    3  A    between atoms: C16_20  and  O2_21 
ROOT
HETATM    1  C2  UNL     1      27.183   0.061  53.758  1.00  0.00     0.103 A 
HETATM    2  C3  UNL     1      27.514   0.867  52.761  1.00  0.00     0.071 A 
HETATM    3  C4  UNL     1      26.433   1.498  52.011  1.00  0.00     0.094 A 
HETATM    4  N1  UNL     1      26.818   2.314  51.054  1.00  0.00    -0.180 NA
HETATM    5  N2  UNL     1      25.718   2.899  50.362  1.00  0.00    -0.286 N 
HETATM    6  C5  UNL     1      24.912   3.536  51.404  1.00  0.00     0.416 C 
HETATM    7  N3  UNL     1      24.277   2.541  52.279  1.00  0.00     0.133 N 
HETATM    8  C14 UNL     1      24.965   1.302  52.230  1.00  0.00     0.305 A 
HETATM    9  C15 UNL     1      24.783   0.396  53.366  1.00  0.00     0.054 A 
HETATM   10  C16 UNL     1      25.773  -0.168  54.059  1.00  0.00     0.100 A 
HETATM   11  H5  UNL     1      25.467   2.919  49.348  1.00  0.00     0.184 HD
ENDROOT
BRANCH   7  12
HETATM   12  C6  UNL     1      22.905   2.566  51.919  1.00  0.00     0.273 A 
HETATM   13  C7  UNL     1      22.408   3.662  51.109  1.00  0.00     0.020 A 
HETATM   14  C8  UNL     1      21.996   3.246  49.896  1.00  0.00    -0.053 A 
HETATM   15  C9  UNL     1      21.409   3.583  48.548  1.00  0.00     0.039 C 
HETATM   16  C12 UNL     1      22.191   1.788  49.826  1.00  0.00    -0.053 A 
HETATM   17  C10 UNL     1      20.669   2.330  48.177  1.00  0.00     0.009 C 
HETATM   18  C11 UNL     1      21.735   1.280  48.484  1.00  0.00     0.039 C 
HETATM   19  C13 UNL     1      22.705   1.397  50.981  1.00  0.00     0.020 A 
ENDBRANCH   7  12
BRANCH  10  20
HETATM   20  O2  UNL     1      25.607  -1.043  55.149  1.00  0.00    -0.353 OA
HETATM   21  C17 UNL     1      24.300  -1.322  55.636  1.00  0.00     0.210 C 
ENDBRANCH  10  20
BRANCH   1  22
HETATM   22  O1  UNL     1      28.234  -0.507  54.438  1.00  0.00    -0.353 OA
HETATM   23  C1  UNL     1      29.501  -0.780  53.871  1.00  0.00     0.210 C 
ENDBRANCH   1  22
TORSDOF 3
ENDMDL
MODEL 9
REMARK VINA RESULT:      -7.2      1.921      5.656
REMARK  3 active torsions:
REMARK  status: ('A' for Active; 'I' for Inactive)
REMARK    1  A    between atoms: O1_2  and  C2_3 
REMARK    2  A    between atoms: N3_9  and  C6_10 
REMARK    3  A    between atoms: C16_20  and  O2_21 
ROOT
HETATM    1  C2  UNL     1      27.079   0.167  53.650  1.00  0.00     0.103 A 
HETATM    2  C3  UNL     1      27.550   0.991  52.727  1.00  0.00     0.071 A 
HETATM    3  C4  UNL     1      26.586   1.650  51.851  1.00  0.00     0.094 A 
HETATM    4  N1  UNL     1      27.105   2.483  50.976  1.00  0.00    -0.180 NA
HETATM    5  N2  UNL     1      26.115   3.095  50.154  1.00  0.00    -0.286 N 
HETATM    6  C5  UNL     1      25.178   3.717  51.090  1.00  0.00     0.416 C 
HETATM    7  N3  UNL     1      24.422   2.710  51.846  1.00  0.00     0.133 N 
HETATM    8  C14 UNL     1      25.101   1.465  51.862  1.00  0.00     0.305 A 
HETATM    9  C15 UNL     1      24.758   0.535  52.941  1.00  0.00     0.054 A 
HETATM   10  C16 UNL     1      25.639  -0.055  53.749  1.00  0.00     0.100 A 
HETATM   11  H5  UNL     1      26.005   3.140  49.115  1.00  0.00     0.184 HD
ENDROOT
BRANCH   7  12
HETATM   12  C6  UNL     1      23.113   2.757  51.303  1.00  0.00     0.273 A 
HETATM   13  C7  UNL     1      22.597   1.596  50.602  1.00  0.00     0.020 A 
HETATM   14  C8  UNL     1      21.552   1.041  51.246  1.00  0.00    -0.053 A 
HETATM   15  C9  UNL     1      20.498  -0.036  51.304  1.00  0.00     0.039 C 
HETATM   16  C12 UNL     1      21.292   1.837  52.457  1.00  0.00    -0.053 A 
HETATM   17  C10 UNL     1      19.367   0.636  52.030  1.00  0.00     0.009 C 
HETATM   18  C11 UNL     1      20.123   1.253  53.205  1.00  0.00     0.039 C 
HETATM   19  C13 UNL     1      22.177   2.819  52.489  1.00  0.00     0.020 A 
ENDBRANCH   7  12
BRANCH  10  20
HETATM   20  O2  UNL     1      25.319  -0.951  54.786  1.00  0.00    -0.353 OA
HETATM   21  C17 UNL     1      23.961  -1.127  55.171  1.00  0.00     0.210 C 
ENDBRANCH  10  20
BRANCH   1  22
HETATM   22  O1  UNL     1      28.023  -0.428  54.454  1.00  0.00    -0.353 OA
HETATM   23  C1  UNL     1      29.384  -0.593  54.104  1.00  0.00     0.210 C 
ENDBRANCH   1  22
TORSDOF 3
ENDMDL
