MODEL 1
REMARK VINA RESULT:      -6.9      0.000      0.000
REMARK  8 active torsions:
REMARK  status: ('A' for Active; 'I' for Inactive)
REMARK    1  A    between atoms: C2_2  and  C3_3 
REMARK    2  A    between atoms: N1_8  and  C8_9 
REMARK    3  A    between atoms: C13_17  and  C14_18 
REMARK    4  A    between atoms: C14_18  and  O2_19 
REMARK    5  A    between atoms: C16_21  and  O3_22 
REMARK    6  A    between atoms: O3_22  and  C17_23 
REMARK    7  A    between atoms: C17_23  and  C18_24 
REMARK    8  A    between atoms: C18_24  and  O4_25 
ROOT
HETATM    1  C8  UNL     1      23.062   2.478  51.608  1.00  0.00     0.124 C 
HETATM    2  N2  UNL     1      21.803   2.516  51.895  1.00  0.00    -0.227 NA
HETATM    3  C9  UNL     1      21.152   1.606  52.771  1.00  0.00     0.235 C 
HETATM    4  N3  UNL     1      21.884   0.694  53.321  1.00  0.00    -0.245 NA
HETATM    5  C10 UNL     1      23.292   0.611  53.068  1.00  0.00     0.052 C 
HETATM    6  C11 UNL     1      23.696  -0.348  53.898  1.00  0.00     0.028 C 
HETATM    7  C12 UNL     1      25.122  -0.740  53.943  1.00  0.00     0.205 C 
HETATM    8  O1  UNL     1      25.959   0.378  54.166  1.00  0.00    -0.347 OA
HETATM    9  C13 UNL     1      26.237   1.432  53.310  1.00  0.00     0.100 C 
HETATM   10  C16 UNL     1      25.357   1.869  52.425  1.00  0.00     0.095 C 
HETATM   11  C20 UNL     1      23.996   1.471  52.090  1.00  0.00     0.166 C 
ENDROOT
BRANCH   1  12
HETATM   12  N1  UNL     1      22.926   3.622  50.766  1.00  0.00    -0.331 N 
HETATM   13  C3  UNL     1      22.838   3.592  49.352  1.00  0.00     0.032 A 
HETATM   14  C4  UNL     1      22.824   4.612  48.539  1.00  0.00     0.029 A 
HETATM   15  C5  UNL     1      22.841   5.949  49.108  1.00  0.00    -0.000 A 
HETATM   16  C6  UNL     1      22.860   6.048  50.427  1.00  0.00    -0.007 A 
HETATM   17  C7  UNL     1      22.862   4.929  51.389  1.00  0.00     0.158 A 
BRANCH  13  18
HETATM   18  C2  UNL     1      22.811   2.365  48.633  1.00  0.00     0.003 C 
HETATM   19  C1  UNL     1      21.791   1.645  48.257  1.00  0.00     0.033 C 
ENDBRANCH  13  18
ENDBRANCH   1  12
BRANCH  10  20
HETATM   20  O3  UNL     1      25.596   2.903  51.556  1.00  0.00    -0.349 OA
BRANCH  20  21
HETATM   21  C17 UNL     1      26.387   2.879  50.392  1.00  0.00     0.201 C 
BRANCH  21  22
HETATM   22  C18 UNL     1      26.443   4.178  49.642  1.00  0.00     0.193 C 
BRANCH  22  23
HETATM   23  O4  UNL     1      27.589   4.227  48.875  1.00  0.00    -0.394 OA
HETATM   24  C19 UNL     1      27.927   5.500  48.461  1.00  0.00     0.201 C 
ENDBRANCH  22  23
ENDBRANCH  21  22
ENDBRANCH  20  21
ENDBRANCH  10  20
BRANCH   9  25
HETATM   25  C14 UNL     1      27.543   2.114  53.369  1.00  0.00     0.234 C 
BRANCH  25  26
HETATM   26  O2  UNL     1      28.350   1.743  54.410  1.00  0.00    -0.389 OA
HETATM   27  C15 UNL     1      29.396   0.907  54.111  1.00  0.00     0.201 C 
ENDBRANCH  25  26
ENDBRANCH   9  25
TORSDOF 8
ENDMDL
MODEL 2
REMARK VINA RESULT:      -6.9      1.726      2.488
REMARK  8 active torsions:
REMARK  status: ('A' for Active; 'I' for Inactive)
REMARK    1  A    between atoms: C2_2  and  C3_3 
REMARK    2  A    between atoms: N1_8  and  C8_9 
REMARK    3  A    between atoms: C13_17  and  C14_18 
REMARK    4  A    between atoms: C14_18  and  O2_19 
REMARK    5  A    between atoms: C16_21  and  O3_22 
REMARK    6  A    between atoms: O3_22  and  C17_23 
REMARK    7  A    between atoms: C17_23  and  C18_24 
REMARK    8  A    between atoms: C18_24  and  O4_25 
ROOT
HETATM    1  C8  UNL     1      22.375   2.669  51.823  1.00  0.00     0.124 C 
HETATM    2  N2  UNL     1      21.232   3.269  51.864  1.00  0.00    -0.227 NA
HETATM    3  C9  UNL     1      20.030   2.674  52.334  1.00  0.00     0.235 C 
HETATM    4  N3  UNL     1      20.104   1.456  52.759  1.00  0.00    -0.245 NA
HETATM    5  C10 UNL     1      21.346   0.740  52.765  1.00  0.00     0.052 C 
HETATM    6  C11 UNL     1      21.038  -0.400  53.380  1.00  0.00     0.028 C 
HETATM    7  C12 UNL     1      22.075  -1.433  53.594  1.00  0.00     0.205 C 
HETATM    8  O1  UNL     1      23.208  -0.901  54.253  1.00  0.00    -0.347 OA
HETATM    9  C13 UNL     1      24.146  -0.004  53.769  1.00  0.00     0.100 C 
HETATM   10  C16 UNL     1      23.838   0.921  52.875  1.00  0.00     0.095 C 
HETATM   11  C20 UNL     1      22.600   1.280  52.196  1.00  0.00     0.166 C 
ENDROOT
BRANCH   1  12
HETATM   12  N1  UNL     1      22.994   3.841  51.294  1.00  0.00    -0.331 N 
HETATM   13  C3  UNL     1      23.504   3.976  49.980  1.00  0.00     0.032 A 
HETATM   14  C4  UNL     1      24.173   4.984  49.491  1.00  0.00     0.029 A 
HETATM   15  C5  UNL     1      24.393   6.143  50.339  1.00  0.00    -0.000 A 
HETATM   16  C6  UNL     1      23.890   6.106  51.561  1.00  0.00    -0.007 A 
HETATM   17  C7  UNL     1      23.115   5.000  52.156  1.00  0.00     0.158 A 
BRANCH  13  18
HETATM   18  C2  UNL     1      23.373   2.936  49.019  1.00  0.00     0.003 C 
HETATM   19  C1  UNL     1      22.452   2.749  48.115  1.00  0.00     0.033 C 
ENDBRANCH  13  18
ENDBRANCH   1  12
BRANCH  10  20
HETATM   20  O3  UNL     1      24.740   1.821  52.366  1.00  0.00    -0.349 OA
BRANCH  20  21
HETATM   21  C17 UNL     1      25.792   1.565  51.468  1.00  0.00     0.201 C 
BRANCH  21  22
HETATM   22  C18 UNL     1      26.955   2.509  51.574  1.00  0.00     0.193 C 
BRANCH  22  23
HETATM   23  O4  UNL     1      27.984   1.909  52.271  1.00  0.00    -0.394 OA
HETATM   24  C19 UNL     1      28.158   2.412  53.545  1.00  0.00     0.201 C 
ENDBRANCH  22  23
ENDBRANCH  21  22
ENDBRANCH  20  21
ENDBRANCH  10  20
BRANCH   9  25
HETATM   25  C14 UNL     1      25.539  -0.053  54.250  1.00  0.00     0.234 C 
BRANCH  25  26
HETATM   26  O2  UNL     1      26.168  -1.258  54.099  1.00  0.00    -0.389 OA
HETATM   27  C15 UNL     1      26.715  -1.519  52.868  1.00  0.00     0.201 C 
ENDBRANCH  25  26
ENDBRANCH   9  25
TORSDOF 8
ENDMDL
MODEL 3
REMARK VINA RESULT:      -6.7      2.993      5.885
REMARK  8 active torsions:
REMARK  status: ('A' for Active; 'I' for Inactive)
REMARK    1  A    between atoms: C2_2  and  C3_3 
REMARK    2  A    between atoms: N1_8  and  C8_9 
REMARK    3  A    between atoms: C13_17  and  C14_18 
REMARK    4  A    between atoms: C14_18  and  O2_19 
REMARK    5  A    between atoms: C16_21  and  O3_22 
REMARK    6  A    between atoms: O3_22  and  C17_23 
REMARK    7  A    between atoms: C17_23  and  C18_24 
REMARK    8  A    between atoms: C18_24  and  O4_25 
ROOT
HETATM    1  C8  UNL     1      24.261   0.269  53.739  1.00  0.00     0.124 C 
HETATM    2  N2  UNL     1      24.663  -0.536  54.665  1.00  0.00    -0.227 NA
HETATM    3  C9  UNL     1      23.806  -1.380  55.422  1.00  0.00     0.235 C 
HETATM    4  N3  UNL     1      22.545  -1.339  55.143  1.00  0.00    -0.245 NA
HETATM    5  C10 UNL     1      22.034  -0.488  54.110  1.00  0.00     0.052 C 
HETATM    6  C11 UNL     1      20.748  -0.823  54.046  1.00  0.00     0.028 C 
HETATM    7  C12 UNL     1      19.853  -0.156  53.074  1.00  0.00     0.205 C 
HETATM    8  O1  UNL     1      20.366  -0.237  51.759  1.00  0.00    -0.347 OA
HETATM    9  C13 UNL     1      21.478   0.396  51.226  1.00  0.00     0.100 C 
HETATM   10  C16 UNL     1      22.538   0.689  51.961  1.00  0.00     0.095 C 
HETATM   11  C20 UNL     1      22.870   0.479  53.364  1.00  0.00     0.166 C 
ENDROOT
BRANCH   1  12
HETATM   12  N1  UNL     1      25.602   0.690  53.494  1.00  0.00    -0.331 N 
HETATM   13  C3  UNL     1      26.615  -0.103  52.902  1.00  0.00     0.032 A 
HETATM   14  C4  UNL     1      27.876   0.201  52.760  1.00  0.00     0.029 A 
HETATM   15  C5  UNL     1      28.322   1.514  53.192  1.00  0.00    -0.000 A 
HETATM   16  C6  UNL     1      27.412   2.329  53.698  1.00  0.00    -0.007 A 
HETATM   17  C7  UNL     1      25.975   2.041  53.866  1.00  0.00     0.158 A 
BRANCH  13  18
HETATM   18  C2  UNL     1      26.349  -1.415  52.423  1.00  0.00     0.003 C 
HETATM   19  C1  UNL     1      27.114  -2.472  52.424  1.00  0.00     0.033 C 
ENDBRANCH  13  18
ENDBRANCH   1  12
BRANCH  10  20
HETATM   20  O3  UNL     1      23.654   1.321  51.473  1.00  0.00    -0.349 OA
BRANCH  20  21
HETATM   21  C17 UNL     1      23.751   2.638  50.990  1.00  0.00     0.201 C 
BRANCH  21  22
HETATM   22  C18 UNL     1      23.087   3.675  51.850  1.00  0.00     0.193 C 
BRANCH  22  23
HETATM   23  O4  UNL     1      21.988   4.193  51.195  1.00  0.00    -0.394 OA
HETATM   24  C19 UNL     1      20.798   3.997  51.866  1.00  0.00     0.201 C 
ENDBRANCH  22  23
ENDBRANCH  21  22
ENDBRANCH  20  21
ENDBRANCH  10  20
BRANCH   9  25
HETATM   25  C14 UNL     1      21.515   0.759  49.798  1.00  0.00     0.234 C 
BRANCH  25  26
HETATM   26  O2  UNL     1      20.481   1.546  49.368  1.00  0.00    -0.389 OA
HETATM   27  C15 UNL     1      20.708   2.302  48.245  1.00  0.00     0.201 C 
ENDBRANCH  25  26
ENDBRANCH   9  25
TORSDOF 8
ENDMDL
MODEL 4
REMARK VINA RESULT:      -6.4      2.214      4.838
REMARK  8 active torsions:
REMARK  status: ('A' for Active; 'I' for Inactive)
REMARK    1  A    between atoms: C2_2  and  C3_3 
REMARK    2  A    between atoms: N1_8  and  C8_9 
REMARK    3  A    between atoms: C13_17  and  C14_18 
REMARK    4  A    between atoms: C14_18  and  O2_19 
REMARK    5  A    between atoms: C16_21  and  O3_22 
REMARK    6  A    between atoms: O3_22  and  C17_23 
REMARK    7  A    between atoms: C17_23  and  C18_24 
REMARK    8  A    between atoms: C18_24  and  O4_25 
ROOT
HETATM    1  C8  UNL     1      24.292   3.075  50.469  1.00  0.00     0.124 C 
HETATM    2  N2  UNL     1      25.111   3.543  49.588  1.00  0.00    -0.227 NA
HETATM    3  C9  UNL     1      26.528   3.474  49.693  1.00  0.00     0.235 C 
HETATM    4  N3  UNL     1      27.011   2.887  50.738  1.00  0.00    -0.245 NA
HETATM    5  C10 UNL     1      26.158   2.323  51.742  1.00  0.00     0.052 C 
HETATM    6  C11 UNL     1      27.012   1.714  52.561  1.00  0.00     0.028 C 
HETATM    7  C12 UNL     1      26.513   0.992  53.752  1.00  0.00     0.205 C 
HETATM    8  O1  UNL     1      25.525   0.040  53.404  1.00  0.00    -0.347 OA
HETATM    9  C13 UNL     1      24.235   0.263  52.950  1.00  0.00     0.100 C 
HETATM   10  C16 UNL     1      23.917   1.325  52.230  1.00  0.00     0.095 C 
HETATM   11  C20 UNL     1      24.684   2.457  51.727  1.00  0.00     0.166 C 
ENDROOT
BRANCH   1  12
HETATM   12  N1  UNL     1      23.176   3.494  49.684  1.00  0.00    -0.331 N 
HETATM   13  C3  UNL     1      22.385   4.643  49.930  1.00  0.00     0.032 A 
HETATM   14  C4  UNL     1      21.296   5.001  49.308  1.00  0.00     0.029 A 
HETATM   15  C5  UNL     1      20.839   4.190  48.193  1.00  0.00    -0.000 A 
HETATM   16  C6  UNL     1      21.568   3.135  47.870  1.00  0.00    -0.007 A 
HETATM   17  C7  UNL     1      22.812   2.695  48.530  1.00  0.00     0.158 A 
BRANCH  13  18
HETATM   18  C2  UNL     1      22.693   5.546  50.985  1.00  0.00     0.003 C 
HETATM   19  C1  UNL     1      23.409   6.636  50.964  1.00  0.00     0.033 C 
ENDBRANCH  13  18
ENDBRANCH   1  12
BRANCH  10  20
HETATM   20  O3  UNL     1      22.651   1.585  51.770  1.00  0.00    -0.349 OA
BRANCH  20  21
HETATM   21  C17 UNL     1      21.580   2.153  52.483  1.00  0.00     0.201 C 
BRANCH  21  22
HETATM   22  C18 UNL     1      20.293   2.252  51.715  1.00  0.00     0.193 C 
BRANCH  22  23
HETATM   23  O4  UNL     1      19.546   3.312  52.187  1.00  0.00    -0.394 OA
HETATM   24  C19 UNL     1      18.450   3.611  51.403  1.00  0.00     0.201 C 
ENDBRANCH  22  23
ENDBRANCH  21  22
ENDBRANCH  20  21
ENDBRANCH  10  20
BRANCH   9  25
HETATM   25  C14 UNL     1      23.162  -0.701  53.258  1.00  0.00     0.234 C 
BRANCH  25  26
HETATM   26  O2  UNL     1      22.799  -0.772  54.575  1.00  0.00    -0.389 OA
HETATM   27  C15 UNL     1      21.482  -0.521  54.866  1.00  0.00     0.201 C 
ENDBRANCH  25  26
ENDBRANCH   9  25
TORSDOF 8
ENDMDL
MODEL 5
REMARK VINA RESULT:      -6.3      2.411      4.644
REMARK  8 active torsions:
REMARK  status: ('A' for Active; 'I' for Inactive)
REMARK    1  A    between atoms: C2_2  and  C3_3 
REMARK    2  A    between atoms: N1_8  and  C8_9 
REMARK    3  A    between atoms: C13_17  and  C14_18 
REMARK    4  A    between atoms: C14_18  and  O2_19 
REMARK    5  A    between atoms: C16_21  and  O3_22 
REMARK    6  A    between atoms: O3_22  and  C17_23 
REMARK    7  A    between atoms: C17_23  and  C18_24 
REMARK    8  A    between atoms: C18_24  and  O4_25 
ROOT
HETATM    1  C8  UNL     1      24.285   3.549  50.318  1.00  0.00     0.124 C 
HETATM    2  N2  UNL     1      25.232   3.809  49.479  1.00  0.00    -0.227 NA
HETATM    3  C9  UNL     1      26.566   3.332  49.602  1.00  0.00     0.235 C 
HETATM    4  N3  UNL     1      26.829   2.578  50.618  1.00  0.00    -0.245 NA
HETATM    5  C10 UNL     1      25.818   2.229  51.573  1.00  0.00     0.052 C 
HETATM    6  C11 UNL     1      26.437   1.359  52.368  1.00  0.00     0.028 C 
HETATM    7  C12 UNL     1      25.715   0.748  53.505  1.00  0.00     0.205 C 
HETATM    8  O1  UNL     1      24.510   0.138  53.086  1.00  0.00    -0.347 OA
HETATM    9  C13 UNL     1      23.351   0.744  52.626  1.00  0.00     0.100 C 
HETATM   10  C16 UNL     1      23.372   1.889  51.966  1.00  0.00     0.095 C 
HETATM   11  C20 UNL     1      24.445   2.779  51.543  1.00  0.00     0.166 C 
ENDROOT
BRANCH   1  12
HETATM   12  N1  UNL     1      23.361   4.310  49.542  1.00  0.00    -0.331 N 
HETATM   13  C3  UNL     1      22.606   3.815  48.450  1.00  0.00     0.032 A 
HETATM   14  C4  UNL     1      21.836   4.497  47.646  1.00  0.00     0.029 A 
HETATM   15  C5  UNL     1      21.660   5.917  47.900  1.00  0.00    -0.000 A 
HETATM   16  C6  UNL     1      22.289   6.431  48.943  1.00  0.00    -0.007 A 
HETATM   17  C7  UNL     1      23.157   5.702  49.888  1.00  0.00     0.158 A 
BRANCH  13  18
HETATM   18  C2  UNL     1      22.661   2.447  48.065  1.00  0.00     0.003 C 
HETATM   19  C1  UNL     1      21.808   1.486  48.286  1.00  0.00     0.033 C 
ENDBRANCH  13  18
ENDBRANCH   1  12
BRANCH  10  20
HETATM   20  O3  UNL     1      22.247   2.524  51.502  1.00  0.00    -0.349 OA
BRANCH  20  21
HETATM   21  C17 UNL     1      21.343   3.311  52.237  1.00  0.00     0.201 C 
BRANCH  21  22
HETATM   22  C18 UNL     1      20.236   3.923  51.427  1.00  0.00     0.193 C 
BRANCH  22  23
HETATM   23  O4  UNL     1      19.014   3.573  51.964  1.00  0.00    -0.394 OA
HETATM   24  C19 UNL     1      18.616   2.290  51.649  1.00  0.00     0.201 C 
ENDBRANCH  22  23
ENDBRANCH  21  22
ENDBRANCH  20  21
ENDBRANCH  10  20
BRANCH   9  25
HETATM   25  C14 UNL     1      22.039   0.112  52.859  1.00  0.00     0.234 C 
BRANCH  25  26
HETATM   26  O2  UNL     1      21.644   0.048  54.167  1.00  0.00    -0.389 OA
HETATM   27  C15 UNL     1      21.545  -1.203  54.721  1.00  0.00     0.201 C 
ENDBRANCH  25  26
ENDBRANCH   9  25
TORSDOF 8
ENDMDL
MODEL 6
REMARK VINA RESULT:      -6.3      3.096      5.087
REMARK  8 active torsions:
REMARK  status: ('A' for Active; 'I' for Inactive)
REMARK    1  A    between atoms: C2_2  and  C3_3 
REMARK    2  A    between atoms: N1_8  and  C8_9 
REMARK    3  A    between atoms: C13_17  and  C14_18 
REMARK    4  A    between atoms: C14_18  and  O2_19 
REMARK    5  A    between atoms: C16_21  and  O3_22 
REMARK    6  A    between atoms: O3_22  and  C17_23 
REMARK    7  A    between atoms: C17_23  and  C18_24 
REMARK    8  A    between atoms: C18_24  and  O4_25 
ROOT
HETATM    1  C8  UNL     1      23.513   1.954  51.910  1.00  0.00     0.124 C 
HETATM    2  N2  UNL     1      24.745   1.678  51.642  1.00  0.00    -0.227 NA
HETATM    3  C9  UNL     1      25.480   0.621  52.244  1.00  0.00     0.235 C 
HETATM    4  N3  UNL     1      24.856  -0.113  53.106  1.00  0.00    -0.245 NA
HETATM    5  C10 UNL     1      23.480   0.122  53.431  1.00  0.00     0.052 C 
HETATM    6  C11 UNL     1      23.178  -0.896  54.233  1.00  0.00     0.028 C 
HETATM    7  C12 UNL     1      21.815  -1.021  54.795  1.00  0.00     0.205 C 
HETATM    8  O1  UNL     1      20.831  -0.990  53.779  1.00  0.00    -0.347 OA
HETATM    9  C13 UNL     1      20.447   0.077  52.982  1.00  0.00     0.100 C 
HETATM   10  C16 UNL     1      21.291   1.033  52.633  1.00  0.00     0.095 C 
HETATM   11  C20 UNL     1      22.703   1.267  52.907  1.00  0.00     0.166 C 
ENDROOT
BRANCH   1  12
HETATM   12  N1  UNL     1      23.526   3.026  50.969  1.00  0.00    -0.331 N 
HETATM   13  C3  UNL     1      23.072   2.946  49.629  1.00  0.00     0.032 A 
HETATM   14  C4  UNL     1      23.167   3.863  48.706  1.00  0.00     0.029 A 
HETATM   15  C5  UNL     1      23.744   5.148  49.066  1.00  0.00    -0.000 A 
HETATM   16  C6  UNL     1      24.132   5.310  50.319  1.00  0.00    -0.007 A 
HETATM   17  C7  UNL     1      24.034   4.313  51.403  1.00  0.00     0.158 A 
BRANCH  13  18
HETATM   18  C2  UNL     1      22.481   1.761  49.113  1.00  0.00     0.003 C 
HETATM   19  C1  UNL     1      21.368   1.607  48.451  1.00  0.00     0.033 C 
ENDBRANCH  13  18
ENDBRANCH   1  12
BRANCH  10  20
HETATM   20  O3  UNL     1      20.948   2.109  51.853  1.00  0.00    -0.349 OA
BRANCH  20  21
HETATM   21  C17 UNL     1      20.249   3.264  52.248  1.00  0.00     0.201 C 
BRANCH  21  22
HETATM   22  C18 UNL     1      19.656   4.058  51.119  1.00  0.00     0.193 C 
BRANCH  22  23
HETATM   23  O4  UNL     1      20.503   5.092  50.777  1.00  0.00    -0.394 OA
HETATM   24  C19 UNL     1      20.096   5.797  49.662  1.00  0.00     0.201 C 
ENDBRANCH  22  23
ENDBRANCH  21  22
ENDBRANCH  20  21
ENDBRANCH  10  20
BRANCH   9  25
HETATM   25  C14 UNL     1      19.062   0.174  52.487  1.00  0.00     0.234 C 
BRANCH  25  26
HETATM   26  O2  UNL     1      18.894  -0.106  51.158  1.00  0.00    -0.389 OA
HETATM   27  C15 UNL     1      17.893   0.569  50.507  1.00  0.00     0.201 C 
ENDBRANCH  25  26
ENDBRANCH   9  25
TORSDOF 8
ENDMDL
MODEL 7
REMARK VINA RESULT:      -6.1      3.410      5.766
REMARK  8 active torsions:
REMARK  status: ('A' for Active; 'I' for Inactive)
REMARK    1  A    between atoms: C2_2  and  C3_3 
REMARK    2  A    between atoms: N1_8  and  C8_9 
REMARK    3  A    between atoms: C13_17  and  C14_18 
REMARK    4  A    between atoms: C14_18  and  O2_19 
REMARK    5  A    between atoms: C16_21  and  O3_22 
REMARK    6  A    between atoms: O3_22  and  C17_23 
REMARK    7  A    between atoms: C17_23  and  C18_24 
REMARK    8  A    between atoms: C18_24  and  O4_25 
ROOT
HETATM    1  C8  UNL     1      22.969   1.811  51.762  1.00  0.00     0.124 C 
HETATM    2  N2  UNL     1      24.223   1.661  51.492  1.00  0.00    -0.227 NA
HETATM    3  C9  UNL     1      25.087   0.755  52.166  1.00  0.00     0.235 C 
HETATM    4  N3  UNL     1      24.564   0.029  53.098  1.00  0.00    -0.245 NA
HETATM    5  C10 UNL     1      23.173   0.125  53.431  1.00  0.00     0.052 C 
HETATM    6  C11 UNL     1      23.005  -0.849  54.322  1.00  0.00     0.028 C 
HETATM    7  C12 UNL     1      21.672  -1.087  54.920  1.00  0.00     0.205 C 
HETATM    8  O1  UNL     1      20.681  -1.260  53.926  1.00  0.00    -0.347 OA
HETATM    9  C13 UNL     1      20.163  -0.318  53.051  1.00  0.00     0.100 C 
HETATM   10  C16 UNL     1      20.883   0.698  52.606  1.00  0.00     0.095 C 
HETATM   11  C20 UNL     1      22.259   1.121  52.829  1.00  0.00     0.166 C 
ENDROOT
BRANCH   1  12
HETATM   12  N1  UNL     1      22.843   2.793  50.734  1.00  0.00    -0.331 N 
HETATM   13  C3  UNL     1      22.641   4.179  50.946  1.00  0.00     0.032 A 
HETATM   14  C4  UNL     1      22.411   5.091  50.041  1.00  0.00     0.029 A 
HETATM   15  C5  UNL     1      22.412   4.693  48.644  1.00  0.00    -0.000 A 
HETATM   16  C6  UNL     1      22.657   3.423  48.374  1.00  0.00    -0.007 A 
HETATM   17  C7  UNL     1      22.936   2.357  49.355  1.00  0.00     0.158 A 
BRANCH  13  18
HETATM   18  C2  UNL     1      22.611   4.736  52.253  1.00  0.00     0.003 C 
HETATM   19  C1  UNL     1      23.597   5.017  53.060  1.00  0.00     0.033 C 
ENDBRANCH  13  18
ENDBRANCH   1  12
BRANCH  10  20
HETATM   20  O3  UNL     1      20.404   1.654  51.746  1.00  0.00    -0.349 OA
BRANCH  20  21
HETATM   21  C17 UNL     1      19.462   2.661  52.024  1.00  0.00     0.201 C 
BRANCH  21  22
HETATM   22  C18 UNL     1      19.132   3.554  50.862  1.00  0.00     0.193 C 
BRANCH  22  23
HETATM   23  O4  UNL     1      19.318   2.869  49.678  1.00  0.00    -0.394 OA
HETATM   24  C19 UNL     1      18.161   2.312  49.172  1.00  0.00     0.201 C 
ENDBRANCH  22  23
ENDBRANCH  21  22
ENDBRANCH  20  21
ENDBRANCH  10  20
BRANCH   9  25
HETATM   25  C14 UNL     1      18.771  -0.430  52.578  1.00  0.00     0.234 C 
BRANCH  25  26
HETATM   26  O2  UNL     1      17.874  -0.891  53.502  1.00  0.00    -0.389 OA
HETATM   27  C15 UNL     1      17.284  -2.102  53.238  1.00  0.00     0.201 C 
ENDBRANCH  25  26
ENDBRANCH   9  25
TORSDOF 8
ENDMDL
MODEL 8
REMARK VINA RESULT:      -5.9      5.663      7.864
REMARK  8 active torsions:
REMARK  status: ('A' for Active; 'I' for Inactive)
REMARK    1  A    between atoms: C2_2  and  C3_3 
REMARK    2  A    between atoms: N1_8  and  C8_9 
REMARK    3  A    between atoms: C13_17  and  C14_18 
REMARK    4  A    between atoms: C14_18  and  O2_19 
REMARK    5  A    between atoms: C16_21  and  O3_22 
REMARK    6  A    between atoms: O3_22  and  C17_23 
REMARK    7  A    between atoms: C17_23  and  C18_24 
REMARK    8  A    between atoms: C18_24  and  O4_25 
ROOT
HETATM    1  C8  UNL     1      26.643   6.694  48.739  1.00  0.00     0.124 C 
HETATM    2  N2  UNL     1      26.248   5.503  49.045  1.00  0.00    -0.227 NA
HETATM    3  C9  UNL     1      27.067   4.343  48.975  1.00  0.00     0.235 C 
HETATM    4  N3  UNL     1      28.290   4.510  48.592  1.00  0.00    -0.245 NA
HETATM    5  C10 UNL     1      28.801   5.808  48.263  1.00  0.00     0.052 C 
HETATM    6  C11 UNL     1      30.095   5.581  48.051  1.00  0.00     0.028 C 
HETATM    7  C12 UNL     1      30.994   6.696  47.682  1.00  0.00     0.205 C 
HETATM    8  O1  UNL     1      30.909   7.759  48.611  1.00  0.00    -0.347 OA
HETATM    9  C13 UNL     1      29.854   8.631  48.830  1.00  0.00     0.100 C 
HETATM   10  C16 UNL     1      28.595   8.271  48.646  1.00  0.00     0.095 C 
HETATM   11  C20 UNL     1      27.964   7.027  48.225  1.00  0.00     0.166 C 
ENDROOT
BRANCH   1  12
HETATM   12  N1  UNL     1      25.360   7.226  49.063  1.00  0.00    -0.331 N 
HETATM   13  C3  UNL     1      24.425   7.737  48.130  1.00  0.00     0.032 A 
HETATM   14  C4  UNL     1      23.292   8.330  48.389  1.00  0.00     0.029 A 
HETATM   15  C5  UNL     1      22.877   8.451  49.776  1.00  0.00    -0.000 A 
HETATM   16  C6  UNL     1      23.677   7.939  50.696  1.00  0.00    -0.007 A 
HETATM   17  C7  UNL     1      24.958   7.247  50.456  1.00  0.00     0.158 A 
BRANCH  13  18
HETATM   18  C2  UNL     1      24.673   7.697  46.730  1.00  0.00     0.003 C 
HETATM   19  C1  UNL     1      24.513   8.628  45.831  1.00  0.00     0.033 C 
ENDBRANCH  13  18
ENDBRANCH   1  12
BRANCH  10  20
HETATM   20  O3  UNL     1      27.525   9.106  48.844  1.00  0.00    -0.349 OA
BRANCH  20  21
HETATM   21  C17 UNL     1      27.140  10.207  48.057  1.00  0.00     0.201 C 
BRANCH  21  22
HETATM   22  C18 UNL     1      25.927  10.941  48.550  1.00  0.00     0.193 C 
BRANCH  22  23
HETATM   23  O4  UNL     1      26.100  12.300  48.380  1.00  0.00    -0.394 OA
HETATM   24  C19 UNL     1      27.423  12.689  48.335  1.00  0.00     0.201 C 
ENDBRANCH  22  23
ENDBRANCH  21  22
ENDBRANCH  20  21
ENDBRANCH  10  20
BRANCH   9  25
HETATM   25  C14 UNL     1      30.111  10.009  49.289  1.00  0.00     0.234 C 
BRANCH  25  26
HETATM   26  O2  UNL     1      30.890  10.767  48.459  1.00  0.00    -0.389 OA
HETATM   27  C15 UNL     1      31.013  12.097  48.772  1.00  0.00     0.201 C 
ENDBRANCH  25  26
ENDBRANCH   9  25
TORSDOF 8
ENDMDL
MODEL 9
REMARK VINA RESULT:      -5.9      3.838      6.527
REMARK  8 active torsions:
REMARK  status: ('A' for Active; 'I' for Inactive)
REMARK    1  A    between atoms: C2_2  and  C3_3 
REMARK    2  A    between atoms: N1_8  and  C8_9 
REMARK    3  A    between atoms: C13_17  and  C14_18 
REMARK    4  A    between atoms: C14_18  and  O2_19 
REMARK    5  A    between atoms: C16_21  and  O3_22 
REMARK    6  A    between atoms: O3_22  and  C17_23 
REMARK    7  A    between atoms: C17_23  and  C18_24 
REMARK    8  A    between atoms: C18_24  and  O4_25 
ROOT
HETATM    1  C8  UNL     1      24.729   4.693  49.772  1.00  0.00     0.124 C 
HETATM    2  N2  UNL     1      25.124   3.534  50.181  1.00  0.00    -0.227 NA
HETATM    3  C9  UNL     1      26.431   3.013  49.976  1.00  0.00     0.235 C 
HETATM    4  N3  UNL     1      27.272   3.767  49.349  1.00  0.00    -0.245 NA
HETATM    5  C10 UNL     1      26.908   5.075  48.891  1.00  0.00     0.052 C 
HETATM    6  C11 UNL     1      28.054   5.567  48.426  1.00  0.00     0.028 C 
HETATM    7  C12 UNL     1      28.101   6.931  47.855  1.00  0.00     0.205 C 
HETATM    8  O1  UNL     1      27.576   7.887  48.755  1.00  0.00    -0.347 OA
HETATM    9  C13 UNL     1      26.263   8.061  49.161  1.00  0.00     0.100 C 
HETATM   10  C16 UNL     1      25.414   7.050  49.245  1.00  0.00     0.095 C 
HETATM   11  C20 UNL     1      25.536   5.621  48.992  1.00  0.00     0.166 C 
ENDROOT
BRANCH   1  12
HETATM   12  N1  UNL     1      23.437   4.474  50.336  1.00  0.00    -0.331 N 
HETATM   13  C3  UNL     1      22.290   4.052  49.619  1.00  0.00     0.032 A 
HETATM   14  C4  UNL     1      21.070   3.946  50.069  1.00  0.00     0.029 A 
HETATM   15  C5  UNL     1      20.826   4.229  51.473  1.00  0.00    -0.000 A 
HETATM   16  C6  UNL     1      21.866   4.570  52.215  1.00  0.00    -0.007 A 
HETATM   17  C7  UNL     1      23.265   4.690  51.759  1.00  0.00     0.158 A 
BRANCH  13  18
HETATM   18  C2  UNL     1      22.354   3.733  48.235  1.00  0.00     0.003 C 
HETATM   19  C1  UNL     1      22.396   2.568  47.651  1.00  0.00     0.033 C 
ENDBRANCH  13  18
ENDBRANCH   1  12
BRANCH  10  20
HETATM   20  O3  UNL     1      24.105   7.182  49.635  1.00  0.00    -0.349 OA
BRANCH  20  21
HETATM   21  C17 UNL     1      23.022   7.633  48.859  1.00  0.00     0.201 C 
BRANCH  21  22
HETATM   22  C18 UNL     1      21.986   8.414  49.616  1.00  0.00     0.193 C 
BRANCH  22  23
HETATM   23  O4  UNL     1      21.093   7.549  50.216  1.00  0.00    -0.394 OA
HETATM   24  C19 UNL     1      19.907   7.409  49.523  1.00  0.00     0.201 C 
ENDBRANCH  22  23
ENDBRANCH  21  22
ENDBRANCH  20  21
ENDBRANCH  10  20
BRANCH   9  25
HETATM   25  C14 UNL     1      25.767   9.401  49.524  1.00  0.00     0.234 C 
BRANCH  25  26
HETATM   26  O2  UNL     1      26.668  10.420  49.370  1.00  0.00    -0.389 OA
HETATM   27  C15 UNL     1      26.460  11.273  48.316  1.00  0.00     0.201 C 
ENDBRANCH  25  26
ENDBRANCH   9  25
TORSDOF 8
ENDMDL
