MODEL 1
REMARK VINA RESULT:      -7.1      0.000      0.000
REMARK  4 active torsions:
REMARK  status: ('A' for Active; 'I' for Inactive)
REMARK    1  A    between atoms: C2_2  and  C3_3 
REMARK    2  A    between atoms: C3_3  and  N1_4 
REMARK    3  A    between atoms: C6_7  and  N2_8 
REMARK    4  A    between atoms: N2_8  and  C7_9 
ROOT
HETATM    1  C7  UNL     1      27.248   0.362  54.723  1.00  0.00     0.245 C 
HETATM    2  C8  UNL     1      28.531  -0.147  54.278  1.00  0.00     0.078 C 
HETATM    3  N3  UNL     1      29.549  -0.550  53.945  1.00  0.00    -0.196 NA
ENDROOT
BRANCH   1   4
HETATM    4  N2  UNL     1      26.176   0.021  53.820  1.00  0.00    -0.362 N 
HETATM    5  H9  UNL     1      26.601   0.164  52.873  1.00  0.00     0.162 HD
BRANCH   4   6
HETATM    6  C6  UNL     1      24.869  -0.413  54.277  1.00  0.00     0.139 A 
HETATM    7  C5  UNL     1      23.627  -0.050  53.723  1.00  0.00     0.053 A 
HETATM    8  C4  UNL     1      23.926   0.736  52.750  1.00  0.00     0.103 C 
HETATM    9  C10 UNL     1      22.555  -0.562  54.324  1.00  0.00     0.071 A 
HETATM   10  N1  UNL     1      23.519   1.570  51.667  1.00  0.00    -0.389 N 
HETATM   11  C15 UNL     1      22.151   1.660  51.730  1.00  0.00     0.124 C 
HETATM   12  C14 UNL     1      21.274   2.678  52.216  1.00  0.00     0.046 C 
HETATM   13  C13 UNL     1      19.902   1.918  52.044  1.00  0.00     0.169 C 
HETATM   14  O1  UNL     1      19.903   0.758  52.609  1.00  0.00    -0.387 OA
HETATM   15  C12 UNL     1      19.998  -0.162  53.450  1.00  0.00     0.197 C 
HETATM   16  C11 UNL     1      21.236  -0.585  54.199  1.00  0.00     0.032 C 
HETATM   17  N5  UNL     1      22.821  -1.352  55.375  1.00  0.00    -0.241 NA
HETATM   18  C9  UNL     1      23.953  -1.704  55.911  1.00  0.00     0.235 A 
HETATM   19  N4  UNL     1      25.021  -1.209  55.330  1.00  0.00    -0.224 NA
BRANCH  10  20
HETATM   20  C3  UNL     1      24.178   2.337  50.674  1.00  0.00     0.122 C 
BRANCH  20  21
HETATM   21  C2  UNL     1      25.570   2.758  50.994  1.00  0.00     0.015 C 
HETATM   22  C1  UNL     1      26.248   3.250  49.732  1.00  0.00     0.006 C 
ENDBRANCH  20  21
ENDBRANCH  10  20
ENDBRANCH   4   6
ENDBRANCH   1   4
TORSDOF 4
ENDMDL
MODEL 2
REMARK VINA RESULT:      -7.0      1.659      2.409
REMARK  4 active torsions:
REMARK  status: ('A' for Active; 'I' for Inactive)
REMARK    1  A    between atoms: C2_2  and  C3_3 
REMARK    2  A    between atoms: C3_3  and  N1_4 
REMARK    3  A    between atoms: C6_7  and  N2_8 
REMARK    4  A    between atoms: N2_8  and  C7_9 
ROOT
HETATM    1  C7  UNL     1      25.572  -0.642  54.706  1.00  0.00     0.245 C 
HETATM    2  C8  UNL     1      26.613   0.367  54.716  1.00  0.00     0.078 C 
HETATM    3  N3  UNL     1      27.446   1.151  54.733  1.00  0.00    -0.196 NA
ENDROOT
BRANCH   1   4
HETATM    4  N2  UNL     1      24.739  -0.564  53.531  1.00  0.00    -0.362 N 
HETATM    5  H9  UNL     1      25.382  -0.856  52.756  1.00  0.00     0.162 HD
BRANCH   4   6
HETATM    6  C6  UNL     1      23.345  -0.165  53.579  1.00  0.00     0.139 A 
HETATM    7  C5  UNL     1      22.781   0.975  52.975  1.00  0.00     0.053 A 
HETATM    8  C4  UNL     1      23.772   1.557  52.397  1.00  0.00     0.103 C 
HETATM    9  C10 UNL     1      21.475   1.146  53.170  1.00  0.00     0.071 A 
HETATM   10  N1  UNL     1      24.286   2.630  51.610  1.00  0.00    -0.389 N 
HETATM   11  C15 UNL     1      23.264   3.535  51.462  1.00  0.00     0.124 C 
HETATM   12  C14 UNL     1      22.978   4.778  52.107  1.00  0.00     0.046 C 
HETATM   13  C13 UNL     1      21.574   5.072  51.451  1.00  0.00     0.169 C 
HETATM   14  O1  UNL     1      20.750   4.087  51.577  1.00  0.00    -0.387 OA
HETATM   15  C12 UNL     1      20.035   3.181  52.056  1.00  0.00     0.197 C 
HETATM   16  C11 UNL     1      20.495   1.966  52.818  1.00  0.00     0.032 C 
HETATM   17  N5  UNL     1      20.888   0.199  53.918  1.00  0.00    -0.241 NA
HETATM   18  C9  UNL     1      21.380  -0.862  54.488  1.00  0.00     0.235 A 
HETATM   19  N4  UNL     1      22.667  -1.046  54.306  1.00  0.00    -0.224 NA
BRANCH  10  20
HETATM   20  C3  UNL     1      25.548   2.977  51.069  1.00  0.00     0.122 C 
BRANCH  20  21
HETATM   21  C2  UNL     1      25.558   3.346  49.626  1.00  0.00     0.015 C 
HETATM   22  C1  UNL     1      26.830   4.106  49.311  1.00  0.00     0.006 C 
ENDBRANCH  20  21
ENDBRANCH  10  20
ENDBRANCH   4   6
ENDBRANCH   1   4
TORSDOF 4
ENDMDL
MODEL 3
REMARK VINA RESULT:      -6.9      2.480      5.130
REMARK  4 active torsions:
REMARK  status: ('A' for Active; 'I' for Inactive)
REMARK    1  A    between atoms: C2_2  and  C3_3 
REMARK    2  A    between atoms: C3_3  and  N1_4 
REMARK    3  A    between atoms: C6_7  and  N2_8 
REMARK    4  A    between atoms: N2_8  and  C7_9 
ROOT
HETATM    1  C7  UNL     1      19.668   1.008  52.029  1.00  0.00     0.245 C 
HETATM    2  C8  UNL     1      19.822   2.437  52.221  1.00  0.00     0.078 C 
HETATM    3  N3  UNL     1      19.929   3.564  52.385  1.00  0.00    -0.196 NA
ENDROOT
BRANCH   1   4
HETATM    4  N2  UNL     1      20.926   0.344  51.789  1.00  0.00    -0.362 N 
HETATM    5  H9  UNL     1      21.029   0.387  50.746  1.00  0.00     0.162 HD
BRANCH   4   6
HETATM    6  C6  UNL     1      21.749  -0.196  52.855  1.00  0.00     0.139 A 
HETATM    7  C5  UNL     1      23.104   0.096  53.094  1.00  0.00     0.053 A 
HETATM    8  C4  UNL     1      23.424   0.925  52.165  1.00  0.00     0.103 C 
HETATM    9  C10 UNL     1      23.658  -0.536  54.128  1.00  0.00     0.071 A 
HETATM   10  N1  UNL     1      24.396   1.754  51.530  1.00  0.00    -0.389 N 
HETATM   11  C15 UNL     1      25.600   1.483  52.133  1.00  0.00     0.124 C 
HETATM   12  C14 UNL     1      26.718   0.688  51.736  1.00  0.00     0.046 C 
HETATM   13  C13 UNL     1      27.582   0.813  53.050  1.00  0.00     0.169 C 
HETATM   14  O1  UNL     1      26.921   0.495  54.112  1.00  0.00    -0.387 OA
HETATM   15  C12 UNL     1      26.230  -0.125  54.948  1.00  0.00     0.197 C 
HETATM   16  C11 UNL     1      24.808  -0.595  54.784  1.00  0.00     0.032 C 
HETATM   17  N5  UNL     1      22.834  -1.362  54.790  1.00  0.00    -0.241 NA
HETATM   18  C9  UNL     1      21.580  -1.653  54.594  1.00  0.00     0.235 A 
HETATM   19  N4  UNL     1      21.020  -1.038  53.579  1.00  0.00    -0.224 NA
BRANCH  10  20
HETATM   20  C3  UNL     1      24.402   2.658  50.439  1.00  0.00     0.122 C 
BRANCH  20  21
HETATM   21  C2  UNL     1      25.289   3.845  50.583  1.00  0.00     0.015 C 
HETATM   22  C1  UNL     1      26.304   3.853  49.458  1.00  0.00     0.006 C 
ENDBRANCH  20  21
ENDBRANCH  10  20
ENDBRANCH   4   6
ENDBRANCH   1   4
TORSDOF 4
ENDMDL
MODEL 4
REMARK VINA RESULT:      -6.9      1.843      4.718
REMARK  4 active torsions:
REMARK  status: ('A' for Active; 'I' for Inactive)
REMARK    1  A    between atoms: C2_2  and  C3_3 
REMARK    2  A    between atoms: C3_3  and  N1_4 
REMARK    3  A    between atoms: C6_7  and  N2_8 
REMARK    4  A    between atoms: N2_8  and  C7_9 
ROOT
HETATM    1  C7  UNL     1      27.585   1.742  53.440  1.00  0.00     0.245 C 
HETATM    2  C8  UNL     1      28.060   0.660  54.281  1.00  0.00     0.078 C 
HETATM    3  N3  UNL     1      28.433  -0.182  54.959  1.00  0.00    -0.196 NA
ENDROOT
BRANCH   1   4
HETATM    4  N2  UNL     1      26.853   1.267  52.291  1.00  0.00    -0.362 N 
HETATM    5  H9  UNL     1      27.007   0.231  52.315  1.00  0.00     0.162 HD
BRANCH   4   6
HETATM    6  C6  UNL     1      26.116   2.151  51.406  1.00  0.00     0.139 A 
HETATM    7  C5  UNL     1      24.719   2.192  51.243  1.00  0.00     0.053 A 
HETATM    8  C4  UNL     1      24.274   1.283  52.037  1.00  0.00     0.103 C 
HETATM    9  C10 UNL     1      24.267   3.079  50.358  1.00  0.00     0.071 A 
HETATM   10  N1  UNL     1      23.179   0.562  52.598  1.00  0.00    -0.389 N 
HETATM   11  C15 UNL     1      22.057   0.947  51.907  1.00  0.00     0.124 C 
HETATM   12  C14 UNL     1      21.311   0.324  50.860  1.00  0.00     0.046 C 
HETATM   13  C13 UNL     1      20.290   1.490  50.564  1.00  0.00     0.169 C 
HETATM   14  O1  UNL     1      20.876   2.619  50.342  1.00  0.00    -0.387 OA
HETATM   15  C12 UNL     1      21.615   3.509  49.869  1.00  0.00     0.197 C 
HETATM   16  C11 UNL     1      23.121   3.539  49.877  1.00  0.00     0.032 C 
HETATM   17  N5  UNL     1      25.219   3.804  49.751  1.00  0.00    -0.241 NA
HETATM   18  C9  UNL     1      26.514   3.789  49.880  1.00  0.00     0.235 A 
HETATM   19  N4  UNL     1      26.975   2.921  50.748  1.00  0.00    -0.224 NA
BRANCH  10  20
HETATM   20  C3  UNL     1      23.026  -0.451  53.576  1.00  0.00     0.122 C 
BRANCH  20  21
HETATM   21  C2  UNL     1      21.814  -0.348  54.436  1.00  0.00     0.015 C 
HETATM   22  C1  UNL     1      21.006  -1.624  54.320  1.00  0.00     0.006 C 
ENDBRANCH  20  21
ENDBRANCH  10  20
ENDBRANCH   4   6
ENDBRANCH   1   4
TORSDOF 4
ENDMDL
MODEL 5
REMARK VINA RESULT:      -6.8      2.465      4.381
REMARK  4 active torsions:
REMARK  status: ('A' for Active; 'I' for Inactive)
REMARK    1  A    between atoms: C2_2  and  C3_3 
REMARK    2  A    between atoms: C3_3  and  N1_4 
REMARK    3  A    between atoms: C6_7  and  N2_8 
REMARK    4  A    between atoms: N2_8  and  C7_9 
ROOT
HETATM    1  C7  UNL     1      26.833   3.586  49.297  1.00  0.00     0.245 C 
HETATM    2  C8  UNL     1      27.444   4.790  48.769  1.00  0.00     0.078 C 
HETATM    3  N3  UNL     1      27.917   5.737  48.334  1.00  0.00    -0.196 NA
ENDROOT
BRANCH   1   4
HETATM    4  N2  UNL     1      26.466   3.717  50.686  1.00  0.00    -0.362 N 
HETATM    5  H9  UNL     1      26.315   4.748  50.802  1.00  0.00     0.162 HD
BRANCH   4   6
HETATM    6  C6  UNL     1      26.365   2.582  51.585  1.00  0.00     0.139 A 
HETATM    7  C5  UNL     1      25.203   1.836  51.861  1.00  0.00     0.053 A 
HETATM    8  C4  UNL     1      24.287   2.393  51.150  1.00  0.00     0.103 C 
HETATM    9  C10 UNL     1      25.349   0.843  52.736  1.00  0.00     0.071 A 
HETATM   10  N1  UNL     1      22.930   2.457  50.716  1.00  0.00    -0.389 N 
HETATM   11  C15 UNL     1      22.228   1.556  51.479  1.00  0.00     0.124 C 
HETATM   12  C14 UNL     1      21.373   1.714  52.612  1.00  0.00     0.046 C 
HETATM   13  C13 UNL     1      21.116   0.191  52.934  1.00  0.00     0.169 C 
HETATM   14  O1  UNL     1      22.210  -0.483  53.053  1.00  0.00    -0.387 OA
HETATM   15  C12 UNL     1      23.339  -0.874  53.420  1.00  0.00     0.197 C 
HETATM   16  C11 UNL     1      24.645  -0.135  53.287  1.00  0.00     0.032 C 
HETATM   17  N5  UNL     1      26.589   0.702  53.227  1.00  0.00    -0.241 NA
HETATM   18  C9  UNL     1      27.680   1.373  52.993  1.00  0.00     0.235 A 
HETATM   19  N4  UNL     1      27.554   2.355  52.132  1.00  0.00    -0.224 NA
BRANCH  10  20
HETATM   20  C3  UNL     1      22.193   3.252  49.804  1.00  0.00     0.122 C 
BRANCH  20  21
HETATM   21  C2  UNL     1      22.783   3.398  48.444  1.00  0.00     0.015 C 
HETATM   22  C1  UNL     1      22.462   2.166  47.623  1.00  0.00     0.006 C 
ENDBRANCH  20  21
ENDBRANCH  10  20
ENDBRANCH   4   6
ENDBRANCH   1   4
TORSDOF 4
ENDMDL
MODEL 6
REMARK VINA RESULT:      -6.6      2.361      5.345
REMARK  4 active torsions:
REMARK  status: ('A' for Active; 'I' for Inactive)
REMARK    1  A    between atoms: C2_2  and  C3_3 
REMARK    2  A    between atoms: C3_3  and  N1_4 
REMARK    3  A    between atoms: C6_7  and  N2_8 
REMARK    4  A    between atoms: N2_8  and  C7_9 
ROOT
HETATM    1  C7  UNL     1      25.989   4.615  49.108  1.00  0.00     0.245 C 
HETATM    2  C8  UNL     1      27.380   4.790  48.741  1.00  0.00     0.078 C 
HETATM    3  N3  UNL     1      28.475   4.947  48.446  1.00  0.00    -0.196 NA
ENDROOT
BRANCH   1   4
HETATM    4  N2  UNL     1      25.823   3.740  50.243  1.00  0.00    -0.362 N 
HETATM    5  H9  UNL     1      26.719   3.858  50.774  1.00  0.00     0.162 HD
BRANCH   4   6
HETATM    6  C6  UNL     1      24.625   2.950  50.461  1.00  0.00     0.139 A 
HETATM    7  C5  UNL     1      24.389   2.070  51.533  1.00  0.00     0.053 A 
HETATM    8  C4  UNL     1      25.460   2.132  52.243  1.00  0.00     0.103 C 
HETATM    9  C10 UNL     1      23.217   1.438  51.514  1.00  0.00     0.071 A 
HETATM   10  N1  UNL     1      26.211   1.720  53.384  1.00  0.00    -0.389 N 
HETATM   11  C15 UNL     1      25.505   0.701  53.974  1.00  0.00     0.124 C 
HETATM   12  C14 UNL     1      25.664  -0.719  53.952  1.00  0.00     0.046 C 
HETATM   13  C13 UNL     1      24.368  -1.119  54.757  1.00  0.00     0.169 C 
HETATM   14  O1  UNL     1      23.296  -0.592  54.268  1.00  0.00    -0.387 OA
HETATM   15  C12 UNL     1      22.380  -0.253  53.489  1.00  0.00     0.197 C 
HETATM   16  C11 UNL     1      22.508   0.592  52.248  1.00  0.00     0.032 C 
HETATM   17  N5  UNL     1      22.432   1.737  50.468  1.00  0.00    -0.241 NA
HETATM   18  C9  UNL     1      22.622   2.543  49.464  1.00  0.00     0.235 A 
HETATM   19  N4  UNL     1      23.772   3.174  49.467  1.00  0.00    -0.224 NA
BRANCH  10  20
HETATM   20  C3  UNL     1      27.471   2.049  53.942  1.00  0.00     0.122 C 
BRANCH  20  21
HETATM   21  C2  UNL     1      28.657   1.457  53.263  1.00  0.00     0.015 C 
HETATM   22  C1  UNL     1      29.233   0.355  54.129  1.00  0.00     0.006 C 
ENDBRANCH  20  21
ENDBRANCH  10  20
ENDBRANCH   4   6
ENDBRANCH   1   4
TORSDOF 4
ENDMDL
MODEL 7
REMARK VINA RESULT:      -6.2      2.251      4.777
REMARK  4 active torsions:
REMARK  status: ('A' for Active; 'I' for Inactive)
REMARK    1  A    between atoms: C2_2  and  C3_3 
REMARK    2  A    between atoms: C3_3  and  N1_4 
REMARK    3  A    between atoms: C6_7  and  N2_8 
REMARK    4  A    between atoms: N2_8  and  C7_9 
ROOT
HETATM    1  C7  UNL     1      24.704   3.618  49.564  1.00  0.00     0.245 C 
HETATM    2  C8  UNL     1      26.134   3.817  49.430  1.00  0.00     0.078 C 
HETATM    3  N3  UNL     1      27.260   3.979  49.305  1.00  0.00    -0.196 NA
ENDROOT
BRANCH   1   4
HETATM    4  N2  UNL     1      24.223   3.945  50.884  1.00  0.00    -0.362 N 
HETATM    5  H9  UNL     1      25.039   4.431  51.327  1.00  0.00     0.162 HD
BRANCH   4   6
HETATM    6  C6  UNL     1      22.885   3.615  51.340  1.00  0.00     0.139 A 
HETATM    7  C5  UNL     1      22.523   2.517  52.142  1.00  0.00     0.053 A 
HETATM    8  C4  UNL     1      23.629   1.898  52.359  1.00  0.00     0.103 C 
HETATM    9  C10 UNL     1      21.226   2.408  52.421  1.00  0.00     0.071 A 
HETATM   10  N1  UNL     1      24.342   0.816  52.956  1.00  0.00    -0.389 N 
HETATM   11  C15 UNL     1      23.401  -0.034  53.482  1.00  0.00     0.124 C 
HETATM   12  C14 UNL     1      22.858  -1.273  53.023  1.00  0.00     0.046 C 
HETATM   13  C13 UNL     1      21.761  -1.484  54.137  1.00  0.00     0.169 C 
HETATM   14  O1  UNL     1      20.986  -0.461  54.270  1.00  0.00    -0.387 OA
HETATM   15  C12 UNL     1      20.185   0.470  54.038  1.00  0.00     0.197 C 
HETATM   16  C11 UNL     1      20.398   1.646  53.121  1.00  0.00     0.032 C 
HETATM   17  N5  UNL     1      20.453   3.369  51.891  1.00  0.00    -0.241 NA
HETATM   18  C9  UNL     1      20.757   4.393  51.147  1.00  0.00     0.235 A 
HETATM   19  N4  UNL     1      22.032   4.515  50.863  1.00  0.00    -0.224 NA
BRANCH  10  20
HETATM   20  C3  UNL     1      25.699   0.416  53.035  1.00  0.00     0.122 C 
BRANCH  20  21
HETATM   21  C2  UNL     1      26.592   0.928  51.960  1.00  0.00     0.015 C 
HETATM   22  C1  UNL     1      27.400   2.095  52.491  1.00  0.00     0.006 C 
ENDBRANCH  20  21
ENDBRANCH  10  20
ENDBRANCH   4   6
ENDBRANCH   1   4
TORSDOF 4
ENDMDL
MODEL 8
REMARK VINA RESULT:      -6.2      2.751      6.746
REMARK  4 active torsions:
REMARK  status: ('A' for Active; 'I' for Inactive)
REMARK    1  A    between atoms: C2_2  and  C3_3 
REMARK    2  A    between atoms: C3_3  and  N1_4 
REMARK    3  A    between atoms: C6_7  and  N2_8 
REMARK    4  A    between atoms: N2_8  and  C7_9 
ROOT
HETATM    1  C7  UNL     1      19.660   1.454  51.423  1.00  0.00     0.245 C 
HETATM    2  C8  UNL     1      19.970   2.674  52.142  1.00  0.00     0.078 C 
HETATM    3  N3  UNL     1      20.202   3.632  52.724  1.00  0.00    -0.196 NA
ENDROOT
BRANCH   1   4
HETATM    4  N2  UNL     1      20.794   0.941  50.693  1.00  0.00    -0.362 N 
HETATM    5  H9  UNL     1      20.629  -0.095  50.684  1.00  0.00     0.162 HD
BRANCH   4   6
HETATM    6  C6  UNL     1      21.834   1.794  50.151  1.00  0.00     0.139 A 
HETATM    7  C5  UNL     1      23.164   1.882  50.605  1.00  0.00     0.053 A 
HETATM    8  C4  UNL     1      23.224   1.053  51.587  1.00  0.00     0.103 C 
HETATM    9  C10 UNL     1      23.938   2.752  49.960  1.00  0.00     0.071 A 
HETATM   10  N1  UNL     1      23.970   0.423  52.627  1.00  0.00    -0.389 N 
HETATM   11  C15 UNL     1      25.186   1.057  52.680  1.00  0.00     0.124 C 
HETATM   12  C14 UNL     1      25.716   2.053  53.557  1.00  0.00     0.046 C 
HETATM   13  C13 UNL     1      27.092   2.308  52.830  1.00  0.00     0.169 C 
HETATM   14  O1  UNL     1      26.950   2.576  51.576  1.00  0.00    -0.387 OA
HETATM   15  C12 UNL     1      26.593   3.100  50.499  1.00  0.00     0.197 C 
HETATM   16  C11 UNL     1      25.194   3.175  49.944  1.00  0.00     0.032 C 
HETATM   17  N5  UNL     1      23.331   3.419  48.968  1.00  0.00    -0.241 NA
HETATM   18  C9  UNL     1      22.107   3.362  48.526  1.00  0.00     0.235 A 
HETATM   19  N4  UNL     1      21.331   2.509  49.151  1.00  0.00    -0.224 NA
BRANCH  10  20
HETATM   20  C3  UNL     1      23.712  -0.575  53.598  1.00  0.00     0.122 C 
BRANCH  20  21
HETATM   21  C2  UNL     1      22.326  -1.121  53.619  1.00  0.00     0.015 C 
HETATM   22  C1  UNL     1      21.526  -0.419  54.697  1.00  0.00     0.006 C 
ENDBRANCH  20  21
ENDBRANCH  10  20
ENDBRANCH   4   6
ENDBRANCH   1   4
TORSDOF 4
ENDMDL
MODEL 9
REMARK VINA RESULT:      -6.2      2.499      5.548
REMARK  4 active torsions:
REMARK  status: ('A' for Active; 'I' for Inactive)
REMARK    1  A    between atoms: C2_2  and  C3_3 
REMARK    2  A    between atoms: C3_3  and  N1_4 
REMARK    3  A    between atoms: C6_7  and  N2_8 
REMARK    4  A    between atoms: N2_8  and  C7_9 
ROOT
HETATM    1  C7  UNL     1      21.605   3.815  50.772  1.00  0.00     0.245 C 
HETATM    2  C8  UNL     1      20.343   4.122  50.126  1.00  0.00     0.078 C 
HETATM    3  N3  UNL     1      19.354   4.383  49.613  1.00  0.00    -0.196 NA
ENDROOT
BRANCH   1   4
HETATM    4  N2  UNL     1      22.010   2.445  50.567  1.00  0.00    -0.362 N 
HETATM    5  H9  UNL     1      22.223   2.405  49.542  1.00  0.00     0.162 HD
BRANCH   4   6
HETATM    6  C6  UNL     1      22.066   1.471  51.642  1.00  0.00     0.139 A 
HETATM    7  C5  UNL     1      23.227   1.008  52.289  1.00  0.00     0.053 A 
HETATM    8  C4  UNL     1      24.190   1.633  51.709  1.00  0.00     0.103 C 
HETATM    9  C10 UNL     1      23.033   0.097  53.240  1.00  0.00     0.071 A 
HETATM   10  N1  UNL     1      25.585   1.900  51.575  1.00  0.00    -0.389 N 
HETATM   11  C15 UNL     1      26.238   1.002  52.382  1.00  0.00     0.124 C 
HETATM   12  C14 UNL     1      26.931  -0.217  52.104  1.00  0.00     0.046 C 
HETATM   13  C13 UNL     1      27.238  -0.663  53.585  1.00  0.00     0.169 C 
HETATM   14  O1  UNL     1      26.182  -0.688  54.326  1.00  0.00    -0.387 OA
HETATM   15  C12 UNL     1      25.042  -0.937  54.774  1.00  0.00     0.197 C 
HETATM   16  C11 UNL     1      23.720  -0.598  54.135  1.00  0.00     0.032 C 
HETATM   17  N5  UNL     1      21.751  -0.246  53.440  1.00  0.00    -0.241 NA
HETATM   18  C9  UNL     1      20.660   0.163  52.860  1.00  0.00     0.235 A 
HETATM   19  N4  UNL     1      20.833   1.062  51.920  1.00  0.00    -0.224 NA
BRANCH  10  20
HETATM   20  C3  UNL     1      26.381   2.763  50.782  1.00  0.00     0.122 C 
BRANCH  20  21
HETATM   21  C2  UNL     1      25.700   3.383  49.612  1.00  0.00     0.015 C 
HETATM   22  C1  UNL     1      25.650   4.886  49.799  1.00  0.00     0.006 C 
ENDBRANCH  20  21
ENDBRANCH  10  20
ENDBRANCH   4   6
ENDBRANCH   1   4
TORSDOF 4
ENDMDL
