MODEL 1
REMARK VINA RESULT:      -8.3      0.000      0.000
REMARK  2 active torsions:
REMARK  status: ('A' for Active; 'I' for Inactive)
REMARK    1  A    between atoms: C3_4  and  C4_5 
REMARK    2  A    between atoms: C7_11  and  C8_12 
ROOT
HETATM    1  C4  UNL     1      23.662   0.816  52.640  1.00  0.00     0.077 A 
HETATM    2  N1  UNL     1      22.478   0.131  52.332  1.00  0.00    -0.259 NA
HETATM    3  C5  UNL     1      21.591   0.864  51.722  1.00  0.00     0.178 A 
HETATM    4  S1  UNL     1      21.762   2.516  51.325  1.00  0.00    -0.091 SA
HETATM    5  C6  UNL     1      23.505   2.213  52.140  1.00  0.00     0.117 A 
HETATM    6  N2  UNL     1      23.891   3.482  51.720  1.00  0.00    -0.239 NA
HETATM    7  C7  UNL     1      23.921   3.626  50.276  1.00  0.00     0.070 C 
HETATM    8  C14 UNL     1      22.845   2.934  49.324  1.00  0.00     0.053 C 
HETATM    9  P1  UNL     1      21.330   2.573  50.390  1.00  0.00     0.017 P 
ENDROOT
BRANCH   7  10
HETATM   10  C8  UNL     1      25.018   4.449  49.686  1.00  0.00    -0.007 A 
HETATM   11  C9  UNL     1      24.989   5.748  49.312  1.00  0.00     0.015 A 
HETATM   12  C10 UNL     1      26.105   6.334  48.778  1.00  0.00     0.020 A 
HETATM   13  C11 UNL     1      27.269   5.649  48.605  1.00  0.00     0.011 A 
HETATM   14 BR1  UNL     1      28.768   6.554  47.853  1.00  0.00    -0.051 Br
HETATM   15  C12 UNL     1      27.261   4.345  48.994  1.00  0.00     0.020 A 
HETATM   16  C13 UNL     1      26.177   3.735  49.524  1.00  0.00     0.015 A 
ENDBRANCH   7  10
BRANCH   1  17
HETATM   17  C3  UNL     1      25.004   0.801  53.245  1.00  0.00     0.087 A 
HETATM   18  C2  UNL     1      25.322  -0.667  53.432  1.00  0.00     0.012 A 
HETATM   19  C1  UNL     1      26.375  -0.834  52.671  1.00  0.00     0.031 A 
HETATM   20 CL1  UNL     1      27.124  -2.427  52.563  1.00  0.00    -0.085 Cl
HETATM   21  C16 UNL     1      26.866   0.327  51.952  1.00  0.00     0.020 A 
HETATM   22  C15 UNL     1      26.037   1.291  52.306  1.00  0.00    -0.010 A 
ENDBRANCH   1  17
TORSDOF 2
ENDMDL
MODEL 2
REMARK VINA RESULT:      -8.2      4.536      7.226
REMARK  2 active torsions:
REMARK  status: ('A' for Active; 'I' for Inactive)
REMARK    1  A    between atoms: C3_4  and  C4_5 
REMARK    2  A    between atoms: C7_11  and  C8_12 
ROOT
HETATM    1  C4  UNL     1      25.783   2.780  51.324  1.00  0.00     0.077 A 
HETATM    2  N1  UNL     1      27.135   2.444  51.483  1.00  0.00    -0.259 NA
HETATM    3  C5  UNL     1      27.400   1.860  52.616  1.00  0.00     0.178 A 
HETATM    4  S1  UNL     1      26.274   1.525  53.855  1.00  0.00    -0.091 SA
HETATM    5  C6  UNL     1      25.069   2.332  52.555  1.00  0.00     0.117 A 
HETATM    6  N2  UNL     1      23.997   1.960  53.360  1.00  0.00    -0.239 NA
HETATM    7  C7  UNL     1      23.853   0.522  53.499  1.00  0.00     0.070 C 
HETATM    8  C14 UNL     1      25.107  -0.457  53.607  1.00  0.00     0.053 C 
HETATM    9  P1  UNL     1      26.566   0.592  54.184  1.00  0.00     0.017 P 
ENDROOT
BRANCH   7  10
HETATM   10  C8  UNL     1      22.469  -0.035  53.528  1.00  0.00    -0.007 A 
HETATM   11  C9  UNL     1      22.005  -1.106  54.210  1.00  0.00     0.015 A 
HETATM   12  C10 UNL     1      20.690  -1.472  54.105  1.00  0.00     0.020 A 
HETATM   13  C11 UNL     1      19.809  -0.786  53.324  1.00  0.00     0.011 A 
HETATM   14 BR1  UNL     1      17.998  -1.373  53.244  1.00  0.00    -0.051 Br
HETATM   15  C12 UNL     1      20.311   0.288  52.654  1.00  0.00     0.020 A 
HETATM   16  C13 UNL     1      21.603   0.675  52.736  1.00  0.00     0.015 A 
ENDBRANCH   7  10
BRANCH   1  17
HETATM   17  C3  UNL     1      24.725   3.386  50.498  1.00  0.00     0.087 A 
HETATM   18  C2  UNL     1      24.284   4.606  51.278  1.00  0.00     0.012 A 
HETATM   19  C1  UNL     1      24.579   5.591  50.466  1.00  0.00     0.031 A 
HETATM   20 CL1  UNL     1      24.237   7.251  50.954  1.00  0.00    -0.085 Cl
HETATM   21  C16 UNL     1      25.178   5.243  49.191  1.00  0.00     0.020 A 
HETATM   22  C15 UNL     1      25.258   3.926  49.228  1.00  0.00    -0.010 A 
ENDBRANCH   1  17
TORSDOF 2
ENDMDL
MODEL 3
REMARK VINA RESULT:      -7.8      3.220      4.000
REMARK  2 active torsions:
REMARK  status: ('A' for Active; 'I' for Inactive)
REMARK    1  A    between atoms: C3_4  and  C4_5 
REMARK    2  A    between atoms: C7_11  and  C8_12 
ROOT
HETATM    1  C4  UNL     1      24.378  -0.220  53.440  1.00  0.00     0.077 A 
HETATM    2  N1  UNL     1      23.751  -1.102  54.332  1.00  0.00    -0.259 NA
HETATM    3  C5  UNL     1      22.495  -0.834  54.539  1.00  0.00     0.178 A 
HETATM    4  S1  UNL     1      21.624   0.465  53.855  1.00  0.00    -0.091 SA
HETATM    5  C6  UNL     1      23.349   0.770  53.005  1.00  0.00     0.117 A 
HETATM    6  N2  UNL     1      22.755   1.745  52.210  1.00  0.00    -0.239 NA
HETATM    7  C7  UNL     1      21.734   1.221  51.322  1.00  0.00     0.070 C 
HETATM    8  C14 UNL     1      20.739   0.053  51.757  1.00  0.00     0.053 C 
HETATM    9  P1  UNL     1      20.707   0.041  53.644  1.00  0.00     0.017 P 
ENDROOT
BRANCH   7  10
HETATM   10  C8  UNL     1      21.641   1.808  49.953  1.00  0.00    -0.007 A 
HETATM   11  C9  UNL     1      20.600   1.773  49.090  1.00  0.00     0.015 A 
HETATM   12  C10 UNL     1      20.706   2.369  47.862  1.00  0.00     0.020 A 
HETATM   13  C11 UNL     1      21.840   3.009  47.465  1.00  0.00     0.011 A 
HETATM   14 BR1  UNL     1      21.889   3.808  45.735  1.00  0.00    -0.051 Br
HETATM   15  C12 UNL     1      22.865   3.025  48.359  1.00  0.00     0.020 A 
HETATM   16  C13 UNL     1      22.795   2.447  49.579  1.00  0.00     0.015 A 
ENDBRANCH   7  10
BRANCH   1  17
HETATM   17  C3  UNL     1      25.599   0.197  52.730  1.00  0.00     0.087 A 
HETATM   18  C2  UNL     1      26.437   0.886  53.784  1.00  0.00     0.012 A 
HETATM   19  C1  UNL     1      27.508   0.134  53.839  1.00  0.00     0.031 A 
HETATM   20 CL1  UNL     1      28.807   0.552  54.957  1.00  0.00    -0.085 Cl
HETATM   21  C16 UNL     1      27.558  -1.017  52.957  1.00  0.00     0.020 A 
HETATM   22  C15 UNL     1      26.411  -0.964  52.304  1.00  0.00    -0.010 A 
ENDBRANCH   1  17
TORSDOF 2
ENDMDL
MODEL 4
REMARK VINA RESULT:      -7.8      1.489      1.798
REMARK  2 active torsions:
REMARK  status: ('A' for Active; 'I' for Inactive)
REMARK    1  A    between atoms: C3_4  and  C4_5 
REMARK    2  A    between atoms: C7_11  and  C8_12 
ROOT
HETATM    1  C4  UNL     1      24.527   1.746  51.704  1.00  0.00     0.077 A 
HETATM    2  N1  UNL     1      23.252   1.218  51.457  1.00  0.00    -0.259 NA
HETATM    3  C5  UNL     1      22.401   2.093  51.003  1.00  0.00     0.178 A 
HETATM    4  S1  UNL     1      22.718   3.749  50.735  1.00  0.00    -0.091 SA
HETATM    5  C6  UNL     1      24.482   3.194  51.344  1.00  0.00     0.117 A 
HETATM    6  N2  UNL     1      24.968   4.451  50.998  1.00  0.00    -0.239 NA
HETATM    7  C7  UNL     1      24.884   4.729  49.576  1.00  0.00     0.070 C 
HETATM    8  C14 UNL     1      23.658   4.245  48.679  1.00  0.00     0.053 C 
HETATM    9  P1  UNL     1      22.213   3.940  49.855  1.00  0.00     0.017 P 
ENDROOT
BRANCH   7  10
HETATM   10  C8  UNL     1      26.008   5.489  48.954  1.00  0.00    -0.007 A 
HETATM   11  C9  UNL     1      25.995   6.735  48.431  1.00  0.00     0.015 A 
HETATM   12  C10 UNL     1      27.137   7.267  47.892  1.00  0.00     0.020 A 
HETATM   13  C11 UNL     1      28.310   6.576  47.861  1.00  0.00     0.011 A 
HETATM   14 BR1  UNL     1      29.844   7.403  47.090  1.00  0.00    -0.051 Br
HETATM   15  C12 UNL     1      28.286   5.326  48.397  1.00  0.00     0.020 A 
HETATM   16  C13 UNL     1      27.177   4.771  48.937  1.00  0.00     0.015 A 
ENDBRANCH   7  10
BRANCH   1  17
HETATM   17  C3  UNL     1      25.908   1.536  52.169  1.00  0.00     0.087 A 
HETATM   18  C2  UNL     1      25.804   1.514  53.679  1.00  0.00     0.012 A 
HETATM   19  C1  UNL     1      26.210   0.306  53.980  1.00  0.00     0.031 A 
HETATM   20 CL1  UNL     1      26.264  -0.198  55.669  1.00  0.00    -0.085 Cl
HETATM   21  C16 UNL     1      26.600  -0.557  52.880  1.00  0.00     0.020 A 
HETATM   22  C15 UNL     1      26.413   0.193  51.809  1.00  0.00    -0.010 A 
ENDBRANCH   1  17
TORSDOF 2
ENDMDL
MODEL 5
REMARK VINA RESULT:      -7.7      3.568      5.272
REMARK  2 active torsions:
REMARK  status: ('A' for Active; 'I' for Inactive)
REMARK    1  A    between atoms: C3_4  and  C4_5 
REMARK    2  A    between atoms: C7_11  and  C8_12 
ROOT
HETATM    1  C4  UNL     1      21.980   3.070  51.587  1.00  0.00     0.077 A 
HETATM    2  N1  UNL     1      21.649   3.853  50.472  1.00  0.00    -0.259 NA
HETATM    3  C5  UNL     1      22.593   4.671  50.107  1.00  0.00     0.178 A 
HETATM    4  S1  UNL     1      24.106   4.859  50.875  1.00  0.00    -0.091 SA
HETATM    5  C6  UNL     1      23.364   3.450  51.997  1.00  0.00     0.117 A 
HETATM    6  N2  UNL     1      24.604   3.327  52.615  1.00  0.00    -0.239 NA
HETATM    7  C7  UNL     1      25.654   2.886  51.716  1.00  0.00     0.070 C 
HETATM    8  C14 UNL     1      25.739   3.366  50.197  1.00  0.00     0.053 C 
HETATM    9  P1  UNL     1      24.754   4.972  50.081  1.00  0.00     0.017 P 
ENDROOT
BRANCH   7  10
HETATM   10  C8  UNL     1      26.674   1.940  52.256  1.00  0.00    -0.007 A 
HETATM   11  C9  UNL     1      27.793   2.219  52.961  1.00  0.00     0.015 A 
HETATM   12  C10 UNL     1      28.619   1.205  53.369  1.00  0.00     0.020 A 
HETATM   13  C11 UNL     1      28.354  -0.100  53.088  1.00  0.00     0.011 A 
HETATM   14 BR1  UNL     1      29.566  -1.438  53.700  1.00  0.00    -0.051 Br
HETATM   15  C12 UNL     1      27.219  -0.343  52.377  1.00  0.00     0.020 A 
HETATM   16  C13 UNL     1      26.382   0.633  51.959  1.00  0.00     0.015 A 
ENDBRANCH   7  10
BRANCH   1  17
HETATM   17  C3  UNL     1      21.588   2.040  52.563  1.00  0.00     0.087 A 
HETATM   18  C2  UNL     1      20.119   1.797  52.293  1.00  0.00     0.012 A 
HETATM   19  C1  UNL     1      20.094   0.538  51.933  1.00  0.00     0.031 A 
HETATM   20 CL1  UNL     1      18.557  -0.215  51.510  1.00  0.00    -0.085 Cl
HETATM   21  C16 UNL     1      21.361  -0.169  51.907  1.00  0.00     0.020 A 
HETATM   22  C15 UNL     1      22.239   0.741  52.284  1.00  0.00    -0.010 A 
ENDBRANCH   1  17
TORSDOF 2
ENDMDL
MODEL 6
REMARK VINA RESULT:      -7.5      4.287      6.700
REMARK  2 active torsions:
REMARK  status: ('A' for Active; 'I' for Inactive)
REMARK    1  A    between atoms: C3_4  and  C4_5 
REMARK    2  A    between atoms: C7_11  and  C8_12 
ROOT
HETATM    1  C4  UNL     1      24.385   1.561  52.489  1.00  0.00     0.077 A 
HETATM    2  N1  UNL     1      24.743   2.907  52.649  1.00  0.00    -0.259 NA
HETATM    3  C5  UNL     1      23.897   3.742  52.120  1.00  0.00     0.178 A 
HETATM    4  S1  UNL     1      22.477   3.321  51.269  1.00  0.00    -0.091 SA
HETATM    5  C6  UNL     1      23.095   1.535  51.738  1.00  0.00     0.117 A 
HETATM    6  N2  UNL     1      21.894   1.023  51.258  1.00  0.00    -0.239 NA
HETATM    7  C7  UNL     1      20.736   1.473  52.009  1.00  0.00     0.070 C 
HETATM    8  C14 UNL     1      20.616   2.952  52.593  1.00  0.00     0.053 C 
HETATM    9  P1  UNL     1      21.799   4.029  51.591  1.00  0.00     0.017 P 
ENDROOT
BRANCH   7  10
HETATM   10  C8  UNL     1      19.635   0.491  52.237  1.00  0.00    -0.007 A 
HETATM   11  C9  UNL     1      19.505  -0.412  53.235  1.00  0.00     0.015 A 
HETATM   12  C10 UNL     1      18.417  -1.242  53.273  1.00  0.00     0.020 A 
HETATM   13  C11 UNL     1      17.438  -1.195  52.327  1.00  0.00     0.011 A 
HETATM   14 BR1  UNL     1      15.962  -2.392  52.468  1.00  0.00    -0.051 Br
HETATM   15  C12 UNL     1      17.602  -0.273  51.339  1.00  0.00     0.020 A 
HETATM   16  C13 UNL     1      18.664   0.561  51.271  1.00  0.00     0.015 A 
ENDBRANCH   7  10
BRANCH   1  17
HETATM   17  C3  UNL     1      24.698   0.139  52.712  1.00  0.00     0.087 A 
HETATM   18  C2  UNL     1      26.164   0.011  52.360  1.00  0.00     0.012 A 
HETATM   19  C1  UNL     1      26.702  -0.365  53.493  1.00  0.00     0.031 A 
HETATM   20 CL1  UNL     1      28.440  -0.649  53.578  1.00  0.00    -0.085 Cl
HETATM   21  C16 UNL     1      25.813  -0.529  54.628  1.00  0.00     0.020 A 
HETATM   22  C15 UNL     1      24.623  -0.223  54.144  1.00  0.00    -0.010 A 
ENDBRANCH   1  17
TORSDOF 2
ENDMDL
MODEL 7
REMARK VINA RESULT:      -7.0      7.274      9.848
REMARK  2 active torsions:
REMARK  status: ('A' for Active; 'I' for Inactive)
REMARK    1  A    between atoms: C3_4  and  C4_5 
REMARK    2  A    between atoms: C7_11  and  C8_12 
ROOT
HETATM    1  C4  UNL     1      29.916   7.311  48.288  1.00  0.00     0.077 A 
HETATM    2  N1  UNL     1      30.350   8.255  49.230  1.00  0.00    -0.259 NA
HETATM    3  C5  UNL     1      31.639   8.258  49.413  1.00  0.00     0.178 A 
HETATM    4  S1  UNL     1      32.760   7.224  48.645  1.00  0.00    -0.091 SA
HETATM    5  C6  UNL     1      31.127   6.599  47.786  1.00  0.00     0.117 A 
HETATM    6  N2  UNL     1      31.906   5.827  46.930  1.00  0.00    -0.239 NA
HETATM    7  C7  UNL     1      32.771   6.615  46.071  1.00  0.00     0.070 C 
HETATM    8  C14 UNL     1      33.494   7.945  46.572  1.00  0.00     0.053 C 
HETATM    9  P1  UNL     1      33.557   7.851  48.456  1.00  0.00     0.017 P 
ENDROOT
BRANCH   7  10
HETATM   10  C8  UNL     1      32.965   6.145  44.667  1.00  0.00    -0.007 A 
HETATM   11  C9  UNL     1      32.484   6.684  43.524  1.00  0.00     0.015 A 
HETATM   12  C10 UNL     1      32.766   6.102  42.318  1.00  0.00     0.020 A 
HETATM   13  C11 UNL     1      33.527   4.977  42.219  1.00  0.00     0.011 A 
HETATM   14 BR1  UNL     1      33.864   4.242  40.494  1.00  0.00    -0.051 Br
HETATM   15  C12 UNL     1      33.995   4.464  43.389  1.00  0.00     0.020 A 
HETATM   16  C13 UNL     1      33.736   5.013  44.597  1.00  0.00     0.015 A 
ENDBRANCH   7  10
BRANCH   1  17
HETATM   17  C3  UNL     1      28.803   6.680  47.560  1.00  0.00     0.087 A 
HETATM   18  C2  UNL     1      28.669   5.307  48.182  1.00  0.00     0.012 A 
HETATM   19  C1  UNL     1      27.463   5.334  48.690  1.00  0.00     0.031 A 
HETATM   20 CL1  UNL     1      26.845   3.917  49.538  1.00  0.00    -0.085 Cl
HETATM   21  C16 UNL     1      26.697   6.554  48.517  1.00  0.00     0.020 A 
HETATM   22  C15 UNL     1      27.511   7.345  47.842  1.00  0.00    -0.010 A 
ENDBRANCH   1  17
TORSDOF 2
ENDMDL
MODEL 8
REMARK VINA RESULT:      -6.7      3.661      5.408
REMARK  2 active torsions:
REMARK  status: ('A' for Active; 'I' for Inactive)
REMARK    1  A    between atoms: C3_4  and  C4_5 
REMARK    2  A    between atoms: C7_11  and  C8_12 
ROOT
HETATM    1  C4  UNL     1      19.946   0.538  52.192  1.00  0.00     0.077 A 
HETATM    2  N1  UNL     1      19.834  -0.052  53.459  1.00  0.00    -0.259 NA
HETATM    3  C5  UNL     1      20.938  -0.592  53.887  1.00  0.00     0.178 A 
HETATM    4  S1  UNL     1      22.418  -0.646  53.037  1.00  0.00    -0.091 SA
HETATM    5  C6  UNL     1      21.356   0.347  51.741  1.00  0.00     0.117 A 
HETATM    6  N2  UNL     1      22.514   0.571  51.004  1.00  0.00    -0.239 NA
HETATM    7  C7  UNL     1      23.500   1.370  51.709  1.00  0.00     0.070 C 
HETATM    8  C14 UNL     1      23.754   1.228  53.277  1.00  0.00     0.053 C 
HETATM    9  P1  UNL     1      23.115  -0.475  53.778  1.00  0.00     0.017 P 
ENDROOT
BRANCH   7  10
HETATM   10  C8  UNL     1      24.283   2.361  50.914  1.00  0.00    -0.007 A 
HETATM   11  C9  UNL     1      23.842   3.216  49.963  1.00  0.00     0.015 A 
HETATM   12  C10 UNL     1      24.722   4.054  49.332  1.00  0.00     0.020 A 
HETATM   13  C11 UNL     1      26.051   4.063  49.628  1.00  0.00     0.011 A 
HETATM   14 BR1  UNL     1      27.194   5.268  48.694  1.00  0.00    -0.051 Br
HETATM   15  C12 UNL     1      26.458   3.191  50.590  1.00  0.00     0.020 A 
HETATM   16  C13 UNL     1      25.617   2.350  51.233  1.00  0.00     0.015 A 
ENDBRANCH   7  10
BRANCH   1  17
HETATM   17  C3  UNL     1      19.309   1.261  51.079  1.00  0.00     0.087 A 
HETATM   18  C2  UNL     1      17.935   0.640  50.957  1.00  0.00     0.012 A 
HETATM   19  C1  UNL     1      17.138   1.648  51.210  1.00  0.00     0.031 A 
HETATM   20 CL1  UNL     1      15.391   1.404  51.183  1.00  0.00    -0.085 Cl
HETATM   21  C16 UNL     1      17.758   2.928  51.499  1.00  0.00     0.020 A 
HETATM   22  C15 UNL     1      19.052   2.678  51.418  1.00  0.00    -0.010 A 
ENDBRANCH   1  17
TORSDOF 2
ENDMDL
MODEL 9
REMARK VINA RESULT:      -6.7      3.819      5.826
REMARK  2 active torsions:
REMARK  status: ('A' for Active; 'I' for Inactive)
REMARK    1  A    between atoms: C3_4  and  C4_5 
REMARK    2  A    between atoms: C7_11  and  C8_12 
ROOT
HETATM    1  C4  UNL     1      19.701   3.589  51.144  1.00  0.00     0.077 A 
HETATM    2  N1  UNL     1      19.471   4.536  50.136  1.00  0.00    -0.259 NA
HETATM    3  C5  UNL     1      20.475   5.338  49.930  1.00  0.00     0.178 A 
HETATM    4  S1  UNL     1      21.955   5.326  50.783  1.00  0.00    -0.091 SA
HETATM    5  C6  UNL     1      21.080   3.824  51.663  1.00  0.00     0.117 A 
HETATM    6  N2  UNL     1      22.278   3.542  52.312  1.00  0.00    -0.239 NA
HETATM    7  C7  UNL     1      23.349   3.166  51.407  1.00  0.00     0.070 C 
HETATM    8  C14 UNL     1      23.537   3.844  49.975  1.00  0.00     0.053 C 
HETATM    9  P1  UNL     1      22.648   5.507  50.042  1.00  0.00     0.017 P 
ENDROOT
BRANCH   7  10
HETATM   10  C8  UNL     1      24.287   2.095  51.853  1.00  0.00    -0.007 A 
HETATM   11  C9  UNL     1      24.030   1.022  52.635  1.00  0.00     0.015 A 
HETATM   12  C10 UNL     1      25.032   0.142  52.945  1.00  0.00     0.020 A 
HETATM   13  C11 UNL     1      26.304   0.305  52.488  1.00  0.00     0.011 A 
HETATM   14 BR1  UNL     1      27.630  -0.975  52.974  1.00  0.00    -0.051 Br
HETATM   15  C12 UNL     1      26.525   1.394  51.702  1.00  0.00     0.020 A 
HETATM   16  C13 UNL     1      25.559   2.283  51.377  1.00  0.00     0.015 A 
ENDBRANCH   7  10
BRANCH   1  17
HETATM   17  C3  UNL     1      19.204   2.460  51.948  1.00  0.00     0.087 A 
HETATM   18  C2  UNL     1      17.962   1.991  51.223  1.00  0.00     0.012 A 
HETATM   19  C1  UNL     1      18.271   0.766  50.881  1.00  0.00     0.031 A 
HETATM   20 CL1  UNL     1      17.102  -0.209  49.990  1.00  0.00    -0.085 Cl
HETATM   21  C16 UNL     1      19.583   0.280  51.267  1.00  0.00     0.020 A 
HETATM   22  C15 UNL     1      20.125   1.303  51.901  1.00  0.00    -0.010 A 
ENDBRANCH   1  17
TORSDOF 2
ENDMDL
