MODEL 1
REMARK VINA RESULT:      -8.3      0.000      0.000
REMARK  3 active torsions:
REMARK  status: ('A' for Active; 'I' for Inactive)
REMARK    1  A    between atoms: O1_2  and  C2_3 
REMARK    2  A    between atoms: C3_4  and  N1_5 
REMARK    3  A    between atoms: C9_11  and  S1_12 
ROOT
HETATM    1  C2  UNL     1      21.279   2.186  50.737  1.00  0.00     0.187 C 
HETATM    2  C3  UNL     1      21.609   3.253  51.681  1.00  0.00     0.214 C 
HETATM    3  C4  UNL     1      22.812   3.290  52.469  1.00  0.00     0.085 C 
HETATM    4  C5  UNL     1      23.773   2.196  52.553  1.00  0.00    -0.055 C 
HETATM    5  C6  UNL     1      24.877   2.787  53.123  1.00  0.00     0.007 C 
HETATM    6  C7  UNL     1      25.988   2.268  53.982  1.00  0.00    -0.002 C 
HETATM    7  C8  UNL     1      26.215   0.934  54.072  1.00  0.00    -0.007 C 
HETATM    8  C9  UNL     1      25.404  -0.318  53.816  1.00  0.00     0.097 C 
HETATM    9  C10 UNL     1      24.023  -0.034  53.423  1.00  0.00    -0.045 C 
HETATM   10  C11 UNL     1      24.087   0.743  52.303  1.00  0.00     0.013 C 
HETATM   11  C12 UNL     1      22.772  -0.487  54.179  1.00  0.00     0.158 C 
HETATM   12  N2  UNL     1      21.745   0.538  53.864  1.00  0.00    -0.356 N 
HETATM   13  C13 UNL     1      21.412   0.540  52.504  1.00  0.00     0.236 C 
HETATM   14  O2  UNL     1      21.755  -0.163  51.521  1.00  0.00    -0.272 OA
HETATM   15  C14 UNL     1      20.489   1.475  51.828  1.00  0.00     0.128 C 
HETATM   16  C15 UNL     1      19.141   1.051  51.525  1.00  0.00    -0.002 A 
HETATM   17  C16 UNL     1      18.536  -0.135  51.172  1.00  0.00     0.011 A 
HETATM   18  C17 UNL     1      17.192  -0.211  50.944  1.00  0.00     0.001 A 
HETATM   19  C18 UNL     1      16.430   0.938  51.075  1.00  0.00     0.003 A 
HETATM   20  C19 UNL     1      17.004   2.146  51.428  1.00  0.00     0.037 A 
HETATM   21  C20 UNL     1      18.382   2.221  51.660  1.00  0.00     0.077 A 
HETATM   22  O3  UNL     1      19.196   3.310  52.026  1.00  0.00    -0.341 OA
HETATM   23  C21 UNL     1      20.415   2.807  52.541  1.00  0.00     0.195 C 
HETATM   24  H17 UNL     1      21.298   1.186  54.511  1.00  0.00     0.162 HD
ENDROOT
BRANCH   2  25
HETATM   25  N1  UNL     1      21.246   4.587  51.121  1.00  0.00     0.093 N 
HETATM   26  H5  UNL     1      21.870   5.326  51.505  1.00  0.00     0.314 HD
HETATM   27  H6  UNL     1      21.467   4.512  50.098  1.00  0.00     0.314 HD
ENDBRANCH   2  25
BRANCH   1  28
HETATM   28  O1  UNL     1      20.396   2.579  49.728  1.00  0.00    -0.386 OA
HETATM   29  C1  UNL     1      20.861   2.027  48.529  1.00  0.00     0.202 C 
ENDBRANCH   1  28
BRANCH   8  30
HETATM   30  S1  UNL     1      26.209  -1.287  52.517  1.00  0.00    -0.169 SA
HETATM   31  H13 UNL     1      27.368  -0.684  52.034  1.00  0.00     0.102 HD
ENDBRANCH   8  30
TORSDOF 3
ENDMDL
MODEL 2
REMARK VINA RESULT:      -8.2      8.704     11.134
REMARK  3 active torsions:
REMARK  status: ('A' for Active; 'I' for Inactive)
REMARK    1  A    between atoms: O1_2  and  C2_3 
REMARK    2  A    between atoms: C3_4  and  N1_5 
REMARK    3  A    between atoms: C9_11  and  S1_12 
ROOT
HETATM    1  C2  UNL     1      28.400   8.528  47.165  1.00  0.00     0.187 C 
HETATM    2  C3  UNL     1      29.263   7.584  47.873  1.00  0.00     0.214 C 
HETATM    3  C4  UNL     1      28.813   6.327  48.410  1.00  0.00     0.085 C 
HETATM    4  C5  UNL     1      27.418   5.910  48.466  1.00  0.00    -0.055 C 
HETATM    5  C6  UNL     1      27.500   4.562  48.732  1.00  0.00     0.007 C 
HETATM    6  C7  UNL     1      26.594   3.600  49.434  1.00  0.00    -0.002 C 
HETATM    7  C8  UNL     1      25.298   3.927  49.666  1.00  0.00    -0.007 C 
HETATM    8  C9  UNL     1      24.507   5.216  49.742  1.00  0.00     0.097 C 
HETATM    9  C10 UNL     1      25.341   6.408  49.577  1.00  0.00    -0.045 C 
HETATM   10  C11 UNL     1      25.962   6.287  48.367  1.00  0.00     0.013 C 
HETATM   11  C12 UNL     1      25.508   7.526  50.608  1.00  0.00     0.158 C 
HETATM   12  N2  UNL     1      26.861   8.083  50.350  1.00  0.00    -0.356 N 
HETATM   13  C13 UNL     1      26.942   8.686  49.089  1.00  0.00     0.236 C 
HETATM   14  O2  UNL     1      26.115   8.896  48.167  1.00  0.00    -0.272 OA
HETATM   15  C14 UNL     1      28.151   9.270  48.472  1.00  0.00     0.128 C 
HETATM   16  C15 UNL     1      28.337  10.703  48.487  1.00  0.00    -0.002 A 
HETATM   17  C16 UNL     1      27.513  11.805  48.422  1.00  0.00     0.011 A 
HETATM   18  C17 UNL     1      28.014  13.074  48.460  1.00  0.00     0.001 A 
HETATM   19  C18 UNL     1      29.385  13.245  48.569  1.00  0.00     0.003 A 
HETATM   20  C19 UNL     1      30.242  12.161  48.637  1.00  0.00     0.037 A 
HETATM   21  C20 UNL     1      29.725  10.862  48.597  1.00  0.00     0.077 A 
HETATM   22  O3  UNL     1      30.372   9.612  48.649  1.00  0.00    -0.341 OA
HETATM   23  C21 UNL     1      29.416   8.625  48.994  1.00  0.00     0.195 C 
HETATM   24  H17 UNL     1      27.668   8.063  50.971  1.00  0.00     0.162 HD
ENDROOT
BRANCH   2  25
HETATM   25  N1  UNL     1      30.595   7.483  47.209  1.00  0.00     0.093 N 
HETATM   26  H5  UNL     1      30.516   7.707  46.196  1.00  0.00     0.314 HD
HETATM   27  H6  UNL     1      31.163   8.252  47.641  1.00  0.00     0.314 HD
ENDBRANCH   2  25
BRANCH   1  28
HETATM   28  O1  UNL     1      29.088   9.376  46.293  1.00  0.00    -0.386 OA
HETATM   29  C1  UNL     1      28.404   9.362  45.072  1.00  0.00     0.202 C 
ENDBRANCH   1  28
BRANCH   8  30
HETATM   30  S1  UNL     1      23.227   5.200  48.465  1.00  0.00    -0.169 SA
HETATM   31  H13 UNL     1      23.736   4.947  47.193  1.00  0.00     0.102 HD
ENDBRANCH   8  30
TORSDOF 3
ENDMDL
MODEL 3
REMARK VINA RESULT:      -8.0     10.187     13.340
REMARK  3 active torsions:
REMARK  status: ('A' for Active; 'I' for Inactive)
REMARK    1  A    between atoms: O1_2  and  C2_3 
REMARK    2  A    between atoms: C3_4  and  N1_5 
REMARK    3  A    between atoms: C9_11  and  S1_12 
ROOT
HETATM    1  C2  UNL     1      31.540   6.416  46.841  1.00  0.00     0.187 C 
HETATM    2  C3  UNL     1      30.942   5.430  47.739  1.00  0.00     0.214 C 
HETATM    3  C4  UNL     1      29.565   5.450  48.158  1.00  0.00     0.085 C 
HETATM    4  C5  UNL     1      28.638   6.540  47.879  1.00  0.00    -0.055 C 
HETATM    5  C6  UNL     1      27.408   5.991  48.163  1.00  0.00     0.007 C 
HETATM    6  C7  UNL     1      26.110   6.571  48.630  1.00  0.00    -0.002 C 
HETATM    7  C8  UNL     1      25.889   7.907  48.544  1.00  0.00    -0.007 C 
HETATM    8  C9  UNL     1      26.760   9.140  48.423  1.00  0.00     0.097 C 
HETATM    9  C10 UNL     1      28.191   8.833  48.458  1.00  0.00    -0.045 C 
HETATM   10  C11 UNL     1      28.430   7.964  47.433  1.00  0.00     0.013 C 
HETATM   11  C12 UNL     1      29.187   9.357  49.494  1.00  0.00     0.158 C 
HETATM   12  N2  UNL     1      30.244   8.316  49.566  1.00  0.00    -0.356 N 
HETATM   13  C13 UNL     1      30.945   8.203  48.359  1.00  0.00     0.236 C 
HETATM   14  O2  UNL     1      30.903   8.819  47.265  1.00  0.00    -0.272 OA
HETATM   15  C14 UNL     1      32.005   7.222  48.047  1.00  0.00     0.128 C 
HETATM   16  C15 UNL     1      33.391   7.628  48.101  1.00  0.00    -0.002 A 
HETATM   17  C16 UNL     1      34.089   8.785  47.835  1.00  0.00     0.011 A 
HETATM   18  C17 UNL     1      35.445   8.851  47.988  1.00  0.00     0.001 A 
HETATM   19  C18 UNL     1      36.121   7.722  48.421  1.00  0.00     0.003 A 
HETATM   20  C19 UNL     1      35.450   6.544  48.697  1.00  0.00     0.037 A 
HETATM   21  C20 UNL     1      34.062   6.479  48.539  1.00  0.00     0.077 A 
HETATM   22  O3  UNL     1      33.160   5.418  48.750  1.00  0.00    -0.341 OA
HETATM   23  C21 UNL     1      31.854   5.954  48.860  1.00  0.00     0.195 C 
HETATM   24  H17 UNL     1      30.481   7.727  50.363  1.00  0.00     0.162 HD
ENDROOT
BRANCH   2  25
HETATM   25  N1  UNL     1      31.424   4.056  47.414  1.00  0.00     0.093 N 
HETATM   26  H5  UNL     1      32.225   3.796  48.026  1.00  0.00     0.314 HD
HETATM   27  H6  UNL     1      30.628   3.428  47.681  1.00  0.00     0.314 HD
ENDBRANCH   2  25
BRANCH   1  28
HETATM   28  O1  UNL     1      32.663   5.946  46.156  1.00  0.00    -0.386 OA
HETATM   29  C1  UNL     1      32.575   6.415  44.840  1.00  0.00     0.202 C 
ENDBRANCH   1  28
BRANCH   8  30
HETATM   30  S1  UNL     1      26.368   9.991  46.876  1.00  0.00    -0.169 SA
HETATM   31  H13 UNL     1      25.276   9.432  46.214  1.00  0.00     0.102 HD
ENDBRANCH   8  30
TORSDOF 3
ENDMDL
MODEL 4
REMARK VINA RESULT:      -7.7      9.901     12.760
REMARK  3 active torsions:
REMARK  status: ('A' for Active; 'I' for Inactive)
REMARK    1  A    between atoms: O1_2  and  C2_3 
REMARK    2  A    between atoms: C3_4  and  N1_5 
REMARK    3  A    between atoms: C9_11  and  S1_12 
ROOT
HETATM    1  C2  UNL     1      30.564   7.318  46.532  1.00  0.00     0.187 C 
HETATM    2  C3  UNL     1      30.746   6.238  47.500  1.00  0.00     0.214 C 
HETATM    3  C4  UNL     1      29.667   5.588  48.196  1.00  0.00     0.085 C 
HETATM    4  C5  UNL     1      28.278   6.029  48.153  1.00  0.00    -0.055 C 
HETATM    5  C6  UNL     1      27.588   4.955  48.667  1.00  0.00     0.007 C 
HETATM    6  C7  UNL     1      26.297   4.829  49.413  1.00  0.00    -0.002 C 
HETATM    7  C8  UNL     1      25.409   5.855  49.420  1.00  0.00    -0.007 C 
HETATM    8  C9  UNL     1      25.481   7.345  49.163  1.00  0.00     0.097 C 
HETATM    9  C10 UNL     1      26.840   7.813  48.890  1.00  0.00    -0.045 C 
HETATM   10  C11 UNL     1      27.286   7.110  47.809  1.00  0.00     0.013 C 
HETATM   11  C12 UNL     1      27.606   8.849  49.715  1.00  0.00     0.158 C 
HETATM   12  N2  UNL     1      29.038   8.501  49.530  1.00  0.00    -0.356 N 
HETATM   13  C13 UNL     1      29.446   8.666  48.200  1.00  0.00     0.236 C 
HETATM   14  O2  UNL     1      28.881   9.087  47.160  1.00  0.00    -0.272 OA
HETATM   15  C14 UNL     1      30.774   8.339  47.642  1.00  0.00     0.128 C 
HETATM   16  C15 UNL     1      31.734   9.397  47.421  1.00  0.00    -0.002 A 
HETATM   17  C16 UNL     1      31.672  10.724  47.056  1.00  0.00     0.011 A 
HETATM   18  C17 UNL     1      32.801  11.481  46.926  1.00  0.00     0.001 A 
HETATM   19  C18 UNL     1      34.030  10.891  47.171  1.00  0.00     0.003 A 
HETATM   20  C19 UNL     1      34.129   9.561  47.540  1.00  0.00     0.037 A 
HETATM   21  C20 UNL     1      32.971   8.787  47.671  1.00  0.00     0.077 A 
HETATM   22  O3  UNL     1      32.803   7.435  48.028  1.00  0.00    -0.341 OA
HETATM   23  C21 UNL     1      31.458   7.239  48.425  1.00  0.00     0.195 C 
HETATM   24  H17 UNL     1      29.694   8.178  50.240  1.00  0.00     0.162 HD
ENDROOT
BRANCH   2  25
HETATM   25  N1  UNL     1      31.791   5.280  47.036  1.00  0.00     0.093 N 
HETATM   26  H5  UNL     1      32.742   5.668  47.202  1.00  0.00     0.314 HD
HETATM   27  H6  UNL     1      31.691   4.453  47.672  1.00  0.00     0.314 HD
ENDBRANCH   2  25
BRANCH   1  28
HETATM   28  O1  UNL     1      31.610   7.433  45.613  1.00  0.00    -0.386 OA
HETATM   29  C1  UNL     1      31.071   7.955  44.432  1.00  0.00     0.202 C 
ENDBRANCH   1  28
BRANCH   8  30
HETATM   30  S1  UNL     1      24.414   7.754  47.762  1.00  0.00    -0.169 SA
HETATM   31  H13 UNL     1      23.170   8.247  48.154  1.00  0.00     0.102 HD
ENDBRANCH   8  30
TORSDOF 3
ENDMDL
MODEL 5
REMARK VINA RESULT:      -7.6      4.359      7.030
REMARK  3 active torsions:
REMARK  status: ('A' for Active; 'I' for Inactive)
REMARK    1  A    between atoms: O1_2  and  C2_3 
REMARK    2  A    between atoms: C3_4  and  N1_5 
REMARK    3  A    between atoms: C9_11  and  S1_12 
ROOT
HETATM    1  C2  UNL     1      22.952   3.551  50.468  1.00  0.00     0.187 C 
HETATM    2  C3  UNL     1      22.318   4.487  51.395  1.00  0.00     0.214 C 
HETATM    3  C4  UNL     1      22.057   5.869  51.092  1.00  0.00     0.085 C 
HETATM    4  C5  UNL     1      22.537   6.554  49.898  1.00  0.00    -0.055 C 
HETATM    5  C6  UNL     1      21.790   7.709  49.872  1.00  0.00     0.007 C 
HETATM    6  C7  UNL     1      22.044   9.082  49.332  1.00  0.00    -0.002 C 
HETATM    7  C8  UNL     1      23.050   9.292  48.446  1.00  0.00    -0.007 C 
HETATM    8  C9  UNL     1      24.319   8.562  48.062  1.00  0.00     0.097 C 
HETATM    9  C10 UNL     1      24.556   7.364  48.870  1.00  0.00    -0.045 C 
HETATM   10  C11 UNL     1      23.465   6.562  48.710  1.00  0.00     0.013 C 
HETATM   11  C12 UNL     1      25.778   7.120  49.758  1.00  0.00     0.158 C 
HETATM   12  N2  UNL     1      25.292   6.217  50.833  1.00  0.00    -0.356 N 
HETATM   13  C13 UNL     1      24.908   4.968  50.328  1.00  0.00     0.236 C 
HETATM   14  O2  UNL     1      24.933   4.443  49.187  1.00  0.00    -0.272 OA
HETATM   15  C14 UNL     1      24.306   3.859  51.096  1.00  0.00     0.128 C 
HETATM   16  C15 UNL     1      25.132   2.748  51.510  1.00  0.00    -0.002 A 
HETATM   17  C16 UNL     1      26.218   2.079  50.988  1.00  0.00     0.011 A 
HETATM   18  C17 UNL     1      26.793   1.030  51.645  1.00  0.00     0.001 A 
HETATM   19  C18 UNL     1      26.263   0.637  52.864  1.00  0.00     0.003 A 
HETATM   20  C19 UNL     1      25.173   1.286  53.417  1.00  0.00     0.037 A 
HETATM   21  C20 UNL     1      24.587   2.361  52.741  1.00  0.00     0.077 A 
HETATM   22  O3  UNL     1      23.489   3.175  53.082  1.00  0.00    -0.341 OA
HETATM   23  C21 UNL     1      23.549   4.359  52.307  1.00  0.00     0.195 C 
HETATM   24  H17 UNL     1      25.225   6.419  51.829  1.00  0.00     0.162 HD
ENDROOT
BRANCH   2  25
HETATM   25  N1  UNL     1      21.189   3.833  52.119  1.00  0.00     0.093 N 
HETATM   26  H5  UNL     1      21.426   3.703  53.124  1.00  0.00     0.314 HD
HETATM   27  H6  UNL     1      20.412   4.536  52.084  1.00  0.00     0.314 HD
ENDBRANCH   2  25
BRANCH   1  28
HETATM   28  O1  UNL     1      22.637   2.212  50.716  1.00  0.00    -0.386 OA
HETATM   29  C1  UNL     1      22.215   1.653  49.505  1.00  0.00     0.202 C 
ENDBRANCH   1  28
BRANCH   8  30
HETATM   30  S1  UNL     1      24.227   8.097  46.316  1.00  0.00    -0.169 SA
HETATM   31  H13 UNL     1      22.959   8.288  45.772  1.00  0.00     0.102 HD
ENDBRANCH   8  30
TORSDOF 3
ENDMDL
MODEL 6
REMARK VINA RESULT:      -7.5      9.473     11.244
REMARK  3 active torsions:
REMARK  status: ('A' for Active; 'I' for Inactive)
REMARK    1  A    between atoms: O1_2  and  C2_3 
REMARK    2  A    between atoms: C3_4  and  N1_5 
REMARK    3  A    between atoms: C9_11  and  S1_12 
ROOT
HETATM    1  C2  UNL     1      27.636   8.974  47.507  1.00  0.00     0.187 C 
HETATM    2  C3  UNL     1      27.996  10.107  48.357  1.00  0.00     0.214 C 
HETATM    3  C4  UNL     1      29.276  10.764  48.327  1.00  0.00     0.085 C 
HETATM    4  C5  UNL     1      30.428  10.284  47.573  1.00  0.00    -0.055 C 
HETATM    5  C6  UNL     1      31.280  11.365  47.573  1.00  0.00     0.007 C 
HETATM    6  C7  UNL     1      32.769  11.495  47.503  1.00  0.00    -0.002 C 
HETATM    7  C8  UNL     1      33.528  10.448  47.094  1.00  0.00    -0.007 C 
HETATM    8  C9  UNL     1      33.338   8.948  47.004  1.00  0.00     0.097 C 
HETATM    9  C10 UNL     1      32.047   8.503  47.529  1.00  0.00    -0.045 C 
HETATM   10  C11 UNL     1      31.087   9.160  46.816  1.00  0.00     0.013 C 
HETATM   11  C12 UNL     1      31.848   7.533  48.695  1.00  0.00     0.158 C 
HETATM   12  N2  UNL     1      30.538   7.910  49.285  1.00  0.00    -0.356 N 
HETATM   13  C13 UNL     1      29.482   7.685  48.393  1.00  0.00     0.236 C 
HETATM   14  O2  UNL     1      29.404   7.195  47.239  1.00  0.00    -0.272 OA
HETATM   15  C14 UNL     1      28.060   8.018  48.615  1.00  0.00     0.128 C 
HETATM   16  C15 UNL     1      27.137   6.976  49.005  1.00  0.00    -0.002 A 
HETATM   17  C16 UNL     1      27.001   5.631  48.743  1.00  0.00     0.011 A 
HETATM   18  C17 UNL     1      25.983   4.898  49.282  1.00  0.00     0.001 A 
HETATM   19  C18 UNL     1      25.073   5.533  50.112  1.00  0.00     0.003 A 
HETATM   20  C19 UNL     1      25.180   6.883  50.397  1.00  0.00     0.037 A 
HETATM   21  C20 UNL     1      26.224   7.631  49.842  1.00  0.00     0.077 A 
HETATM   22  O3  UNL     1      26.549   8.995  49.973  1.00  0.00    -0.341 OA
HETATM   23  C21 UNL     1      27.896   9.176  49.576  1.00  0.00     0.195 C 
HETATM   24  H17 UNL     1      30.363   8.287  50.216  1.00  0.00     0.162 HD
ENDROOT
BRANCH   2  25
HETATM   25  N1  UNL     1      26.859  11.067  48.469  1.00  0.00     0.093 N 
HETATM   26  H5  UNL     1      27.167  11.946  48.932  1.00  0.00     0.314 HD
HETATM   27  H6  UNL     1      26.628  11.318  47.477  1.00  0.00     0.314 HD
ENDBRANCH   2  25
BRANCH   1  28
HETATM   28  O1  UNL     1      26.261   8.838  47.300  1.00  0.00    -0.386 OA
HETATM   29  C1  UNL     1      26.070   8.559  45.942  1.00  0.00     0.202 C 
ENDBRANCH   1  28
BRANCH   8  30
HETATM   30  S1  UNL     1      33.490   8.437  45.276  1.00  0.00    -0.169 SA
HETATM   31  H13 UNL     1      34.243   7.275  45.120  1.00  0.00     0.102 HD
ENDBRANCH   8  30
TORSDOF 3
ENDMDL
MODEL 7
REMARK VINA RESULT:      -7.4     11.495     14.353
REMARK  3 active torsions:
REMARK  status: ('A' for Active; 'I' for Inactive)
REMARK    1  A    between atoms: O1_2  and  C2_3 
REMARK    2  A    between atoms: C3_4  and  N1_5 
REMARK    3  A    between atoms: C9_11  and  S1_12 
ROOT
HETATM    1  C2  UNL     1      31.523   6.332  47.956  1.00  0.00     0.187 C 
HETATM    2  C3  UNL     1      31.956   6.955  49.206  1.00  0.00     0.214 C 
HETATM    3  C4  UNL     1      31.700   8.328  49.554  1.00  0.00     0.085 C 
HETATM    4  C5  UNL     1      31.128   9.313  48.645  1.00  0.00    -0.055 C 
HETATM    5  C6  UNL     1      30.768  10.345  49.481  1.00  0.00     0.007 C 
HETATM    6  C7  UNL     1      30.642  11.824  49.287  1.00  0.00    -0.002 C 
HETATM    7  C8  UNL     1      30.584  12.346  48.036  1.00  0.00    -0.007 C 
HETATM    8  C9  UNL     1      30.986  11.880  46.653  1.00  0.00     0.097 C 
HETATM    9  C10 UNL     1      31.643  10.572  46.659  1.00  0.00    -0.045 C 
HETATM   10  C11 UNL     1      30.767   9.697  47.233  1.00  0.00     0.013 C 
HETATM   11  C12 UNL     1      33.062  10.288  46.165  1.00  0.00     0.158 C 
HETATM   12  N2  UNL     1      33.515   9.117  46.958  1.00  0.00    -0.356 N 
HETATM   13  C13 UNL     1      32.756   7.974  46.676  1.00  0.00     0.236 C 
HETATM   14  O2  UNL     1      31.824   7.722  45.873  1.00  0.00    -0.272 OA
HETATM   15  C14 UNL     1      32.876   6.657  47.335  1.00  0.00     0.128 C 
HETATM   16  C15 UNL     1      33.593   5.591  46.672  1.00  0.00    -0.002 A 
HETATM   17  C16 UNL     1      33.781   5.193  45.367  1.00  0.00     0.011 A 
HETATM   18  C17 UNL     1      34.541   4.102  45.057  1.00  0.00     0.001 A 
HETATM   19  C18 UNL     1      35.132   3.388  46.086  1.00  0.00     0.003 A 
HETATM   20  C19 UNL     1      34.963   3.760  47.408  1.00  0.00     0.037 A 
HETATM   21  C20 UNL     1      34.184   4.878  47.723  1.00  0.00     0.077 A 
HETATM   22  O3  UNL     1      33.863   5.455  48.967  1.00  0.00    -0.341 OA
HETATM   23  C21 UNL     1      33.412   6.779  48.744  1.00  0.00     0.195 C 
HETATM   24  H17 UNL     1      34.275   9.084  47.635  1.00  0.00     0.162 HD
ENDROOT
BRANCH   2  25
HETATM   25  N1  UNL     1      31.765   6.024  50.356  1.00  0.00     0.093 N 
HETATM   26  H5  UNL     1      32.339   6.326  51.170  1.00  0.00     0.314 HD
HETATM   27  H6  UNL     1      30.762   6.151  50.634  1.00  0.00     0.314 HD
ENDBRANCH   2  25
BRANCH   1  28
HETATM   28  O1  UNL     1      31.388   4.944  48.036  1.00  0.00    -0.386 OA
HETATM   29  C1  UNL     1      30.067   4.634  47.693  1.00  0.00     0.202 C 
ENDBRANCH   1  28
BRANCH   8  30
HETATM   30  S1  UNL     1      29.515  11.806  45.604  1.00  0.00    -0.169 SA
HETATM   31  H13 UNL     1      28.404  11.289  46.268  1.00  0.00     0.102 HD
ENDBRANCH   8  30
TORSDOF 3
ENDMDL
MODEL 8
REMARK VINA RESULT:      -7.4      9.838     11.640
REMARK  3 active torsions:
REMARK  status: ('A' for Active; 'I' for Inactive)
REMARK    1  A    between atoms: O1_2  and  C2_3 
REMARK    2  A    between atoms: C3_4  and  N1_5 
REMARK    3  A    between atoms: C9_11  and  S1_12 
ROOT
HETATM    1  C2  UNL     1      29.679   8.572  46.844  1.00  0.00     0.187 C 
HETATM    2  C3  UNL     1      30.418   9.622  47.542  1.00  0.00     0.214 C 
HETATM    3  C4  UNL     1      31.819   9.546  47.864  1.00  0.00     0.085 C 
HETATM    4  C5  UNL     1      32.638   8.353  47.687  1.00  0.00    -0.055 C 
HETATM    5  C6  UNL     1      33.924   8.832  47.801  1.00  0.00     0.007 C 
HETATM    6  C7  UNL     1      35.209   8.217  48.259  1.00  0.00    -0.002 C 
HETATM    7  C8  UNL     1      35.324   6.868  48.356  1.00  0.00    -0.007 C 
HETATM    8  C9  UNL     1      34.358   5.709  48.480  1.00  0.00     0.097 C 
HETATM    9  C10 UNL     1      32.961   6.136  48.567  1.00  0.00    -0.045 C 
HETATM   10  C11 UNL     1      32.705   6.867  47.444  1.00  0.00     0.013 C 
HETATM   11  C12 UNL     1      32.016   5.851  49.736  1.00  0.00     0.158 C 
HETATM   12  N2  UNL     1      31.047   6.977  49.725  1.00  0.00    -0.356 N 
HETATM   13  C13 UNL     1      30.261   6.975  48.565  1.00  0.00     0.236 C 
HETATM   14  O2  UNL     1      30.171   6.209  47.574  1.00  0.00    -0.272 OA
HETATM   15  C14 UNL     1      29.255   7.988  48.185  1.00  0.00     0.128 C 
HETATM   16  C15 UNL     1      27.852   7.711  48.394  1.00  0.00    -0.002 A 
HETATM   17  C16 UNL     1      27.051   6.591  48.351  1.00  0.00     0.011 A 
HETATM   18  C17 UNL     1      25.711   6.662  48.605  1.00  0.00     0.001 A 
HETATM   19  C18 UNL     1      25.157   7.894  48.911  1.00  0.00     0.003 A 
HETATM   20  C19 UNL     1      25.931   9.039  48.963  1.00  0.00     0.037 A 
HETATM   21  C20 UNL     1      27.304   8.963  48.702  1.00  0.00     0.077 A 
HETATM   22  O3  UNL     1      28.295   9.964  48.690  1.00  0.00    -0.341 OA
HETATM   23  C21 UNL     1      29.563   9.341  48.789  1.00  0.00     0.195 C 
HETATM   24  H17 UNL     1      30.918   7.691  50.440  1.00  0.00     0.162 HD
ENDROOT
BRANCH   2  25
HETATM   25  N1  UNL     1      30.013  10.971  47.052  1.00  0.00     0.093 N 
HETATM   26  H5  UNL     1      30.043  11.666  47.826  1.00  0.00     0.314 HD
HETATM   27  H6  UNL     1      30.768  11.244  46.377  1.00  0.00     0.314 HD
ENDBRANCH   2  25
BRANCH   1  28
HETATM   28  O1  UNL     1      28.542   9.032  46.176  1.00  0.00    -0.386 OA
HETATM   29  C1  UNL     1      28.503   8.394  44.931  1.00  0.00     0.202 C 
ENDBRANCH   1  28
BRANCH   8  30
HETATM   30  S1  UNL     1      34.562   4.616  47.053  1.00  0.00    -0.169 SA
HETATM   31  H13 UNL     1      33.900   5.081  45.918  1.00  0.00     0.102 HD
ENDBRANCH   8  30
TORSDOF 3
ENDMDL
MODEL 9
REMARK VINA RESULT:      -7.3     12.383     13.998
REMARK  3 active torsions:
REMARK  status: ('A' for Active; 'I' for Inactive)
REMARK    1  A    between atoms: O1_2  and  C2_3 
REMARK    2  A    between atoms: C3_4  and  N1_5 
REMARK    3  A    between atoms: C9_11  and  S1_12 
ROOT
HETATM    1  C2  UNL     1      31.261   7.927  46.037  1.00  0.00     0.187 C 
HETATM    2  C3  UNL     1      32.408   8.098  45.148  1.00  0.00     0.214 C 
HETATM    3  C4  UNL     1      33.367   7.064  44.861  1.00  0.00     0.085 C 
HETATM    4  C5  UNL     1      33.415   5.776  45.542  1.00  0.00    -0.055 C 
HETATM    5  C6  UNL     1      34.239   5.022  44.737  1.00  0.00     0.007 C 
HETATM    6  C7  UNL     1      35.160   3.874  45.005  1.00  0.00    -0.002 C 
HETATM    7  C8  UNL     1      35.062   3.174  46.163  1.00  0.00    -0.007 C 
HETATM    8  C9  UNL     1      34.479   3.437  47.535  1.00  0.00     0.097 C 
HETATM    9  C10 UNL     1      33.930   4.786  47.674  1.00  0.00    -0.045 C 
HETATM   10  C11 UNL     1      32.979   4.924  46.706  1.00  0.00     0.013 C 
HETATM   11  C12 UNL     1      34.399   5.836  48.684  1.00  0.00     0.158 C 
HETATM   12  N2  UNL     1      34.104   7.142  48.040  1.00  0.00    -0.356 N 
HETATM   13  C13 UNL     1      32.729   7.338  47.867  1.00  0.00     0.236 C 
HETATM   14  O2  UNL     1      31.707   6.678  48.182  1.00  0.00    -0.272 OA
HETATM   15  C14 UNL     1      32.083   8.483  47.193  1.00  0.00     0.128 C 
HETATM   16  C15 UNL     1      31.510   9.547  47.986  1.00  0.00    -0.002 A 
HETATM   17  C16 UNL     1      30.875   9.635  49.206  1.00  0.00     0.011 A 
HETATM   18  C17 UNL     1      30.434  10.830  49.695  1.00  0.00     0.001 A 
HETATM   19  C18 UNL     1      30.635  11.974  48.939  1.00  0.00     0.003 A 
HETATM   20  C19 UNL     1      31.268  11.921  47.711  1.00  0.00     0.037 A 
HETATM   21  C20 UNL     1      31.719  10.695  47.211  1.00  0.00     0.077 A 
HETATM   22  O3  UNL     1      32.382  10.378  46.010  1.00  0.00    -0.341 OA
HETATM   23  C21 UNL     1      32.988   9.106  46.153  1.00  0.00     0.195 C 
HETATM   24  H17 UNL     1      34.773   7.850  47.740  1.00  0.00     0.162 HD
ENDROOT
BRANCH   2  25
HETATM   25  N1  UNL     1      32.028   8.883  43.938  1.00  0.00     0.093 N 
HETATM   26  H5  UNL     1      31.001   8.839  43.781  1.00  0.00     0.314 HD
HETATM   27  H6  UNL     1      32.250   9.877  44.189  1.00  0.00     0.314 HD
ENDBRANCH   2  25
BRANCH   1  28
HETATM   28  O1  UNL     1      30.207   8.806  45.773  1.00  0.00    -0.386 OA
HETATM   29  C1  UNL     1      29.021   8.066  45.835  1.00  0.00     0.202 C 
ENDBRANCH   1  28
BRANCH   8  30
HETATM   30  S1  UNL     1      33.177   2.225  47.865  1.00  0.00    -0.169 SA
HETATM   31  H13 UNL     1      33.163   1.794  49.190  1.00  0.00     0.102 HD
ENDBRANCH   8  30
TORSDOF 3
ENDMDL
