MODEL 1
REMARK VINA RESULT:      -7.9      0.000      0.000
REMARK  7 active torsions:
REMARK  status: ('A' for Active; 'I' for Inactive)
REMARK    1  A    between atoms: C3_3  and  C4_4 
REMARK    2  A    between atoms: C6_7  and  C7_8 
REMARK    3  A    between atoms: C7_8  and  C9_11 
REMARK    4  A    between atoms: C12_15  and  N4_16 
REMARK    5  A    between atoms: N4_16  and  C13_17 
REMARK    6  A    between atoms: C13_17  and  C14_18 
REMARK    7  A    between atoms: C14_18  and  C15_19 
ROOT
HETATM    1  C7  UNL     1      23.507   0.689  53.276  1.00  0.00     0.203 C 
HETATM    2  C8  UNL     1      22.839  -0.496  53.817  1.00  0.00     0.077 C 
HETATM    3  N2  UNL     1      22.314  -1.448  54.255  1.00  0.00    -0.196 NA
ENDROOT
BRANCH   1   4
HETATM    4  C6  UNL     1      24.950   0.427  53.187  1.00  0.00     0.089 C 
HETATM    5  N1  UNL     1      25.547  -0.573  52.698  1.00  0.00    -0.284 NA
HETATM    6  C5  UNL     1      26.935  -0.615  52.717  1.00  0.00     0.169 C 
HETATM    7  C4  UNL     1      27.510   0.187  53.864  1.00  0.00     0.096 C 
HETATM    8  S1  UNL     1      26.251   1.539  53.810  1.00  0.00    -0.103 SA
BRANCH   7   9
HETATM    9  C3  UNL     1      28.852   0.724  53.559  1.00  0.00    -0.014 C 
HETATM   10  C2  UNL     1      29.976   0.015  53.519  1.00  0.00    -0.034 C 
HETATM   11  C1  UNL     1      29.896  -1.449  53.802  1.00  0.00     0.036 C 
ENDBRANCH   7   9
ENDBRANCH   1   4
BRANCH   1  12
HETATM   12  C9  UNL     1      22.875   0.995  51.959  1.00  0.00     0.079 A 
HETATM   13  C10 UNL     1      21.733   0.382  51.549  1.00  0.00     0.049 A 
HETATM   14  C11 UNL     1      21.142   0.652  50.346  1.00  0.00     0.138 A 
HETATM   15  N3  UNL     1      21.741   1.565  49.561  1.00  0.00    -0.075 NA
HETATM   16  C12 UNL     1      22.868   2.199  49.917  1.00  0.00     0.722 A 
HETATM   17  N6  UNL     1      23.385   1.880  51.110  1.00  0.00    -0.066 NA
BRANCH  16  18
HETATM   18  N4  UNL     1      23.480   3.151  49.084  1.00  0.00    -0.222 N 
HETATM   19  H12 UNL     1      23.332   3.099  48.046  1.00  0.00     0.177 HD
BRANCH  18  20
HETATM   20  C13 UNL     1      24.310   4.204  49.597  1.00  0.00     0.142 C 
BRANCH  20  21
HETATM   21  C14 UNL     1      25.794   3.905  49.512  1.00  0.00     0.060 C 
BRANCH  21  22
HETATM   22  C15 UNL     1      26.525   5.074  48.952  1.00  0.00    -0.039 A 
HETATM   23  C16 UNL     1      26.035   6.327  48.738  1.00  0.00     0.010 A 
HETATM   24  C17 UNL     1      26.805   7.335  48.213  1.00  0.00     0.020 A 
HETATM   25  C18 UNL     1      28.107   7.094  47.889  1.00  0.00     0.116 A 
HETATM   26  N5  UNL     1      28.625   5.854  48.092  1.00  0.00    -0.273 NA
HETATM   27  C19 UNL     1      27.862   4.861  48.610  1.00  0.00     0.123 A 
ENDBRANCH  21  22
ENDBRANCH  20  21
ENDBRANCH  18  20
ENDBRANCH  16  18
ENDBRANCH   1  12
TORSDOF 7
ENDMDL
MODEL 2
REMARK VINA RESULT:      -7.8      2.714      6.119
REMARK  7 active torsions:
REMARK  status: ('A' for Active; 'I' for Inactive)
REMARK    1  A    between atoms: C3_3  and  C4_4 
REMARK    2  A    between atoms: C6_7  and  C7_8 
REMARK    3  A    between atoms: C7_8  and  C9_11 
REMARK    4  A    between atoms: C12_15  and  N4_16 
REMARK    5  A    between atoms: N4_16  and  C13_17 
REMARK    6  A    between atoms: C13_17  and  C14_18 
REMARK    7  A    between atoms: C14_18  and  C15_19 
ROOT
HETATM    1  C7  UNL     1      19.834   1.633  50.899  1.00  0.00     0.203 C 
HETATM    2  C8  UNL     1      19.094   2.758  51.473  1.00  0.00     0.077 C 
HETATM    3  N2  UNL     1      18.507   3.666  51.924  1.00  0.00    -0.196 NA
ENDROOT
BRANCH   1   4
HETATM    4  C6  UNL     1      21.041   2.142  50.233  1.00  0.00     0.089 C 
HETATM    5  N1  UNL     1      21.632   1.696  49.210  1.00  0.00    -0.284 NA
HETATM    6  C5  UNL     1      22.770   2.341  48.745  1.00  0.00     0.169 C 
HETATM    7  C4  UNL     1      23.509   3.058  49.854  1.00  0.00     0.096 C 
HETATM    8  S1  UNL     1      22.001   3.589  50.782  1.00  0.00    -0.103 SA
BRANCH   7   9
HETATM    9  C3  UNL     1      24.252   4.237  49.366  1.00  0.00    -0.014 C 
HETATM   10  C2  UNL     1      25.575   4.353  49.327  1.00  0.00    -0.034 C 
HETATM   11  C1  UNL     1      26.398   3.204  49.812  1.00  0.00     0.036 C 
ENDBRANCH   7   9
ENDBRANCH   1   4
BRANCH   1  12
HETATM   12  C9  UNL     1      20.125   0.678  52.009  1.00  0.00     0.079 A 
HETATM   13  C10 UNL     1      19.178  -0.163  52.502  1.00  0.00     0.049 A 
HETATM   14  C11 UNL     1      19.428  -1.043  53.517  1.00  0.00     0.138 A 
HETATM   15  N3  UNL     1      20.674  -1.051  54.027  1.00  0.00    -0.075 NA
HETATM   16  C12 UNL     1      21.645  -0.243  53.578  1.00  0.00     0.722 A 
HETATM   17  N6  UNL     1      21.320   0.590  52.582  1.00  0.00    -0.066 NA
BRANCH  16  18
HETATM   18  N4  UNL     1      22.940  -0.264  54.123  1.00  0.00    -0.222 N 
HETATM   19  H12 UNL     1      23.061  -0.267  55.166  1.00  0.00     0.177 HD
BRANCH  18  20
HETATM   20  C13 UNL     1      24.120  -0.284  53.305  1.00  0.00     0.142 C 
BRANCH  20  21
HETATM   21  C14 UNL     1      24.754   1.081  53.121  1.00  0.00     0.060 C 
BRANCH  21  22
HETATM   22  C15 UNL     1      26.178   1.051  53.552  1.00  0.00    -0.039 A 
HETATM   23  C16 UNL     1      27.155   1.946  53.235  1.00  0.00     0.010 A 
HETATM   24  C17 UNL     1      28.443   1.818  53.692  1.00  0.00     0.020 A 
HETATM   25  C18 UNL     1      28.776   0.767  54.492  1.00  0.00     0.116 A 
HETATM   26  N5  UNL     1      27.823  -0.143  54.828  1.00  0.00    -0.273 NA
HETATM   27  C19 UNL     1      26.553  -0.014  54.375  1.00  0.00     0.123 A 
ENDBRANCH  21  22
ENDBRANCH  20  21
ENDBRANCH  18  20
ENDBRANCH  16  18
ENDBRANCH   1  12
TORSDOF 7
ENDMDL
MODEL 3
REMARK VINA RESULT:      -7.8      2.692      6.800
REMARK  7 active torsions:
REMARK  status: ('A' for Active; 'I' for Inactive)
REMARK    1  A    between atoms: C3_3  and  C4_4 
REMARK    2  A    between atoms: C6_7  and  C7_8 
REMARK    3  A    between atoms: C7_8  and  C9_11 
REMARK    4  A    between atoms: C12_15  and  N4_16 
REMARK    5  A    between atoms: N4_16  and  C13_17 
REMARK    6  A    between atoms: C13_17  and  C14_18 
REMARK    7  A    between atoms: C14_18  and  C15_19 
ROOT
HETATM    1  C7  UNL     1      20.992   2.428  51.320  1.00  0.00     0.203 C 
HETATM    2  C8  UNL     1      19.714   3.054  51.664  1.00  0.00     0.077 C 
HETATM    3  N2  UNL     1      18.696   3.565  51.936  1.00  0.00    -0.196 NA
ENDROOT
BRANCH   1   4
HETATM    4  C6  UNL     1      22.055   3.441  51.384  1.00  0.00     0.089 C 
HETATM    5  N1  UNL     1      22.388   4.184  52.349  1.00  0.00    -0.284 NA
HETATM    6  C5  UNL     1      23.435   5.081  52.189  1.00  0.00     0.169 C 
HETATM    7  C4  UNL     1      23.599   5.511  50.748  1.00  0.00     0.096 C 
HETATM    8  S1  UNL     1      23.163   3.875  50.005  1.00  0.00    -0.103 SA
BRANCH   7   9
HETATM    9  C3  UNL     1      24.995   5.867  50.421  1.00  0.00    -0.014 C 
HETATM   10  C2  UNL     1      25.453   7.100  50.237  1.00  0.00    -0.034 C 
HETATM   11  C1  UNL     1      24.493   8.237  50.370  1.00  0.00     0.036 C 
ENDBRANCH   7   9
ENDBRANCH   1   4
BRANCH   1  12
HETATM   12  C9  UNL     1      21.200   1.289  52.263  1.00  0.00     0.079 A 
HETATM   13  C10 UNL     1      20.167   0.713  52.932  1.00  0.00     0.049 A 
HETATM   14  C11 UNL     1      20.340  -0.331  53.798  1.00  0.00     0.138 A 
HETATM   15  N3  UNL     1      21.596  -0.780  53.971  1.00  0.00    -0.075 NA
HETATM   16  C12 UNL     1      22.650  -0.248  53.335  1.00  0.00     0.722 A 
HETATM   17  N6  UNL     1      22.398   0.770  52.505  1.00  0.00    -0.066 NA
BRANCH  16  18
HETATM   18  N4  UNL     1      23.955  -0.731  53.529  1.00  0.00    -0.222 N 
HETATM   19  H12 UNL     1      24.127  -1.767  53.532  1.00  0.00     0.177 HD
BRANCH  18  20
HETATM   20  C13 UNL     1      25.078   0.141  53.725  1.00  0.00     0.142 C 
BRANCH  20  21
HETATM   21  C14 UNL     1      26.037   0.171  52.552  1.00  0.00     0.060 C 
BRANCH  21  22
HETATM   22  C15 UNL     1      27.238  -0.658  52.845  1.00  0.00    -0.039 A 
HETATM   23  C16 UNL     1      28.439  -0.230  53.324  1.00  0.00     0.010 A 
HETATM   24  C17 UNL     1      29.483  -1.089  53.559  1.00  0.00     0.020 A 
HETATM   25  C18 UNL     1      29.333  -2.421  53.311  1.00  0.00     0.116 A 
HETATM   26  N5  UNL     1      28.145  -2.880  52.833  1.00  0.00    -0.273 NA
HETATM   27  C19 UNL     1      27.117  -2.028  52.602  1.00  0.00     0.123 A 
ENDBRANCH  21  22
ENDBRANCH  20  21
ENDBRANCH  18  20
ENDBRANCH  16  18
ENDBRANCH   1  12
TORSDOF 7
ENDMDL
MODEL 4
REMARK VINA RESULT:      -7.8      2.221      3.020
REMARK  7 active torsions:
REMARK  status: ('A' for Active; 'I' for Inactive)
REMARK    1  A    between atoms: C3_3  and  C4_4 
REMARK    2  A    between atoms: C6_7  and  C7_8 
REMARK    3  A    between atoms: C7_8  and  C9_11 
REMARK    4  A    between atoms: C12_15  and  N4_16 
REMARK    5  A    between atoms: N4_16  and  C13_17 
REMARK    6  A    between atoms: C13_17  and  C14_18 
REMARK    7  A    between atoms: C14_18  and  C15_19 
ROOT
HETATM    1  C7  UNL     1      23.354   2.713  52.297  1.00  0.00     0.203 C 
HETATM    2  C8  UNL     1      22.650   1.805  51.389  1.00  0.00     0.077 C 
HETATM    3  N2  UNL     1      22.096   1.071  50.663  1.00  0.00    -0.196 NA
ENDROOT
BRANCH   1   4
HETATM    4  C6  UNL     1      24.789   2.400  52.270  1.00  0.00     0.089 C 
HETATM    5  N1  UNL     1      25.551   2.248  51.274  1.00  0.00    -0.284 NA
HETATM    6  C5  UNL     1      26.893   1.955  51.480  1.00  0.00     0.169 C 
HETATM    7  C4  UNL     1      27.119   1.226  52.786  1.00  0.00     0.096 C 
HETATM    8  S1  UNL     1      25.826   2.134  53.745  1.00  0.00    -0.103 SA
BRANCH   7   9
HETATM    9  C3  UNL     1      28.457   1.490  53.354  1.00  0.00    -0.014 C 
HETATM   10  C2  UNL     1      29.331   0.563  53.732  1.00  0.00    -0.034 C 
HETATM   11  C1  UNL     1      28.948  -0.873  53.574  1.00  0.00     0.036 C 
ENDBRANCH   7   9
ENDBRANCH   1   4
BRANCH   1  12
HETATM   12  C9  UNL     1      23.041   4.107  51.866  1.00  0.00     0.079 A 
HETATM   13  C10 UNL     1      21.770   4.509  51.600  1.00  0.00     0.049 A 
HETATM   14  C11 UNL     1      21.466   5.782  51.205  1.00  0.00     0.138 A 
HETATM   15  N3  UNL     1      22.491   6.646  51.085  1.00  0.00    -0.075 NA
HETATM   16  C12 UNL     1      23.762   6.302  51.336  1.00  0.00     0.722 A 
HETATM   17  N6  UNL     1      23.977   5.037  51.717  1.00  0.00    -0.066 NA
BRANCH  16  18
HETATM   18  N4  UNL     1      24.819   7.218  51.205  1.00  0.00    -0.222 N 
HETATM   19  H12 UNL     1      25.253   7.632  52.066  1.00  0.00     0.177 HD
BRANCH  18  20
HETATM   20  C13 UNL     1      25.339   7.617  49.928  1.00  0.00     0.142 C 
BRANCH  20  21
HETATM   21  C14 UNL     1      25.488   6.471  48.947  1.00  0.00     0.060 C 
BRANCH  21  22
HETATM   22  C15 UNL     1      26.920   6.283  48.587  1.00  0.00    -0.039 A 
HETATM   23  C16 UNL     1      27.786   7.229  48.126  1.00  0.00     0.010 A 
HETATM   24  C17 UNL     1      29.093   6.941  47.824  1.00  0.00     0.020 A 
HETATM   25  C18 UNL     1      29.561   5.671  47.983  1.00  0.00     0.116 A 
HETATM   26  N5  UNL     1      28.721   4.704  48.442  1.00  0.00    -0.273 NA
HETATM   27  C19 UNL     1      27.431   4.992  48.739  1.00  0.00     0.123 A 
ENDBRANCH  21  22
ENDBRANCH  20  21
ENDBRANCH  18  20
ENDBRANCH  16  18
ENDBRANCH   1  12
TORSDOF 7
ENDMDL
MODEL 5
REMARK VINA RESULT:      -7.7      1.550      2.179
REMARK  7 active torsions:
REMARK  status: ('A' for Active; 'I' for Inactive)
REMARK    1  A    between atoms: C3_3  and  C4_4 
REMARK    2  A    between atoms: C6_7  and  C7_8 
REMARK    3  A    between atoms: C7_8  and  C9_11 
REMARK    4  A    between atoms: C12_15  and  N4_16 
REMARK    5  A    between atoms: N4_16  and  C13_17 
REMARK    6  A    between atoms: C13_17  and  C14_18 
REMARK    7  A    between atoms: C14_18  and  C15_19 
ROOT
HETATM    1  C7  UNL     1      22.221   0.514  53.528  1.00  0.00     0.203 C 
HETATM    2  C8  UNL     1      21.722  -0.706  54.167  1.00  0.00     0.077 C 
HETATM    3  N2  UNL     1      21.334  -1.683  54.682  1.00  0.00    -0.196 NA
ENDROOT
BRANCH   1   4
HETATM    4  C6  UNL     1      23.674   0.398  53.343  1.00  0.00     0.089 C 
HETATM    5  N1  UNL     1      24.385  -0.643  53.265  1.00  0.00    -0.284 NA
HETATM    6  C5  UNL     1      25.756  -0.521  53.086  1.00  0.00     0.169 C 
HETATM    7  C4  UNL     1      26.288   0.778  53.652  1.00  0.00     0.096 C 
HETATM    8  S1  UNL     1      24.821   1.806  53.197  1.00  0.00    -0.103 SA
BRANCH   7   9
HETATM    9  C3  UNL     1      27.489   1.254  52.937  1.00  0.00    -0.014 C 
HETATM   10  C2  UNL     1      28.744   1.092  53.343  1.00  0.00    -0.034 C 
HETATM   11  C1  UNL     1      28.981   0.367  54.628  1.00  0.00     0.036 C 
ENDBRANCH   7   9
ENDBRANCH   1   4
BRANCH   1  12
HETATM   12  C9  UNL     1      21.471   0.687  52.249  1.00  0.00     0.079 A 
HETATM   13  C10 UNL     1      20.127   0.495  52.172  1.00  0.00     0.049 A 
HETATM   14  C11 UNL     1      19.425   0.650  51.009  1.00  0.00     0.138 A 
HETATM   15  N3  UNL     1      20.124   1.007  49.916  1.00  0.00    -0.075 NA
HETATM   16  C12 UNL     1      21.449   1.208  49.937  1.00  0.00     0.722 A 
HETATM   17  N6  UNL     1      22.064   1.037  51.113  1.00  0.00    -0.066 NA
BRANCH  16  18
HETATM   18  N4  UNL     1      22.163   1.580  48.785  1.00  0.00    -0.222 N 
HETATM   19  H12 UNL     1      22.645   0.842  48.215  1.00  0.00     0.177 HD
BRANCH  18  20
HETATM   20  C13 UNL     1      22.262   2.943  48.347  1.00  0.00     0.142 C 
BRANCH  20  21
HETATM   21  C14 UNL     1      22.737   3.895  49.427  1.00  0.00     0.060 C 
BRANCH  21  22
HETATM   22  C15 UNL     1      24.211   4.081  49.341  1.00  0.00    -0.039 A 
HETATM   23  C16 UNL     1      25.177   3.166  49.637  1.00  0.00     0.010 A 
HETATM   24  C17 UNL     1      26.514   3.447  49.519  1.00  0.00     0.020 A 
HETATM   25  C18 UNL     1      26.912   4.679  49.094  1.00  0.00     0.116 A 
HETATM   26  N5  UNL     1      25.973   5.614  48.789  1.00  0.00    -0.273 NA
HETATM   27  C19 UNL     1      24.653   5.333  48.906  1.00  0.00     0.123 A 
ENDBRANCH  21  22
ENDBRANCH  20  21
ENDBRANCH  18  20
ENDBRANCH  16  18
ENDBRANCH   1  12
TORSDOF 7
ENDMDL
MODEL 6
REMARK VINA RESULT:      -7.7      1.446      2.074
REMARK  7 active torsions:
REMARK  status: ('A' for Active; 'I' for Inactive)
REMARK    1  A    between atoms: C3_3  and  C4_4 
REMARK    2  A    between atoms: C6_7  and  C7_8 
REMARK    3  A    between atoms: C7_8  and  C9_11 
REMARK    4  A    between atoms: C12_15  and  N4_16 
REMARK    5  A    between atoms: N4_16  and  C13_17 
REMARK    6  A    between atoms: C13_17  and  C14_18 
REMARK    7  A    between atoms: C14_18  and  C15_19 
ROOT
HETATM    1  C7  UNL     1      22.998   1.980  52.474  1.00  0.00     0.203 C 
HETATM    2  C8  UNL     1      21.679   1.438  52.804  1.00  0.00     0.077 C 
HETATM    3  N2  UNL     1      20.628   0.997  53.076  1.00  0.00    -0.196 NA
ENDROOT
BRANCH   1   4
HETATM    4  C6  UNL     1      24.025   0.987  52.821  1.00  0.00     0.089 C 
HETATM    5  N1  UNL     1      23.933  -0.019  53.579  1.00  0.00    -0.284 NA
HETATM    6  C5  UNL     1      25.042  -0.834  53.767  1.00  0.00     0.169 C 
HETATM    7  C4  UNL     1      26.339  -0.077  53.585  1.00  0.00     0.096 C 
HETATM    8  S1  UNL     1      25.742   1.009  52.214  1.00  0.00    -0.103 SA
BRANCH   7   9
HETATM    9  C3  UNL     1      27.436  -0.945  53.111  1.00  0.00    -0.014 C 
HETATM   10  C2  UNL     1      28.730  -0.746  53.338  1.00  0.00    -0.034 C 
HETATM   11  C1  UNL     1      29.129   0.449  54.140  1.00  0.00     0.036 C 
ENDBRANCH   7   9
ENDBRANCH   1   4
BRANCH   1  12
HETATM   12  C9  UNL     1      22.984   2.339  51.025  1.00  0.00     0.079 A 
HETATM   13  C10 UNL     1      22.313   1.596  50.107  1.00  0.00     0.049 A 
HETATM   14  C11 UNL     1      22.289   1.911  48.776  1.00  0.00     0.138 A 
HETATM   15  N3  UNL     1      22.970   3.008  48.396  1.00  0.00    -0.075 NA
HETATM   16  C12 UNL     1      23.648   3.776  49.261  1.00  0.00     0.722 A 
HETATM   17  N6  UNL     1      23.622   3.400  50.545  1.00  0.00    -0.066 NA
BRANCH  16  18
HETATM   18  N4  UNL     1      24.354   4.918  48.845  1.00  0.00    -0.222 N 
HETATM   19  H12 UNL     1      23.988   5.486  48.041  1.00  0.00     0.177 HD
BRANCH  18  20
HETATM   20  C13 UNL     1      25.567   5.347  49.480  1.00  0.00     0.142 C 
BRANCH  20  21
HETATM   21  C14 UNL     1      26.798   4.599  49.007  1.00  0.00     0.060 C 
BRANCH  21  22
HETATM   22  C15 UNL     1      27.834   5.557  48.533  1.00  0.00    -0.039 A 
HETATM   23  C16 UNL     1      29.136   5.285  48.237  1.00  0.00     0.010 A 
HETATM   24  C17 UNL     1      30.007   6.252  47.806  1.00  0.00     0.020 A 
HETATM   25  C18 UNL     1      29.576   7.537  47.661  1.00  0.00     0.116 A 
HETATM   26  N5  UNL     1      28.281   7.841  47.947  1.00  0.00    -0.273 NA
HETATM   27  C19 UNL     1      27.424   6.882  48.373  1.00  0.00     0.123 A 
ENDBRANCH  21  22
ENDBRANCH  20  21
ENDBRANCH  18  20
ENDBRANCH  16  18
ENDBRANCH   1  12
TORSDOF 7
ENDMDL
MODEL 7
REMARK VINA RESULT:      -7.6      2.310      5.247
REMARK  7 active torsions:
REMARK  status: ('A' for Active; 'I' for Inactive)
REMARK    1  A    between atoms: C3_3  and  C4_4 
REMARK    2  A    between atoms: C6_7  and  C7_8 
REMARK    3  A    between atoms: C7_8  and  C9_11 
REMARK    4  A    between atoms: C12_15  and  N4_16 
REMARK    5  A    between atoms: N4_16  and  C13_17 
REMARK    6  A    between atoms: C13_17  and  C14_18 
REMARK    7  A    between atoms: C14_18  and  C15_19 
ROOT
HETATM    1  C7  UNL     1      24.409  -0.698  53.579  1.00  0.00     0.203 C 
HETATM    2  C8  UNL     1      24.799  -0.982  54.961  1.00  0.00     0.077 C 
HETATM    3  N2  UNL     1      25.099  -1.211  56.070  1.00  0.00    -0.196 NA
ENDROOT
BRANCH   1   4
HETATM    4  C6  UNL     1      22.986  -0.337  53.546  1.00  0.00     0.089 C 
HETATM    5  N1  UNL     1      22.206  -0.091  54.509  1.00  0.00    -0.284 NA
HETATM    6  C5  UNL     1      20.881   0.235  54.248  1.00  0.00     0.169 C 
HETATM    7  C4  UNL     1      20.394  -0.372  52.950  1.00  0.00     0.096 C 
HETATM    8  S1  UNL     1      21.986  -0.177  52.032  1.00  0.00    -0.103 SA
BRANCH   7   9
HETATM    9  C3  UNL     1      19.333   0.435  52.314  1.00  0.00    -0.014 C 
HETATM   10  C2  UNL     1      18.066   0.064  52.166  1.00  0.00    -0.034 C 
HETATM   11  C1  UNL     1      17.659  -1.278  52.681  1.00  0.00     0.036 C 
ENDBRANCH   7   9
ENDBRANCH   1   4
BRANCH   1  12
HETATM   12  C9  UNL     1      25.308   0.382  53.074  1.00  0.00     0.079 A 
HETATM   13  C10 UNL     1      26.650   0.202  52.954  1.00  0.00     0.049 A 
HETATM   14  C11 UNL     1      27.487   1.181  52.493  1.00  0.00     0.138 A 
HETATM   15  N3  UNL     1      26.926   2.356  52.155  1.00  0.00    -0.075 NA
HETATM   16  C12 UNL     1      25.609   2.585  52.254  1.00  0.00     0.722 A 
HETATM   17  N6  UNL     1      24.857   1.578  52.714  1.00  0.00    -0.066 NA
BRANCH  16  18
HETATM   18  N4  UNL     1      25.041   3.820  51.897  1.00  0.00    -0.222 N 
HETATM   19  H12 UNL     1      25.387   4.699  52.354  1.00  0.00     0.177 HD
BRANCH  18  20
HETATM   20  C13 UNL     1      23.994   3.932  50.921  1.00  0.00     0.142 C 
BRANCH  20  21
HETATM   21  C14 UNL     1      24.449   3.639  49.505  1.00  0.00     0.060 C 
BRANCH  21  22
HETATM   22  C15 UNL     1      25.568   4.544  49.125  1.00  0.00    -0.039 A 
HETATM   23  C16 UNL     1      26.886   4.220  49.003  1.00  0.00     0.010 A 
HETATM   24  C17 UNL     1      27.837   5.142  48.644  1.00  0.00     0.020 A 
HETATM   25  C18 UNL     1      27.471   6.431  48.396  1.00  0.00     0.116 A 
HETATM   26  N5  UNL     1      26.163   6.786  48.507  1.00  0.00    -0.273 NA
HETATM   27  C19 UNL     1      25.227   5.873  48.862  1.00  0.00     0.123 A 
ENDBRANCH  21  22
ENDBRANCH  20  21
ENDBRANCH  18  20
ENDBRANCH  16  18
ENDBRANCH   1  12
TORSDOF 7
ENDMDL
MODEL 8
REMARK VINA RESULT:      -7.6      1.424      1.922
REMARK  7 active torsions:
REMARK  status: ('A' for Active; 'I' for Inactive)
REMARK    1  A    between atoms: C3_3  and  C4_4 
REMARK    2  A    between atoms: C6_7  and  C7_8 
REMARK    3  A    between atoms: C7_8  and  C9_11 
REMARK    4  A    between atoms: C12_15  and  N4_16 
REMARK    5  A    between atoms: N4_16  and  C13_17 
REMARK    6  A    between atoms: C13_17  and  C14_18 
REMARK    7  A    between atoms: C14_18  and  C15_19 
ROOT
HETATM    1  C7  UNL     1      23.943   1.624  53.061  1.00  0.00     0.203 C 
HETATM    2  C8  UNL     1      23.306   0.313  53.200  1.00  0.00     0.077 C 
HETATM    3  N2  UNL     1      22.807  -0.740  53.316  1.00  0.00    -0.196 NA
ENDROOT
BRANCH   1   4
HETATM    4  C6  UNL     1      25.402   1.448  53.033  1.00  0.00     0.089 C 
HETATM    5  N1  UNL     1      26.268   2.095  52.380  1.00  0.00    -0.284 NA
HETATM    6  C5  UNL     1      27.609   1.757  52.506  1.00  0.00     0.169 C 
HETATM    7  C4  UNL     1      27.795   0.300  52.870  1.00  0.00     0.096 C 
HETATM    8  S1  UNL     1      26.316   0.182  53.972  1.00  0.00    -0.103 SA
BRANCH   7   9
HETATM    9  C3  UNL     1      29.031   0.066  53.644  1.00  0.00    -0.014 C 
HETATM   10  C2  UNL     1      29.646  -1.104  53.779  1.00  0.00    -0.034 C 
HETATM   11  C1  UNL     1      29.055  -2.295  53.096  1.00  0.00     0.036 C 
ENDBRANCH   7   9
ENDBRANCH   1   4
BRANCH   1  12
HETATM   12  C9  UNL     1      23.397   2.257  51.824  1.00  0.00     0.079 A 
HETATM   13  C10 UNL     1      22.880   1.518  50.807  1.00  0.00     0.049 A 
HETATM   14  C11 UNL     1      22.376   2.082  49.668  1.00  0.00     0.138 A 
HETATM   15  N3  UNL     1      22.409   3.424  49.583  1.00  0.00    -0.075 NA
HETATM   16  C12 UNL     1      22.908   4.199  50.557  1.00  0.00     0.722 A 
HETATM   17  N6  UNL     1      23.382   3.572  51.640  1.00  0.00    -0.066 NA
BRANCH  16  18
HETATM   18  N4  UNL     1      22.934   5.600  50.451  1.00  0.00    -0.222 N 
HETATM   19  H12 UNL     1      22.099   6.104  50.063  1.00  0.00     0.177 HD
BRANCH  18  20
HETATM   20  C13 UNL     1      24.068   6.382  50.856  1.00  0.00     0.142 C 
BRANCH  20  21
HETATM   21  C14 UNL     1      24.737   7.119  49.713  1.00  0.00     0.060 C 
BRANCH  21  22
HETATM   22  C15 UNL     1      25.951   6.384  49.264  1.00  0.00    -0.039 A 
HETATM   23  C16 UNL     1      26.138   5.035  49.245  1.00  0.00     0.010 A 
HETATM   24  C17 UNL     1      27.306   4.463  48.808  1.00  0.00     0.020 A 
HETATM   25  C18 UNL     1      28.327   5.254  48.374  1.00  0.00     0.116 A 
HETATM   26  N5  UNL     1      28.171   6.606  48.379  1.00  0.00    -0.273 NA
HETATM   27  C19 UNL     1      27.016   7.166  48.812  1.00  0.00     0.123 A 
ENDBRANCH  21  22
ENDBRANCH  20  21
ENDBRANCH  18  20
ENDBRANCH  16  18
ENDBRANCH   1  12
TORSDOF 7
ENDMDL
MODEL 9
REMARK VINA RESULT:      -7.5      2.642      6.205
REMARK  7 active torsions:
REMARK  status: ('A' for Active; 'I' for Inactive)
REMARK    1  A    between atoms: C3_3  and  C4_4 
REMARK    2  A    between atoms: C6_7  and  C7_8 
REMARK    3  A    between atoms: C7_8  and  C9_11 
REMARK    4  A    between atoms: C12_15  and  N4_16 
REMARK    5  A    between atoms: N4_16  and  C13_17 
REMARK    6  A    between atoms: C13_17  and  C14_18 
REMARK    7  A    between atoms: C14_18  and  C15_19 
ROOT
HETATM    1  C7  UNL     1      24.414   3.716  50.474  1.00  0.00     0.203 C 
HETATM    2  C8  UNL     1      24.020   5.029  50.990  1.00  0.00     0.077 C 
HETATM    3  N2  UNL     1      23.714   6.078  51.411  1.00  0.00    -0.196 NA
ENDROOT
BRANCH   1   4
HETATM    4  C6  UNL     1      25.058   2.951  51.551  1.00  0.00     0.089 C 
HETATM    5  N1  UNL     1      24.836   2.988  52.794  1.00  0.00    -0.284 NA
HETATM    6  C5  UNL     1      25.570   2.168  53.641  1.00  0.00     0.169 C 
HETATM    7  C4  UNL     1      26.935   1.843  53.075  1.00  0.00     0.096 C 
HETATM    8  S1  UNL     1      26.395   1.738  51.310  1.00  0.00    -0.103 SA
BRANCH   7   9
HETATM    9  C3  UNL     1      27.439   0.534  53.536  1.00  0.00    -0.014 C 
HETATM   10  C2  UNL     1      28.562   0.337  54.217  1.00  0.00    -0.034 C 
HETATM   11  C1  UNL     1      29.399   1.527  54.558  1.00  0.00     0.036 C 
ENDBRANCH   7   9
ENDBRANCH   1   4
BRANCH   1  12
HETATM   12  C9  UNL     1      23.186   3.063  49.933  1.00  0.00     0.079 A 
HETATM   13  C10 UNL     1      23.148   2.523  48.686  1.00  0.00     0.049 A 
HETATM   14  C11 UNL     1      22.031   1.921  48.176  1.00  0.00     0.138 A 
HETATM   15  N3  UNL     1      20.944   1.879  48.967  1.00  0.00    -0.075 NA
HETATM   16  C12 UNL     1      20.927   2.395  50.204  1.00  0.00     0.722 A 
HETATM   17  N6  UNL     1      22.059   2.967  50.630  1.00  0.00    -0.066 NA
BRANCH  16  18
HETATM   18  N4  UNL     1      19.781   2.342  51.016  1.00  0.00    -0.222 N 
HETATM   19  H12 UNL     1      18.913   2.849  50.716  1.00  0.00     0.177 HD
BRANCH  18  20
HETATM   20  C13 UNL     1      19.747   1.616  52.253  1.00  0.00     0.142 C 
BRANCH  20  21
HETATM   21  C14 UNL     1      19.995   0.129  52.092  1.00  0.00     0.060 C 
BRANCH  21  22
HETATM   22  C15 UNL     1      21.054  -0.323  53.035  1.00  0.00    -0.039 A 
HETATM   23  C16 UNL     1      22.379  -0.004  53.003  1.00  0.00     0.010 A 
HETATM   24  C17 UNL     1      23.270  -0.481  53.930  1.00  0.00     0.020 A 
HETATM   25  C18 UNL     1      22.837  -1.305  54.926  1.00  0.00     0.116 A 
HETATM   26  N5  UNL     1      21.520  -1.641  54.986  1.00  0.00    -0.273 NA
HETATM   27  C19 UNL     1      20.643  -1.168  54.069  1.00  0.00     0.123 A 
ENDBRANCH  21  22
ENDBRANCH  20  21
ENDBRANCH  18  20
ENDBRANCH  16  18
ENDBRANCH   1  12
TORSDOF 7
ENDMDL
