MODEL 1
REMARK VINA RESULT:      -8.1      0.000      0.000
REMARK  6 active torsions:
REMARK  status: ('A' for Active; 'I' for Inactive)
REMARK    1  A    between atoms: N1_7  and  C7_8 
REMARK    2  A    between atoms: C7_8  and  C8_9 
REMARK    3  A    between atoms: C8_9  and  N2_10 
REMARK    4  A    between atoms: C13_16  and  N3_17 
REMARK    5  A    between atoms: C15_19  and  C16_20 
REMARK    6  A    between atoms: C17_22  and  N5_23 
ROOT
HETATM    1  N2  UNL     1      24.722   1.146  53.052  1.00  0.00    -0.349 N 
HETATM    2  C9  UNL     1      23.285   1.130  52.865  1.00  0.00     0.223 C 
HETATM    3  C10 UNL     1      22.680  -0.212  52.721  1.00  0.00     0.063 C 
HETATM    4  O1  UNL     1      23.181   1.812  51.542  1.00  0.00    -0.330 OA
HETATM    5  C11 UNL     1      24.479   2.379  51.212  1.00  0.00     0.059 C 
HETATM    6  C12 UNL     1      24.591   3.365  52.170  1.00  0.00     0.069 C 
HETATM    7  C13 UNL     1      25.451   2.304  52.820  1.00  0.00     0.249 C 
HETATM    8  C14 UNL     1      26.585   2.229  51.764  1.00  0.00     0.085 C 
HETATM    9  C15 UNL     1      25.796   2.532  50.445  1.00  0.00     0.098 C 
ENDROOT
BRANCH   1  10
HETATM   10  C8  UNL     1      25.211   0.154  53.928  1.00  0.00     0.142 C 
BRANCH  10  11
HETATM   11  C7  UNL     1      26.142  -0.763  53.164  1.00  0.00     0.142 C 
BRANCH  11  12
HETATM   12  N1  UNL     1      27.490  -0.774  53.700  1.00  0.00    -0.383 N 
HETATM   13  C2  UNL     1      28.521  -1.683  53.334  1.00  0.00    -0.003 C 
HETATM   14  C1  UNL     1      28.179  -2.795  52.714  1.00  0.00     0.038 C 
HETATM   15  C3  UNL     1      29.894  -1.274  53.695  1.00  0.00     0.056 C 
HETATM   16  C4  UNL     1      30.143   0.210  53.541  1.00  0.00     0.007 C 
HETATM   17  C5  UNL     1      29.041   1.043  54.143  1.00  0.00     0.020 C 
HETATM   18  C6  UNL     1      27.922   0.188  54.699  1.00  0.00     0.122 C 
ENDBRANCH  11  12
ENDBRANCH  10  11
ENDBRANCH   1  10
BRANCH   7  19
HETATM   19  N3  UNL     1      25.991   2.868  54.049  1.00  0.00     0.111 N 
HETATM   20  H20 UNL     1      27.024   2.905  53.992  1.00  0.00     0.316 HD
HETATM   21  H21 UNL     1      25.650   3.859  54.087  1.00  0.00     0.316 HD
ENDBRANCH   7  19
BRANCH   9  22
HETATM   22  C16 UNL     1      26.023   3.845  49.915  1.00  0.00     0.059 A 
HETATM   23  N4  UNL     1      25.762   5.090  49.970  1.00  0.00    -0.267 NA
HETATM   24  C17 UNL     1      26.672   4.752  48.971  1.00  0.00     0.242 A 
BRANCH  24  25
HETATM   25  N5  UNL     1      28.101   4.980  49.219  1.00  0.00    -0.207 NA
HETATM   26 CL1  UNL     1      28.648   6.104  48.010  1.00  0.00    -0.022 Cl
HETATM   27  H26 UNL     1      28.129   5.464  50.162  1.00  0.00     0.143 HD
ENDBRANCH  24  25
ENDBRANCH   9  22
TORSDOF 6
ENDMDL
MODEL 2
REMARK VINA RESULT:      -7.7      1.338      1.386
REMARK  6 active torsions:
REMARK  status: ('A' for Active; 'I' for Inactive)
REMARK    1  A    between atoms: N1_7  and  C7_8 
REMARK    2  A    between atoms: C7_8  and  C8_9 
REMARK    3  A    between atoms: C8_9  and  N2_10 
REMARK    4  A    between atoms: C13_16  and  N3_17 
REMARK    5  A    between atoms: C15_19  and  C16_20 
REMARK    6  A    between atoms: C17_22  and  N5_23 
ROOT
HETATM    1  N2  UNL     1      24.126   1.165  52.912  1.00  0.00    -0.349 N 
HETATM    2  C9  UNL     1      22.691   0.964  52.891  1.00  0.00     0.223 C 
HETATM    3  C10 UNL     1      22.251  -0.448  52.842  1.00  0.00     0.063 C 
HETATM    4  O1  UNL     1      22.353   1.583  51.576  1.00  0.00    -0.330 OA
HETATM    5  C11 UNL     1      23.523   2.297  51.089  1.00  0.00     0.059 C 
HETATM    6  C12 UNL     1      23.613   3.320  52.009  1.00  0.00     0.069 C 
HETATM    7  C13 UNL     1      24.670   2.397  52.576  1.00  0.00     0.249 C 
HETATM    8  C14 UNL     1      25.679   2.430  51.398  1.00  0.00     0.085 C 
HETATM    9  C15 UNL     1      24.716   2.588  50.174  1.00  0.00     0.098 C 
ENDROOT
BRANCH   1  10
HETATM   10  C8  UNL     1      24.832   0.272  53.745  1.00  0.00     0.142 C 
BRANCH  10  11
HETATM   11  C7  UNL     1      25.842  -0.486  52.910  1.00  0.00     0.142 C 
BRANCH  11  12
HETATM   12  N1  UNL     1      27.152  -0.553  53.531  1.00  0.00    -0.383 N 
HETATM   13  C2  UNL     1      28.149  -1.530  53.259  1.00  0.00    -0.003 C 
HETATM   14  C1  UNL     1      27.782  -2.642  52.653  1.00  0.00     0.038 C 
HETATM   15  C3  UNL     1      29.519  -1.185  53.694  1.00  0.00     0.056 C 
HETATM   16  C4  UNL     1      29.861   0.276  53.511  1.00  0.00     0.007 C 
HETATM   17  C5  UNL     1      28.774   1.190  54.015  1.00  0.00     0.020 C 
HETATM   18  C6  UNL     1      27.575   0.418  54.525  1.00  0.00     0.122 C 
ENDBRANCH  11  12
ENDBRANCH  10  11
ENDBRANCH   1  10
BRANCH   7  19
HETATM   19  N3  UNL     1      25.266   3.066  53.724  1.00  0.00     0.111 N 
HETATM   20  H20 UNL     1      26.018   2.475  54.120  1.00  0.00     0.316 HD
HETATM   21  H21 UNL     1      25.721   3.934  53.351  1.00  0.00     0.316 HD
ENDBRANCH   7  19
BRANCH   9  22
HETATM   22  C16 UNL     1      24.712   3.900  49.596  1.00  0.00     0.059 A 
HETATM   23  N4  UNL     1      24.067   4.801  48.969  1.00  0.00    -0.267 NA
HETATM   24  C17 UNL     1      25.374   5.165  49.280  1.00  0.00     0.242 A 
BRANCH  24  25
HETATM   25  N5  UNL     1      25.599   6.047  50.433  1.00  0.00    -0.207 NA
HETATM   26 CL1  UNL     1      24.854   7.571  50.052  1.00  0.00    -0.022 Cl
HETATM   27  H26 UNL     1      25.051   5.595  51.219  1.00  0.00     0.143 HD
ENDBRANCH  24  25
ENDBRANCH   9  22
TORSDOF 6
ENDMDL
MODEL 3
REMARK VINA RESULT:      -7.3      3.710      5.056
REMARK  6 active torsions:
REMARK  status: ('A' for Active; 'I' for Inactive)
REMARK    1  A    between atoms: N1_7  and  C7_8 
REMARK    2  A    between atoms: C7_8  and  C8_9 
REMARK    3  A    between atoms: C8_9  and  N2_10 
REMARK    4  A    between atoms: C13_16  and  N3_17 
REMARK    5  A    between atoms: C15_19  and  C16_20 
REMARK    6  A    between atoms: C17_22  and  N5_23 
ROOT
HETATM    1  N2  UNL     1      21.844   3.253  50.029  1.00  0.00    -0.349 N 
HETATM    2  C9  UNL     1      21.754   2.396  48.864  1.00  0.00     0.223 C 
HETATM    3  C10 UNL     1      21.429   0.980  49.144  1.00  0.00     0.063 C 
HETATM    4  O1  UNL     1      23.167   2.444  48.387  1.00  0.00    -0.330 OA
HETATM    5  C11 UNL     1      23.865   3.488  49.122  1.00  0.00     0.059 C 
HETATM    6  C12 UNL     1      23.236   4.618  48.644  1.00  0.00     0.069 C 
HETATM    7  C13 UNL     1      22.499   4.474  49.958  1.00  0.00     0.249 C 
HETATM    8  C14 UNL     1      23.689   4.698  50.929  1.00  0.00     0.085 C 
HETATM    9  C15 UNL     1      24.873   4.081  50.111  1.00  0.00     0.098 C 
ENDROOT
BRANCH   1  10
HETATM   10  C8  UNL     1      20.843   3.031  50.999  1.00  0.00     0.142 C 
BRANCH  10  11
HETATM   11  C7  UNL     1      21.503   2.752  52.333  1.00  0.00     0.142 C 
BRANCH  11  12
HETATM   12  N1  UNL     1      21.633   1.335  52.614  1.00  0.00    -0.383 N 
HETATM   13  C2  UNL     1      22.855   0.612  52.683  1.00  0.00    -0.003 C 
HETATM   14  C1  UNL     1      23.931   1.156  52.150  1.00  0.00     0.038 C 
HETATM   15  C3  UNL     1      22.786  -0.699  53.361  1.00  0.00     0.056 C 
HETATM   16  C4  UNL     1      21.863  -0.713  54.559  1.00  0.00     0.007 C 
HETATM   17  C5  UNL     1      20.534  -0.066  54.268  1.00  0.00     0.020 C 
HETATM   18  C6  UNL     1      20.473   0.498  52.864  1.00  0.00     0.122 C 
ENDBRANCH  11  12
ENDBRANCH  10  11
ENDBRANCH   1  10
BRANCH   7  19
HETATM   19  N3  UNL     1      21.582   5.598  50.072  1.00  0.00     0.111 N 
HETATM   20  H20 UNL     1      21.628   5.990  51.029  1.00  0.00     0.316 HD
HETATM   21  H21 UNL     1      21.943   6.336  49.421  1.00  0.00     0.316 HD
ENDBRANCH   7  19
BRANCH   9  22
HETATM   22  C16 UNL     1      25.760   5.052  49.541  1.00  0.00     0.059 A 
HETATM   23  N4  UNL     1      26.110   6.273  49.452  1.00  0.00    -0.267 NA
HETATM   24  C17 UNL     1      26.883   5.412  48.676  1.00  0.00     0.242 A 
BRANCH  24  25
HETATM   25  N5  UNL     1      28.202   5.009  49.181  1.00  0.00    -0.207 NA
HETATM   26 CL1  UNL     1      29.378   5.609  48.048  1.00  0.00    -0.022 Cl
HETATM   27  H26 UNL     1      28.310   5.546  50.089  1.00  0.00     0.143 HD
ENDBRANCH  24  25
ENDBRANCH   9  22
TORSDOF 6
ENDMDL
MODEL 4
REMARK VINA RESULT:      -7.3      2.615      6.133
REMARK  6 active torsions:
REMARK  status: ('A' for Active; 'I' for Inactive)
REMARK    1  A    between atoms: N1_7  and  C7_8 
REMARK    2  A    between atoms: C7_8  and  C8_9 
REMARK    3  A    between atoms: C8_9  and  N2_10 
REMARK    4  A    between atoms: C13_16  and  N3_17 
REMARK    5  A    between atoms: C15_19  and  C16_20 
REMARK    6  A    between atoms: C17_22  and  N5_23 
ROOT
HETATM    1  N2  UNL     1      24.821   2.470  51.582  1.00  0.00    -0.349 N 
HETATM    2  C9  UNL     1      25.630   3.264  50.681  1.00  0.00     0.223 C 
HETATM    3  C10 UNL     1      25.089   3.417  49.312  1.00  0.00     0.063 C 
HETATM    4  O1  UNL     1      26.847   2.407  50.587  1.00  0.00    -0.330 OA
HETATM    5  C11 UNL     1      26.758   1.368  51.603  1.00  0.00     0.059 C 
HETATM    6  C12 UNL     1      26.874   2.114  52.757  1.00  0.00     0.069 C 
HETATM    7  C13 UNL     1      25.371   1.936  52.739  1.00  0.00     0.249 C 
HETATM    8  C14 UNL     1      25.307   0.395  52.909  1.00  0.00     0.085 C 
HETATM    9  C15 UNL     1      26.605  -0.052  52.156  1.00  0.00     0.098 C 
ENDROOT
BRANCH   1  10
HETATM   10  C8  UNL     1      23.434   2.711  51.493  1.00  0.00     0.142 C 
BRANCH  10  11
HETATM   11  C7  UNL     1      22.740   1.439  51.054  1.00  0.00     0.142 C 
BRANCH  11  12
HETATM   12  N1  UNL     1      21.586   1.113  51.871  1.00  0.00    -0.383 N 
HETATM   13  C2  UNL     1      20.320   0.686  51.385  1.00  0.00    -0.003 C 
HETATM   14  C1  UNL     1      20.038   0.895  50.114  1.00  0.00     0.038 C 
HETATM   15  C3  UNL     1      19.438   0.039  52.378  1.00  0.00     0.056 C 
HETATM   16  C4  UNL     1      20.176  -0.842  53.360  1.00  0.00     0.007 C 
HETATM   17  C5  UNL     1      21.403  -0.173  53.924  1.00  0.00     0.020 C 
HETATM   18  C6  UNL     1      21.630   1.197  53.320  1.00  0.00     0.122 C 
ENDBRANCH  11  12
ENDBRANCH  10  11
ENDBRANCH   1  10
BRANCH   7  19
HETATM   19  N3  UNL     1      24.841   2.563  53.941  1.00  0.00     0.111 N 
HETATM   20  H20 UNL     1      24.564   1.834  54.622  1.00  0.00     0.316 HD
HETATM   21  H21 UNL     1      25.637   3.096  54.367  1.00  0.00     0.316 HD
ENDBRANCH   7  19
BRANCH   9  22
HETATM   22  C16 UNL     1      27.671  -0.467  53.021  1.00  0.00     0.059 A 
HETATM   23  N4  UNL     1      28.453  -1.398  53.398  1.00  0.00    -0.267 NA
HETATM   24  C17 UNL     1      28.644  -0.198  54.078  1.00  0.00     0.242 A 
BRANCH  24  25
HETATM   25  N5  UNL     1      29.765   0.663  53.678  1.00  0.00    -0.207 NA
HETATM   26 CL1  UNL     1      29.703   2.073  54.694  1.00  0.00    -0.022 Cl
HETATM   27  H26 UNL     1      30.629   0.104  53.934  1.00  0.00     0.143 HD
ENDBRANCH  24  25
ENDBRANCH   9  22
TORSDOF 6
ENDMDL
MODEL 5
REMARK VINA RESULT:      -7.3      3.086      6.665
REMARK  6 active torsions:
REMARK  status: ('A' for Active; 'I' for Inactive)
REMARK    1  A    between atoms: N1_7  and  C7_8 
REMARK    2  A    between atoms: C7_8  and  C8_9 
REMARK    3  A    between atoms: C8_9  and  N2_10 
REMARK    4  A    between atoms: C13_16  and  N3_17 
REMARK    5  A    between atoms: C15_19  and  C16_20 
REMARK    6  A    between atoms: C17_22  and  N5_23 
ROOT
HETATM    1  N2  UNL     1      25.072   3.272  51.178  1.00  0.00    -0.349 N 
HETATM    2  C9  UNL     1      26.414   3.533  50.699  1.00  0.00     0.223 C 
HETATM    3  C10 UNL     1      26.571   3.542  49.228  1.00  0.00     0.063 C 
HETATM    4  O1  UNL     1      27.122   2.326  51.216  1.00  0.00    -0.330 OA
HETATM    5  C11 UNL     1      26.235   1.631  52.136  1.00  0.00     0.059 C 
HETATM    6  C12 UNL     1      26.165   2.536  53.174  1.00  0.00     0.069 C 
HETATM    7  C13 UNL     1      24.857   2.862  52.486  1.00  0.00     0.249 C 
HETATM    8  C14 UNL     1      24.129   1.507  52.694  1.00  0.00     0.085 C 
HETATM    9  C15 UNL     1      25.329   0.502  52.639  1.00  0.00     0.098 C 
ENDROOT
BRANCH   1  10
HETATM   10  C8  UNL     1      24.053   3.928  50.455  1.00  0.00     0.142 C 
BRANCH  10  11
HETATM   11  C7  UNL     1      23.205   2.892  49.748  1.00  0.00     0.142 C 
BRANCH  11  12
HETATM   12  N1  UNL     1      21.821   2.902  50.183  1.00  0.00    -0.383 N 
HETATM   13  C2  UNL     1      20.862   1.884  49.922  1.00  0.00    -0.003 C 
HETATM   14  C1  UNL     1      21.119   1.019  48.962  1.00  0.00     0.038 C 
HETATM   15  C3  UNL     1      19.657   1.906  50.777  1.00  0.00     0.056 C 
HETATM   16  C4  UNL     1      19.939   2.292  52.211  1.00  0.00     0.007 C 
HETATM   17  C5  UNL     1      20.828   3.504  52.317  1.00  0.00     0.020 C 
HETATM   18  C6  UNL     1      21.273   4.001  50.958  1.00  0.00     0.122 C 
ENDBRANCH  11  12
ENDBRANCH  10  11
ENDBRANCH   1  10
BRANCH   7  19
HETATM   19  N3  UNL     1      24.186   3.881  53.279  1.00  0.00     0.111 N 
HETATM   20  H20 UNL     1      24.370   4.816  52.873  1.00  0.00     0.316 HD
HETATM   21  H21 UNL     1      23.159   3.699  53.178  1.00  0.00     0.316 HD
ENDBRANCH   7  19
BRANCH   9  22
HETATM   22  C16 UNL     1      25.705  -0.034  53.914  1.00  0.00     0.059 A 
HETATM   23  N4  UNL     1      25.489  -0.893  54.829  1.00  0.00    -0.267 NA
HETATM   24  C17 UNL     1      26.556  -0.041  55.102  1.00  0.00     0.242 A 
BRANCH  24  25
HETATM   25  N5  UNL     1      27.921  -0.535  54.878  1.00  0.00    -0.207 NA
HETATM   26 CL1  UNL     1      28.933   0.864  54.667  1.00  0.00    -0.022 Cl
HETATM   27  H26 UNL     1      28.184  -1.002  55.793  1.00  0.00     0.143 HD
ENDBRANCH  24  25
ENDBRANCH   9  22
TORSDOF 6
ENDMDL
MODEL 6
REMARK VINA RESULT:      -7.3      2.252      2.546
REMARK  6 active torsions:
REMARK  status: ('A' for Active; 'I' for Inactive)
REMARK    1  A    between atoms: N1_7  and  C7_8 
REMARK    2  A    between atoms: C7_8  and  C8_9 
REMARK    3  A    between atoms: C8_9  and  N2_10 
REMARK    4  A    between atoms: C13_16  and  N3_17 
REMARK    5  A    between atoms: C15_19  and  C16_20 
REMARK    6  A    between atoms: C17_22  and  N5_23 
ROOT
HETATM    1  N2  UNL     1      24.035   1.420  52.916  1.00  0.00    -0.349 N 
HETATM    2  C9  UNL     1      22.789   0.736  53.196  1.00  0.00     0.223 C 
HETATM    3  C10 UNL     1      22.886  -0.737  53.302  1.00  0.00     0.063 C 
HETATM    4  O1  UNL     1      22.029   1.045  51.950  1.00  0.00    -0.330 OA
HETATM    5  C11 UNL     1      22.760   2.057  51.204  1.00  0.00     0.059 C 
HETATM    6  C12 UNL     1      22.633   3.148  52.039  1.00  0.00     0.069 C 
HETATM    7  C13 UNL     1      24.033   2.717  52.421  1.00  0.00     0.249 C 
HETATM    8  C14 UNL     1      24.742   2.959  51.063  1.00  0.00     0.085 C 
HETATM    9  C15 UNL     1      23.590   2.634  50.053  1.00  0.00     0.098 C 
ENDROOT
BRANCH   1  10
HETATM   10  C8  UNL     1      25.149   0.927  53.628  1.00  0.00     0.142 C 
BRANCH  10  11
HETATM   11  C7  UNL     1      26.148   0.354  52.646  1.00  0.00     0.142 C 
BRANCH  11  12
HETATM   12  N1  UNL     1      27.303  -0.238  53.294  1.00  0.00    -0.383 N 
HETATM   13  C2  UNL     1      27.849  -1.520  53.007  1.00  0.00    -0.003 C 
HETATM   14  C1  UNL     1      27.100  -2.381  52.348  1.00  0.00     0.038 C 
HETATM   15  C3  UNL     1      29.226  -1.751  53.488  1.00  0.00     0.056 C 
HETATM   16  C4  UNL     1      30.120  -0.537  53.373  1.00  0.00     0.007 C 
HETATM   17  C5  UNL     1      29.458   0.715  53.888  1.00  0.00     0.020 C 
HETATM   18  C6  UNL     1      28.034   0.460  54.337  1.00  0.00     0.122 C 
ENDBRANCH  11  12
ENDBRANCH  10  11
ENDBRANCH   1  10
BRANCH   7  19
HETATM   19  N3  UNL     1      24.537   3.677  53.392  1.00  0.00     0.111 N 
HETATM   20  H20 UNL     1      24.780   3.189  54.272  1.00  0.00     0.316 HD
HETATM   21  H21 UNL     1      25.430   4.053  52.992  1.00  0.00     0.316 HD
ENDBRANCH   7  19
BRANCH   9  22
HETATM   22  C16 UNL     1      23.014   3.789  49.429  1.00  0.00     0.059 A 
HETATM   23  N4  UNL     1      23.056   5.048  49.241  1.00  0.00    -0.267 NA
HETATM   24  C17 UNL     1      22.004   4.419  48.580  1.00  0.00     0.242 A 
BRANCH  24  25
HETATM   25  N5  UNL     1      22.145   4.140  47.146  1.00  0.00    -0.207 NA
HETATM   26 CL1  UNL     1      22.278   5.678  46.345  1.00  0.00    -0.022 Cl
HETATM   27  H26 UNL     1      23.077   3.641  47.066  1.00  0.00     0.143 HD
ENDBRANCH  24  25
ENDBRANCH   9  22
TORSDOF 6
ENDMDL
MODEL 7
REMARK VINA RESULT:      -7.1      3.426      6.793
REMARK  6 active torsions:
REMARK  status: ('A' for Active; 'I' for Inactive)
REMARK    1  A    between atoms: N1_7  and  C7_8 
REMARK    2  A    between atoms: C7_8  and  C8_9 
REMARK    3  A    between atoms: C8_9  and  N2_10 
REMARK    4  A    between atoms: C13_16  and  N3_17 
REMARK    5  A    between atoms: C15_19  and  C16_20 
REMARK    6  A    between atoms: C17_22  and  N5_23 
ROOT
HETATM    1  N2  UNL     1      23.456   0.626  53.150  1.00  0.00    -0.349 N 
HETATM    2  C9  UNL     1      23.496  -0.769  53.541  1.00  0.00     0.223 C 
HETATM    3  C10 UNL     1      22.474  -1.178  54.530  1.00  0.00     0.063 C 
HETATM    4  O1  UNL     1      24.822  -0.818  54.222  1.00  0.00    -0.330 OA
HETATM    5  C11 UNL     1      25.527   0.424  53.948  1.00  0.00     0.059 C 
HETATM    6  C12 UNL     1      25.761   0.306  52.594  1.00  0.00     0.069 C 
HETATM    7  C13 UNL     1      24.556   1.221  52.548  1.00  0.00     0.249 C 
HETATM    8  C14 UNL     1      25.166   2.461  53.254  1.00  0.00     0.085 C 
HETATM    9  C15 UNL     1      26.157   1.785  54.260  1.00  0.00     0.098 C 
ENDROOT
BRANCH   1  10
HETATM   10  C8  UNL     1      22.159   1.141  52.943  1.00  0.00     0.142 C 
BRANCH  10  11
HETATM   11  C7  UNL     1      21.447   0.287  51.916  1.00  0.00     0.142 C 
BRANCH  11  12
HETATM   12  N1  UNL     1      20.003   0.342  52.039  1.00  0.00    -0.383 N 
HETATM   13  C2  UNL     1      19.091   0.625  50.984  1.00  0.00    -0.003 C 
HETATM   14  C1  UNL     1      19.561   1.192  49.891  1.00  0.00     0.038 C 
HETATM   15  C3  UNL     1      17.686   0.243  51.233  1.00  0.00     0.056 C 
HETATM   16  C4  UNL     1      17.537  -1.054  51.996  1.00  0.00     0.007 C 
HETATM   17  C5  UNL     1      18.448  -1.124  53.194  1.00  0.00     0.020 C 
HETATM   18  C6  UNL     1      19.335   0.098  53.305  1.00  0.00     0.122 C 
ENDBRANCH  11  12
ENDBRANCH  10  11
ENDBRANCH   1  10
BRANCH   7  19
HETATM   19  N3  UNL     1      24.308   1.550  51.152  1.00  0.00     0.111 N 
HETATM   20  H20 UNL     1      24.315   0.685  50.583  1.00  0.00     0.316 HD
HETATM   21  H21 UNL     1      23.335   1.936  51.113  1.00  0.00     0.316 HD
ENDBRANCH   7  19
BRANCH   9  22
HETATM   22  C16 UNL     1      27.537   1.897  53.889  1.00  0.00     0.059 A 
HETATM   23  N4  UNL     1      28.583   2.621  53.831  1.00  0.00    -0.267 NA
HETATM   24  C17 UNL     1      28.764   1.335  53.328  1.00  0.00     0.242 A 
BRANCH  24  25
HETATM   25  N5  UNL     1      29.429   0.338  54.177  1.00  0.00    -0.207 NA
HETATM   26 CL1  UNL     1      29.447  -1.153  53.281  1.00  0.00    -0.022 Cl
HETATM   27  H26 UNL     1      30.426   0.688  54.261  1.00  0.00     0.143 HD
ENDBRANCH  24  25
ENDBRANCH   9  22
TORSDOF 6
ENDMDL
MODEL 8
REMARK VINA RESULT:      -7.0      2.655      6.237
REMARK  6 active torsions:
REMARK  status: ('A' for Active; 'I' for Inactive)
REMARK    1  A    between atoms: N1_7  and  C7_8 
REMARK    2  A    between atoms: C7_8  and  C8_9 
REMARK    3  A    between atoms: C8_9  and  N2_10 
REMARK    4  A    between atoms: C13_16  and  N3_17 
REMARK    5  A    between atoms: C15_19  and  C16_20 
REMARK    6  A    between atoms: C17_22  and  N5_23 
ROOT
HETATM    1  N2  UNL     1      24.079   2.088  52.806  1.00  0.00    -0.349 N 
HETATM    2  C9  UNL     1      23.226   1.012  52.343  1.00  0.00     0.223 C 
HETATM    3  C10 UNL     1      21.853   1.011  52.895  1.00  0.00     0.063 C 
HETATM    4  O1  UNL     1      23.941  -0.163  52.920  1.00  0.00    -0.330 OA
HETATM    5  C11 UNL     1      25.234   0.283  53.418  1.00  0.00     0.059 C 
HETATM    6  C12 UNL     1      25.874   0.611  52.241  1.00  0.00     0.069 C 
HETATM    7  C13 UNL     1      25.459   1.999  52.681  1.00  0.00     0.249 C 
HETATM    8  C14 UNL     1      26.297   2.103  53.982  1.00  0.00     0.085 C 
HETATM    9  C15 UNL     1      26.303   0.613  54.464  1.00  0.00     0.098 C 
ENDROOT
BRANCH   1  10
HETATM   10  C8  UNL     1      23.446   3.347  52.884  1.00  0.00     0.142 C 
BRANCH  10  11
HETATM   11  C7  UNL     1      22.676   3.592  51.604  1.00  0.00     0.142 C 
BRANCH  11  12
HETATM   12  N1  UNL     1      23.314   4.564  50.737  1.00  0.00    -0.383 N 
HETATM   13  C2  UNL     1      23.612   4.377  49.359  1.00  0.00    -0.003 C 
HETATM   14  C1  UNL     1      23.616   3.148  48.885  1.00  0.00     0.038 C 
HETATM   15  C3  UNL     1      23.888   5.609  48.591  1.00  0.00     0.056 C 
HETATM   16  C4  UNL     1      23.025   6.782  48.998  1.00  0.00     0.007 C 
HETATM   17  C5  UNL     1      22.956   6.955  50.493  1.00  0.00     0.020 C 
HETATM   18  C6  UNL     1      23.719   5.871  51.225  1.00  0.00     0.122 C 
ENDBRANCH  11  12
ENDBRANCH  10  11
ENDBRANCH   1  10
BRANCH   7  19
HETATM   19  N3  UNL     1      25.985   2.943  51.706  1.00  0.00     0.111 N 
HETATM   20  H20 UNL     1      25.998   2.506  50.768  1.00  0.00     0.316 HD
HETATM   21  H21 UNL     1      25.297   3.734  51.667  1.00  0.00     0.316 HD
ENDBRANCH   7  19
BRANCH   9  22
HETATM   22  C16 UNL     1      27.552  -0.062  54.265  1.00  0.00     0.059 A 
HETATM   23  N4  UNL     1      28.173  -1.061  53.777  1.00  0.00    -0.267 NA
HETATM   24  C17 UNL     1      29.000  -0.159  54.440  1.00  0.00     0.242 A 
BRANCH  24  25
HETATM   25  N5  UNL     1      29.781   0.793  53.640  1.00  0.00    -0.207 NA
HETATM   26 CL1  UNL     1      29.813   2.288  54.528  1.00  0.00    -0.022 Cl
HETATM   27  H26 UNL     1      30.761   0.389  53.634  1.00  0.00     0.143 HD
ENDBRANCH  24  25
ENDBRANCH   9  22
TORSDOF 6
ENDMDL
MODEL 9
REMARK VINA RESULT:      -7.0      2.852      4.298
REMARK  6 active torsions:
REMARK  status: ('A' for Active; 'I' for Inactive)
REMARK    1  A    between atoms: N1_7  and  C7_8 
REMARK    2  A    between atoms: C7_8  and  C8_9 
REMARK    3  A    between atoms: C8_9  and  N2_10 
REMARK    4  A    between atoms: C13_16  and  N3_17 
REMARK    5  A    between atoms: C15_19  and  C16_20 
REMARK    6  A    between atoms: C17_22  and  N5_23 
ROOT
HETATM    1  N2  UNL     1      22.316   4.483  51.353  1.00  0.00    -0.349 N 
HETATM    2  C9  UNL     1      21.092   5.070  50.846  1.00  0.00     0.223 C 
HETATM    3  C10 UNL     1      20.069   4.105  50.387  1.00  0.00     0.063 C 
HETATM    4  O1  UNL     1      21.613   5.776  49.640  1.00  0.00    -0.330 OA
HETATM    5  C11 UNL     1      23.067   5.765  49.693  1.00  0.00     0.059 C 
HETATM    6  C12 UNL     1      23.302   6.584  50.777  1.00  0.00     0.069 C 
HETATM    7  C13 UNL     1      23.474   5.241  51.453  1.00  0.00     0.249 C 
HETATM    8  C14 UNL     1      24.720   4.737  50.679  1.00  0.00     0.085 C 
HETATM    9  C15 UNL     1      24.489   5.383  49.271  1.00  0.00     0.098 C 
ENDROOT
BRANCH   1  10
HETATM   10  C8  UNL     1      22.127   3.349  52.172  1.00  0.00     0.142 C 
BRANCH  10  11
HETATM   11  C7  UNL     1      22.804   2.158  51.529  1.00  0.00     0.142 C 
BRANCH  11  12
HETATM   12  N1  UNL     1      23.663   1.432  52.446  1.00  0.00    -0.383 N 
HETATM   13  C2  UNL     1      23.397   0.145  52.988  1.00  0.00    -0.003 C 
HETATM   14  C1  UNL     1      22.161  -0.311  52.932  1.00  0.00     0.038 C 
HETATM   15  C3  UNL     1      24.560  -0.560  53.565  1.00  0.00     0.056 C 
HETATM   16  C4  UNL     1      25.843  -0.345  52.793  1.00  0.00     0.007 C 
HETATM   17  C5  UNL     1      26.070   1.104  52.449  1.00  0.00     0.020 C 
HETATM   18  C6  UNL     1      24.925   1.983  52.906  1.00  0.00     0.122 C 
ENDBRANCH  11  12
ENDBRANCH  10  11
ENDBRANCH   1  10
BRANCH   7  19
HETATM   19  N3  UNL     1      23.849   5.491  52.837  1.00  0.00     0.111 N 
HETATM   20  H20 UNL     1      24.721   4.979  53.060  1.00  0.00     0.316 HD
HETATM   21  H21 UNL     1      24.070   6.514  52.898  1.00  0.00     0.316 HD
ENDBRANCH   7  19
BRANCH   9  22
HETATM   22  C16 UNL     1      25.343   6.500  48.991  1.00  0.00     0.059 A 
HETATM   23  N4  UNL     1      25.537   7.570  48.329  1.00  0.00    -0.267 NA
HETATM   24  C17 UNL     1      26.573   7.261  49.207  1.00  0.00     0.242 A 
BRANCH  24  25
HETATM   25  N5  UNL     1      26.638   7.972  50.490  1.00  0.00    -0.207 NA
HETATM   26 CL1  UNL     1      27.550   9.427  50.212  1.00  0.00    -0.022 Cl
HETATM   27  H26 UNL     1      25.633   8.242  50.692  1.00  0.00     0.143 HD
ENDBRANCH  24  25
ENDBRANCH   9  22
TORSDOF 6
ENDMDL
