MODEL 1
REMARK VINA RESULT:      -6.7      0.000      0.000
REMARK  6 active torsions:
REMARK  status: ('A' for Active; 'I' for Inactive)
REMARK    1  A    between atoms: C2_2  and  C3_3 
REMARK    2  A    between atoms: C4_4  and  C5_5 
REMARK    3  A    between atoms: C5_5  and  N1_6 
REMARK    4  A    between atoms: N1_6  and  C6_7 
REMARK    5  A    between atoms: C10_13  and  O1_14 
REMARK    6  A    between atoms: C12_16  and  O2_17 
ROOT
HETATM    1  C6  UNL     1      22.744   1.595  52.085  1.00  0.00     0.137 A 
HETATM    2  N2  UNL     1      22.280   2.820  51.916  1.00  0.00    -0.224 NA
HETATM    3  C7  UNL     1      22.946   3.909  52.333  1.00  0.00     0.235 A 
HETATM    4  N3  UNL     1      24.152   3.798  52.958  1.00  0.00    -0.241 NA
HETATM    5  C8  UNL     1      24.702   2.575  53.171  1.00  0.00     0.075 A 
HETATM    6  C9  UNL     1      25.920   2.431  53.801  1.00  0.00     0.072 A 
HETATM    7  C10 UNL     1      26.444   1.177  53.999  1.00  0.00     0.103 A 
HETATM    8  C12 UNL     1      25.745   0.072  53.565  1.00  0.00     0.102 A 
HETATM    9  C14 UNL     1      24.527   0.266  52.939  1.00  0.00     0.057 A 
HETATM   10  C15 UNL     1      23.965   1.506  52.720  1.00  0.00     0.041 A 
ENDROOT
BRANCH   1  11
HETATM   11  N1  UNL     1      22.003   0.456  51.627  1.00  0.00    -0.371 N 
HETATM   12  H10 UNL     1      22.327  -0.257  50.941  1.00  0.00     0.161 HD
BRANCH  11  13
HETATM   13  C5  UNL     1      20.659   0.265  52.171  1.00  0.00     0.148 C 
BRANCH  13  14
HETATM   14  C4  UNL     1      20.625   0.489  53.628  1.00  0.00    -0.011 C 
HETATM   15  C3  UNL     1      21.038  -0.193  54.683  1.00  0.00    -0.029 C 
BRANCH  15  16
HETATM   16  C2  UNL     1      21.715  -1.512  54.596  1.00  0.00     0.022 C 
HETATM   17  C1  UNL     1      22.955  -1.551  55.496  1.00  0.00     0.009 C 
ENDBRANCH  15  16
ENDBRANCH  13  14
ENDBRANCH  11  13
ENDBRANCH   1  11
BRANCH   8  18
HETATM   18  O2  UNL     1      26.301  -1.182  53.780  1.00  0.00    -0.353 OA
HETATM   19  C13 UNL     1      26.868  -1.831  52.656  1.00  0.00     0.210 C 
ENDBRANCH   8  18
BRANCH   7  20
HETATM   20  O1  UNL     1      27.668   0.995  54.629  1.00  0.00    -0.353 OA
HETATM   21  C11 UNL     1      28.901   1.227  54.015  1.00  0.00     0.210 C 
ENDBRANCH   7  20
TORSDOF 6
ENDMDL
MODEL 2
REMARK VINA RESULT:      -6.7      1.759      2.427
REMARK  6 active torsions:
REMARK  status: ('A' for Active; 'I' for Inactive)
REMARK    1  A    between atoms: C2_2  and  C3_3 
REMARK    2  A    between atoms: C4_4  and  C5_5 
REMARK    3  A    between atoms: C5_5  and  N1_6 
REMARK    4  A    between atoms: N1_6  and  C6_7 
REMARK    5  A    between atoms: C10_13  and  O1_14 
REMARK    6  A    between atoms: C12_16  and  O2_17 
ROOT
HETATM    1  C6  UNL     1      24.555   2.679  52.205  1.00  0.00     0.137 A 
HETATM    2  N2  UNL     1      24.878   3.407  51.150  1.00  0.00    -0.224 NA
HETATM    3  C7  UNL     1      26.107   3.390  50.610  1.00  0.00     0.235 A 
HETATM    4  N3  UNL     1      27.094   2.607  51.133  1.00  0.00    -0.241 NA
HETATM    5  C8  UNL     1      26.847   1.828  52.216  1.00  0.00     0.075 A 
HETATM    6  C9  UNL     1      27.825   1.026  52.767  1.00  0.00     0.072 A 
HETATM    7  C10 UNL     1      27.536   0.251  53.863  1.00  0.00     0.103 A 
HETATM    8  C12 UNL     1      26.269   0.282  54.404  1.00  0.00     0.102 A 
HETATM    9  C14 UNL     1      25.322   1.102  53.817  1.00  0.00     0.057 A 
HETATM   10  C15 UNL     1      25.568   1.895  52.717  1.00  0.00     0.041 A 
ENDROOT
BRANCH   1  11
HETATM   11  N1  UNL     1      23.232   2.723  52.754  1.00  0.00    -0.371 N 
HETATM   12  H10 UNL     1      22.969   3.038  53.711  1.00  0.00     0.161 HD
BRANCH  11  13
HETATM   13  C5  UNL     1      22.132   2.288  51.893  1.00  0.00     0.148 C 
BRANCH  13  14
HETATM   14  C4  UNL     1      22.161   0.831  51.668  1.00  0.00    -0.011 C 
HETATM   15  C3  UNL     1      21.891  -0.230  52.410  1.00  0.00    -0.029 C 
BRANCH  15  16
HETATM   16  C2  UNL     1      21.442  -0.152  53.823  1.00  0.00     0.022 C 
HETATM   17  C1  UNL     1      21.247  -1.553  54.414  1.00  0.00     0.009 C 
ENDBRANCH  15  16
ENDBRANCH  13  14
ENDBRANCH  11  13
ENDBRANCH   1  11
BRANCH   8  18
HETATM   18  O2  UNL     1      26.009  -0.513  55.513  1.00  0.00    -0.353 OA
HETATM   19  C13 UNL     1      24.759  -1.177  55.544  1.00  0.00     0.210 C 
ENDBRANCH   8  18
BRANCH   7  20
HETATM   20  O1  UNL     1      28.496  -0.568  54.444  1.00  0.00    -0.353 OA
HETATM   21  C11 UNL     1      29.679  -0.951  53.808  1.00  0.00     0.210 C 
ENDBRANCH   7  20
TORSDOF 6
ENDMDL
MODEL 3
REMARK VINA RESULT:      -6.5      2.250      4.718
REMARK  6 active torsions:
REMARK  status: ('A' for Active; 'I' for Inactive)
REMARK    1  A    between atoms: C2_2  and  C3_3 
REMARK    2  A    between atoms: C4_4  and  C5_5 
REMARK    3  A    between atoms: C5_5  and  N1_6 
REMARK    4  A    between atoms: N1_6  and  C6_7 
REMARK    5  A    between atoms: C10_13  and  O1_14 
REMARK    6  A    between atoms: C12_16  and  O2_17 
ROOT
HETATM    1  C6  UNL     1      24.102   2.324  52.766  1.00  0.00     0.137 A 
HETATM    2  N2  UNL     1      22.861   1.875  52.824  1.00  0.00    -0.224 NA
HETATM    3  C7  UNL     1      22.570   0.585  53.060  1.00  0.00     0.235 A 
HETATM    4  N3  UNL     1      23.558  -0.333  53.256  1.00  0.00    -0.241 NA
HETATM    5  C8  UNL     1      24.861   0.044  53.214  1.00  0.00     0.075 A 
HETATM    6  C9  UNL     1      25.882  -0.863  53.408  1.00  0.00     0.072 A 
HETATM    7  C10 UNL     1      27.188  -0.442  53.358  1.00  0.00     0.103 A 
HETATM    8  C12 UNL     1      27.467   0.885  53.114  1.00  0.00     0.102 A 
HETATM    9  C14 UNL     1      26.410   1.757  52.925  1.00  0.00     0.057 A 
HETATM   10  C15 UNL     1      25.085   1.378  52.967  1.00  0.00     0.041 A 
ENDROOT
BRANCH   1  11
HETATM   11  N1  UNL     1      24.374   3.708  52.512  1.00  0.00    -0.371 N 
HETATM   12  H10 UNL     1      24.884   4.364  53.139  1.00  0.00     0.161 HD
BRANCH  11  13
HETATM   13  C5  UNL     1      23.894   4.266  51.247  1.00  0.00     0.148 C 
BRANCH  13  14
HETATM   14  C4  UNL     1      24.278   3.424  50.100  1.00  0.00    -0.011 C 
HETATM   15  C3  UNL     1      25.400   3.223  49.429  1.00  0.00    -0.029 C 
BRANCH  15  16
HETATM   16  C2  UNL     1      26.679   3.907  49.742  1.00  0.00     0.022 C 
HETATM   17  C1  UNL     1      26.872   5.141  48.853  1.00  0.00     0.009 C 
ENDBRANCH  15  16
ENDBRANCH  13  14
ENDBRANCH  11  13
ENDBRANCH   1  11
BRANCH   8  18
HETATM   18  O2  UNL     1      28.799   1.278  53.070  1.00  0.00    -0.353 OA
HETATM   19  C13 UNL     1      29.164   2.387  53.871  1.00  0.00     0.210 C 
ENDBRANCH   8  18
BRANCH   7  20
HETATM   20  O1  UNL     1      28.241  -1.327  53.549  1.00  0.00    -0.353 OA
HETATM   21  C11 UNL     1      28.335  -2.572  52.921  1.00  0.00     0.210 C 
ENDBRANCH   7  20
TORSDOF 6
ENDMDL
MODEL 4
REMARK VINA RESULT:      -6.4      3.439      6.293
REMARK  6 active torsions:
REMARK  status: ('A' for Active; 'I' for Inactive)
REMARK    1  A    between atoms: C2_2  and  C3_3 
REMARK    2  A    between atoms: C4_4  and  C5_5 
REMARK    3  A    between atoms: C5_5  and  N1_6 
REMARK    4  A    between atoms: N1_6  and  C6_7 
REMARK    5  A    between atoms: C10_13  and  O1_14 
REMARK    6  A    between atoms: C12_16  and  O2_17 
ROOT
HETATM    1  C6  UNL     1      26.544   2.452  51.860  1.00  0.00     0.137 A 
HETATM    2  N2  UNL     1      27.762   2.194  52.304  1.00  0.00    -0.224 NA
HETATM    3  C7  UNL     1      28.030   1.156  53.113  1.00  0.00     0.235 A 
HETATM    4  N3  UNL     1      27.043   0.308  53.518  1.00  0.00    -0.241 NA
HETATM    5  C8  UNL     1      25.764   0.501  53.107  1.00  0.00     0.075 A 
HETATM    6  C9  UNL     1      24.744  -0.341  53.500  1.00  0.00     0.072 A 
HETATM    7  C10 UNL     1      23.463  -0.113  53.063  1.00  0.00     0.103 A 
HETATM    8  C12 UNL     1      23.207   0.957  52.234  1.00  0.00     0.102 A 
HETATM    9  C14 UNL     1      24.261   1.774  51.867  1.00  0.00     0.057 A 
HETATM   10  C15 UNL     1      25.562   1.581  52.282  1.00  0.00     0.041 A 
ENDROOT
BRANCH   1  11
HETATM   11  N1  UNL     1      26.296   3.570  50.997  1.00  0.00    -0.371 N 
HETATM   12  H10 UNL     1      25.999   4.524  51.290  1.00  0.00     0.161 HD
BRANCH  11  13
HETATM   13  C5  UNL     1      26.478   3.364  49.561  1.00  0.00     0.148 C 
BRANCH  13  14
HETATM   14  C4  UNL     1      27.340   4.401  48.966  1.00  0.00    -0.011 C 
HETATM   15  C3  UNL     1      27.158   5.654  48.584  1.00  0.00    -0.029 C 
BRANCH  15  16
HETATM   16  C2  UNL     1      25.860   6.367  48.693  1.00  0.00     0.022 C 
HETATM   17  C1  UNL     1      25.749   7.098  50.037  1.00  0.00     0.009 C 
ENDBRANCH  15  16
ENDBRANCH  13  14
ENDBRANCH  11  13
ENDBRANCH   1  11
BRANCH   8  18
HETATM   18  O2  UNL     1      21.900   1.161  51.810  1.00  0.00    -0.353 OA
HETATM   19  C13 UNL     1      21.590   0.771  50.485  1.00  0.00     0.210 C 
ENDBRANCH   8  18
BRANCH   7  20
HETATM   20  O1  UNL     1      22.412  -0.940  53.439  1.00  0.00    -0.353 OA
HETATM   21  C11 UNL     1      22.106  -1.256  54.765  1.00  0.00     0.210 C 
ENDBRANCH   7  20
TORSDOF 6
ENDMDL
MODEL 5
REMARK VINA RESULT:      -6.4      3.604      6.091
REMARK  6 active torsions:
REMARK  status: ('A' for Active; 'I' for Inactive)
REMARK    1  A    between atoms: C2_2  and  C3_3 
REMARK    2  A    between atoms: C4_4  and  C5_5 
REMARK    3  A    between atoms: C5_5  and  N1_6 
REMARK    4  A    between atoms: N1_6  and  C6_7 
REMARK    5  A    between atoms: C10_13  and  O1_14 
REMARK    6  A    between atoms: C12_16  and  O2_17 
ROOT
HETATM    1  C6  UNL     1      25.358   2.855  51.019  1.00  0.00     0.137 A 
HETATM    2  N2  UNL     1      24.260   2.903  50.285  1.00  0.00    -0.224 NA
HETATM    3  C7  UNL     1      23.205   2.103  50.511  1.00  0.00     0.235 A 
HETATM    4  N3  UNL     1      23.218   1.191  51.524  1.00  0.00    -0.241 NA
HETATM    5  C8  UNL     1      24.307   1.077  52.327  1.00  0.00     0.075 A 
HETATM    6  C9  UNL     1      24.349   0.163  53.360  1.00  0.00     0.072 A 
HETATM    7  C10 UNL     1      25.468   0.078  54.150  1.00  0.00     0.103 A 
HETATM    8  C12 UNL     1      26.541   0.906  53.903  1.00  0.00     0.102 A 
HETATM    9  C14 UNL     1      26.452   1.806  52.856  1.00  0.00     0.057 A 
HETATM   10  C15 UNL     1      25.349   1.925  52.038  1.00  0.00     0.041 A 
ENDROOT
BRANCH   1  11
HETATM   11  N1  UNL     1      26.464   3.725  50.749  1.00  0.00    -0.371 N 
HETATM   12  H10 UNL     1      27.014   4.263  51.450  1.00  0.00     0.161 HD
BRANCH  11  13
HETATM   13  C5  UNL     1      26.872   3.878  49.352  1.00  0.00     0.148 C 
BRANCH  13  14
HETATM   14  C4  UNL     1      26.737   5.273  48.896  1.00  0.00    -0.011 C 
HETATM   15  C3  UNL     1      27.568   6.171  48.394  1.00  0.00    -0.029 C 
BRANCH  15  16
HETATM   16  C2  UNL     1      29.012   5.915  48.159  1.00  0.00     0.022 C 
HETATM   17  C1  UNL     1      29.628   7.016  47.287  1.00  0.00     0.009 C 
ENDBRANCH  15  16
ENDBRANCH  13  14
ENDBRANCH  11  13
ENDBRANCH   1  11
BRANCH   8  18
HETATM   18  O2  UNL     1      27.659   0.794  54.721  1.00  0.00    -0.353 OA
HETATM   19  C13 UNL     1      28.807   0.190  54.153  1.00  0.00     0.210 C 
ENDBRANCH   8  18
BRANCH   7  20
HETATM   20  O1  UNL     1      25.546  -0.830  55.199  1.00  0.00    -0.353 OA
HETATM   21  C11 UNL     1      24.433  -1.328  55.880  1.00  0.00     0.210 C 
ENDBRANCH   7  20
TORSDOF 6
ENDMDL
MODEL 6
REMARK VINA RESULT:      -6.4      3.075      6.198
REMARK  6 active torsions:
REMARK  status: ('A' for Active; 'I' for Inactive)
REMARK    1  A    between atoms: C2_2  and  C3_3 
REMARK    2  A    between atoms: C4_4  and  C5_5 
REMARK    3  A    between atoms: C5_5  and  N1_6 
REMARK    4  A    between atoms: N1_6  and  C6_7 
REMARK    5  A    between atoms: C10_13  and  O1_14 
REMARK    6  A    between atoms: C12_16  and  O2_17 
ROOT
HETATM    1  C6  UNL     1      24.790  -0.222  53.964  1.00  0.00     0.137 A 
HETATM    2  N2  UNL     1      25.165  -0.851  55.064  1.00  0.00    -0.224 NA
HETATM    3  C7  UNL     1      24.295  -1.490  55.862  1.00  0.00     0.235 A 
HETATM    4  N3  UNL     1      22.964  -1.521  55.569  1.00  0.00    -0.241 NA
HETATM    5  C8  UNL     1      22.494  -0.900  54.457  1.00  0.00     0.075 A 
HETATM    6  C9  UNL     1      21.153  -0.914  54.135  1.00  0.00     0.072 A 
HETATM    7  C10 UNL     1      20.716  -0.275  53.001  1.00  0.00     0.103 A 
HETATM    8  C12 UNL     1      21.624   0.376  52.194  1.00  0.00     0.102 A 
HETATM    9  C14 UNL     1      22.958   0.363  52.559  1.00  0.00     0.057 A 
HETATM   10  C15 UNL     1      23.440  -0.266  53.687  1.00  0.00     0.041 A 
ENDROOT
BRANCH   1  11
HETATM   11  N1  UNL     1      25.748   0.449  53.136  1.00  0.00    -0.371 N 
HETATM   12  H10 UNL     1      25.989   1.462  53.165  1.00  0.00     0.161 HD
BRANCH  11  13
HETATM   13  C5  UNL     1      26.467  -0.357  52.151  1.00  0.00     0.148 C 
BRANCH  13  14
HETATM   14  C4  UNL     1      27.321  -1.371  52.796  1.00  0.00    -0.011 C 
HETATM   15  C3  UNL     1      28.521  -1.358  53.353  1.00  0.00    -0.029 C 
BRANCH  15  16
HETATM   16  C2  UNL     1      29.368  -0.143  53.452  1.00  0.00     0.022 C 
HETATM   17  C1  UNL     1      28.951   0.719  54.651  1.00  0.00     0.009 C 
ENDBRANCH  15  16
ENDBRANCH  13  14
ENDBRANCH  11  13
ENDBRANCH   1  11
BRANCH   8  18
HETATM   18  O2  UNL     1      21.149   1.014  51.055  1.00  0.00    -0.353 OA
HETATM   19  C13 UNL     1      22.119   1.486  50.137  1.00  0.00     0.210 C 
ENDBRANCH   8  18
BRANCH   7  20
HETATM   20  O1  UNL     1      19.374  -0.268  52.646  1.00  0.00    -0.353 OA
HETATM   21  C11 UNL     1      18.413  -1.104  53.221  1.00  0.00     0.210 C 
ENDBRANCH   7  20
TORSDOF 6
ENDMDL
MODEL 7
REMARK VINA RESULT:      -6.3      3.076      6.307
REMARK  6 active torsions:
REMARK  status: ('A' for Active; 'I' for Inactive)
REMARK    1  A    between atoms: C2_2  and  C3_3 
REMARK    2  A    between atoms: C4_4  and  C5_5 
REMARK    3  A    between atoms: C5_5  and  N1_6 
REMARK    4  A    between atoms: N1_6  and  C6_7 
REMARK    5  A    between atoms: C10_13  and  O1_14 
REMARK    6  A    between atoms: C12_16  and  O2_17 
ROOT
HETATM    1  C6  UNL     1      25.126   1.784  53.298  1.00  0.00     0.137 A 
HETATM    2  N2  UNL     1      25.238   0.505  53.611  1.00  0.00    -0.224 NA
HETATM    3  C7  UNL     1      24.194  -0.339  53.585  1.00  0.00     0.235 A 
HETATM    4  N3  UNL     1      22.952   0.092  53.226  1.00  0.00    -0.241 NA
HETATM    5  C8  UNL     1      22.749   1.391  52.888  1.00  0.00     0.075 A 
HETATM    6  C9  UNL     1      21.503   1.855  52.521  1.00  0.00     0.072 A 
HETATM    7  C10 UNL     1      21.338   3.176  52.186  1.00  0.00     0.103 A 
HETATM    8  C12 UNL     1      22.421   4.028  52.220  1.00  0.00     0.102 A 
HETATM    9  C14 UNL     1      23.650   3.516  52.595  1.00  0.00     0.057 A 
HETATM   10  C15 UNL     1      23.860   2.197  52.939  1.00  0.00     0.041 A 
ENDROOT
BRANCH   1  11
HETATM   11  N1  UNL     1      26.264   2.655  53.338  1.00  0.00    -0.371 N 
HETATM   12  H10 UNL     1      26.315   3.585  53.803  1.00  0.00     0.161 HD
BRANCH  11  13
HETATM   13  C5  UNL     1      27.481   2.203  52.665  1.00  0.00     0.148 C 
BRANCH  13  14
HETATM   14  C4  UNL     1      28.651   2.261  53.559  1.00  0.00    -0.011 C 
HETATM   15  C3  UNL     1      29.255   1.397  54.357  1.00  0.00    -0.029 C 
BRANCH  15  16
HETATM   16  C2  UNL     1      28.805  -0.006  54.540  1.00  0.00     0.022 C 
HETATM   17  C1  UNL     1      29.659  -0.967  53.704  1.00  0.00     0.009 C 
ENDBRANCH  15  16
ENDBRANCH  13  14
ENDBRANCH  11  13
ENDBRANCH   1  11
BRANCH   8  18
HETATM   18  O2  UNL     1      22.220   5.359  51.876  1.00  0.00    -0.353 OA
HETATM   19  C13 UNL     1      23.311   6.035  51.279  1.00  0.00     0.210 C 
ENDBRANCH   8  18
BRANCH   7  20
HETATM   20  O1  UNL     1      20.098   3.679  51.812  1.00  0.00    -0.353 OA
HETATM   21  C11 UNL     1      18.998   2.879  51.495  1.00  0.00     0.210 C 
ENDBRANCH   7  20
TORSDOF 6
ENDMDL
MODEL 8
REMARK VINA RESULT:      -6.2      2.498      5.474
REMARK  6 active torsions:
REMARK  status: ('A' for Active; 'I' for Inactive)
REMARK    1  A    between atoms: C2_2  and  C3_3 
REMARK    2  A    between atoms: C4_4  and  C5_5 
REMARK    3  A    between atoms: C5_5  and  N1_6 
REMARK    4  A    between atoms: N1_6  and  C6_7 
REMARK    5  A    between atoms: C10_13  and  O1_14 
REMARK    6  A    between atoms: C12_16  and  O2_17 
ROOT
HETATM    1  C6  UNL     1      24.696   2.519  51.596  1.00  0.00     0.137 A 
HETATM    2  N2  UNL     1      24.873   3.060  50.403  1.00  0.00    -0.224 NA
HETATM    3  C7  UNL     1      23.953   2.979  49.430  1.00  0.00     0.235 A 
HETATM    4  N3  UNL     1      22.773   2.325  49.630  1.00  0.00    -0.241 NA
HETATM    5  C8  UNL     1      22.510   1.740  50.826  1.00  0.00     0.075 A 
HETATM    6  C9  UNL     1      21.326   1.072  51.058  1.00  0.00     0.072 A 
HETATM    7  C10 UNL     1      21.097   0.494  52.282  1.00  0.00     0.103 A 
HETATM    8  C12 UNL     1      22.053   0.587  53.270  1.00  0.00     0.102 A 
HETATM    9  C14 UNL     1      23.225   1.267  52.990  1.00  0.00     0.057 A 
HETATM   10  C15 UNL     1      23.496   1.862  51.776  1.00  0.00     0.041 A 
ENDROOT
BRANCH   1  11
HETATM   11  N1  UNL     1      25.702   2.626  52.611  1.00  0.00    -0.371 N 
HETATM   12  H10 UNL     1      25.598   3.086  53.539  1.00  0.00     0.161 HD
BRANCH  11  13
HETATM   13  C5  UNL     1      27.008   2.032  52.328  1.00  0.00     0.148 C 
BRANCH  13  14
HETATM   14  C4  UNL     1      26.920   0.568  52.180  1.00  0.00    -0.011 C 
HETATM   15  C3  UNL     1      27.449  -0.464  52.814  1.00  0.00    -0.029 C 
BRANCH  15  16
HETATM   16  C2  UNL     1      28.374  -0.333  53.969  1.00  0.00     0.022 C 
HETATM   17  C1  UNL     1      29.794  -0.765  53.585  1.00  0.00     0.009 C 
ENDBRANCH  15  16
ENDBRANCH  13  14
ENDBRANCH  11  13
ENDBRANCH   1  11
BRANCH   8  18
HETATM   18  O2  UNL     1      21.791  -0.009  54.496  1.00  0.00    -0.353 OA
HETATM   19  C13 UNL     1      22.427  -1.248  54.753  1.00  0.00     0.210 C 
ENDBRANCH   8  18
BRANCH   7  20
HETATM   20  O1  UNL     1      19.916  -0.187  52.551  1.00  0.00    -0.353 OA
HETATM   21  C11 UNL     1      18.750  -0.051  51.795  1.00  0.00     0.210 C 
ENDBRANCH   7  20
TORSDOF 6
ENDMDL
MODEL 9
REMARK VINA RESULT:      -6.1      2.326      4.050
REMARK  6 active torsions:
REMARK  status: ('A' for Active; 'I' for Inactive)
REMARK    1  A    between atoms: C2_2  and  C3_3 
REMARK    2  A    between atoms: C4_4  and  C5_5 
REMARK    3  A    between atoms: C5_5  and  N1_6 
REMARK    4  A    between atoms: N1_6  and  C6_7 
REMARK    5  A    between atoms: C10_13  and  O1_14 
REMARK    6  A    between atoms: C12_16  and  O2_17 
ROOT
HETATM    1  C6  UNL     1      22.098   1.301  52.875  1.00  0.00     0.137 A 
HETATM    2  N2  UNL     1      21.281   0.645  53.679  1.00  0.00    -0.224 NA
HETATM    3  C7  UNL     1      21.683  -0.396  54.425  1.00  0.00     0.235 A 
HETATM    4  N3  UNL     1      22.975  -0.829  54.388  1.00  0.00    -0.241 NA
HETATM    5  C8  UNL     1      23.882  -0.210  53.589  1.00  0.00     0.075 A 
HETATM    6  C9  UNL     1      25.195  -0.626  53.530  1.00  0.00     0.072 A 
HETATM    7  C10 UNL     1      26.082   0.026  52.710  1.00  0.00     0.103 A 
HETATM    8  C12 UNL     1      25.650   1.092  51.950  1.00  0.00     0.102 A 
HETATM    9  C14 UNL     1      24.323   1.472  52.043  1.00  0.00     0.057 A 
HETATM   10  C15 UNL     1      23.400   0.846  52.853  1.00  0.00     0.041 A 
ENDROOT
BRANCH   1  11
HETATM   11  N1  UNL     1      21.632   2.408  52.093  1.00  0.00    -0.371 N 
HETATM   12  H10 UNL     1      22.019   3.375  52.094  1.00  0.00     0.161 HD
BRANCH  11  13
HETATM   13  C5  UNL     1      20.501   2.169  51.197  1.00  0.00     0.148 C 
BRANCH  13  14
HETATM   14  C4  UNL     1      20.818   1.151  50.179  1.00  0.00    -0.011 C 
HETATM   15  C3  UNL     1      21.638   1.097  49.143  1.00  0.00    -0.029 C 
BRANCH  15  16
HETATM   16  C2  UNL     1      22.530   2.214  48.741  1.00  0.00     0.022 C 
HETATM   17  C1  UNL     1      22.097   2.801  47.392  1.00  0.00     0.009 C 
ENDBRANCH  15  16
ENDBRANCH  13  14
ENDBRANCH  11  13
ENDBRANCH   1  11
BRANCH   8  18
HETATM   18  O2  UNL     1      26.572   1.730  51.130  1.00  0.00    -0.353 OA
HETATM   19  C13 UNL     1      26.230   3.025  50.671  1.00  0.00     0.210 C 
ENDBRANCH   8  18
BRANCH   7  20
HETATM   20  O1  UNL     1      27.412  -0.365  52.625  1.00  0.00    -0.353 OA
HETATM   21  C11 UNL     1      28.302  -0.331  53.702  1.00  0.00     0.210 C 
ENDBRANCH   7  20
TORSDOF 6
ENDMDL
