MODEL 1
REMARK VINA RESULT:      -6.8      0.000      0.000
REMARK  8 active torsions:
REMARK  status: ('A' for Active; 'I' for Inactive)
REMARK    1  A    between atoms: C7_7  and  N1_8 
REMARK    2  A    between atoms: N1_8  and  C8_9 
REMARK    3  A    between atoms: C11_15  and  C12_16 
REMARK    4  A    between atoms: C12_16  and  N5_17 
REMARK    5  A    between atoms: N5_17  and  C13_18 
REMARK    6  A    between atoms: C13_18  and  C14_19 
REMARK    7  A    between atoms: C14_19  and  C15_20 
REMARK    8  A    between atoms: C15_20  and  N6_22 
ROOT
HETATM    1  C1  UNL     1      23.348  -1.555  55.689  1.00  0.00     0.018 C 
HETATM    2  C2  UNL     1      22.677  -1.109  54.780  1.00  0.00    -0.078 C 
HETATM    3  C3  UNL     1      21.876  -0.591  53.731  1.00  0.00     0.019 A 
HETATM    4  C4  UNL     1      20.506  -0.811  53.843  1.00  0.00     0.021 A 
HETATM    5  C5  UNL     1      19.665  -0.336  52.860  1.00  0.00     0.004 A 
HETATM    6  C6  UNL     1      20.243   0.339  51.816  1.00  0.00     0.029 A 
HETATM    7  C7  UNL     1      21.618   0.553  51.714  1.00  0.00     0.035 A 
HETATM    8  C19 UNL     1      22.451   0.084  52.683  1.00  0.00     0.050 A 
ENDROOT
BRANCH   7   9
HETATM    9  N1  UNL     1      21.997   1.279  50.524  1.00  0.00    -0.339 N 
HETATM   10  H5  UNL     1      22.419   0.847  49.690  1.00  0.00     0.167 HD
BRANCH   9  11
HETATM   11  C8  UNL     1      21.755   2.706  50.533  1.00  0.00     0.158 A 
HETATM   12  N2  UNL     1      20.742   3.123  49.867  1.00  0.00    -0.220 NA
HETATM   13  C9  UNL     1      20.460   4.513  49.842  1.00  0.00     0.257 A 
HETATM   14  N3  UNL     1      21.216   5.373  50.488  1.00  0.00    -0.165 NA
HETATM   15  N4  UNL     1      22.320   4.891  51.210  1.00  0.00    -0.261 N 
HETATM   16  C10 UNL     1      23.429   5.254  52.034  1.00  0.00     0.190 A 
HETATM   17  C18 UNL     1      22.703   3.537  51.310  1.00  0.00     0.104 A 
HETATM   18  C11 UNL     1      23.761   3.820  52.102  1.00  0.00    -0.011 A 
BRANCH  18  19
HETATM   19  C12 UNL     1      24.690   2.806  52.655  1.00  0.00     0.152 C 
BRANCH  19  20
HETATM   20  N5  UNL     1      25.953   2.817  52.061  1.00  0.00    -0.417 N 
HETATM   21  H11 UNL     1      26.391   3.758  51.947  1.00  0.00     0.153 HD
BRANCH  20  22
HETATM   22  C13 UNL     1      26.701   1.719  51.684  1.00  0.00     0.116 C 
BRANCH  22  23
HETATM   23  C14 UNL     1      26.306   0.326  52.020  1.00  0.00     0.054 C 
BRANCH  23  24
HETATM   24  C15 UNL     1      27.124  -0.195  53.205  1.00  0.00     0.217 C 
HETATM   25  C16 UNL     1      26.332   0.046  54.462  1.00  0.00     0.042 C 
BRANCH  24  26
HETATM   26  N6  UNL     1      28.346   0.567  53.350  1.00  0.00     0.083 N 
HETATM   27  C17 UNL     1      29.091   0.287  54.536  1.00  0.00     0.307 C 
HETATM   28  H20 UNL     1      28.193   1.565  53.139  1.00  0.00     0.315 HD
ENDBRANCH  24  26
ENDBRANCH  23  24
ENDBRANCH  22  23
ENDBRANCH  20  22
ENDBRANCH  19  20
ENDBRANCH  18  19
ENDBRANCH   9  11
ENDBRANCH   7   9
TORSDOF 8
ENDMDL
MODEL 2
REMARK VINA RESULT:      -6.8      1.618      2.506
REMARK  8 active torsions:
REMARK  status: ('A' for Active; 'I' for Inactive)
REMARK    1  A    between atoms: C7_7  and  N1_8 
REMARK    2  A    between atoms: N1_8  and  C8_9 
REMARK    3  A    between atoms: C11_15  and  C12_16 
REMARK    4  A    between atoms: C12_16  and  N5_17 
REMARK    5  A    between atoms: N5_17  and  C13_18 
REMARK    6  A    between atoms: C13_18  and  C14_19 
REMARK    7  A    between atoms: C14_19  and  C15_20 
REMARK    8  A    between atoms: C15_20  and  N6_22 
ROOT
HETATM    1  C1  UNL     1      17.745  -2.684  53.618  1.00  0.00     0.018 C 
HETATM    2  C2  UNL     1      18.675  -1.902  53.585  1.00  0.00    -0.078 C 
HETATM    3  C3  UNL     1      19.772  -1.005  53.556  1.00  0.00     0.019 A 
HETATM    4  C4  UNL     1      20.918  -1.420  54.227  1.00  0.00     0.021 A 
HETATM    5  C5  UNL     1      22.026  -0.598  54.241  1.00  0.00     0.004 A 
HETATM    6  C6  UNL     1      21.925   0.596  53.576  1.00  0.00     0.029 A 
HETATM    7  C7  UNL     1      20.771   1.002  52.906  1.00  0.00     0.035 A 
HETATM    8  C19 UNL     1      19.676   0.194  52.892  1.00  0.00     0.050 A 
ENDROOT
BRANCH   7   9
HETATM    9  N1  UNL     1      20.895   2.301  52.287  1.00  0.00    -0.339 N 
HETATM   10  H5  UNL     1      20.645   3.189  52.745  1.00  0.00     0.167 HD
BRANCH   9  11
HETATM   11  C8  UNL     1      21.407   2.326  50.934  1.00  0.00     0.158 A 
HETATM   12  N2  UNL     1      20.576   2.054  49.996  1.00  0.00    -0.220 NA
HETATM   13  C9  UNL     1      21.028   2.064  48.652  1.00  0.00     0.257 A 
HETATM   14  N3  UNL     1      22.276   2.347  48.355  1.00  0.00    -0.165 NA
HETATM   15  N4  UNL     1      23.168   2.642  49.399  1.00  0.00    -0.261 N 
HETATM   16  C10 UNL     1      24.515   2.987  49.727  1.00  0.00     0.190 A 
HETATM   17  C18 UNL     1      22.841   2.663  50.772  1.00  0.00     0.104 A 
HETATM   18  C11 UNL     1      24.096   3.001  51.139  1.00  0.00    -0.011 A 
BRANCH  18  19
HETATM   19  C12 UNL     1      24.528   3.229  52.539  1.00  0.00     0.152 C 
BRANCH  19  20
HETATM   20  N5  UNL     1      25.746   2.627  52.857  1.00  0.00    -0.417 N 
HETATM   21  H11 UNL     1      26.552   2.886  52.245  1.00  0.00     0.153 HD
BRANCH  20  22
HETATM   22  C13 UNL     1      26.004   1.793  53.927  1.00  0.00     0.116 C 
BRANCH  22  23
HETATM   23  C14 UNL     1      25.904   0.313  53.833  1.00  0.00     0.054 C 
BRANCH  23  24
HETATM   24  C15 UNL     1      27.186  -0.278  53.241  1.00  0.00     0.217 C 
HETATM   25  C16 UNL     1      26.852  -1.619  52.645  1.00  0.00     0.042 C 
BRANCH  24  26
HETATM   26  N6  UNL     1      28.154  -0.536  54.286  1.00  0.00     0.083 N 
HETATM   27  C17 UNL     1      29.504  -0.667  53.836  1.00  0.00     0.307 C 
HETATM   28  H20 UNL     1      27.822  -1.267  54.933  1.00  0.00     0.315 HD
ENDBRANCH  24  26
ENDBRANCH  23  24
ENDBRANCH  22  23
ENDBRANCH  20  22
ENDBRANCH  19  20
ENDBRANCH  18  19
ENDBRANCH   9  11
ENDBRANCH   7   9
TORSDOF 8
ENDMDL
MODEL 3
REMARK VINA RESULT:      -6.8      2.227      7.210
REMARK  8 active torsions:
REMARK  status: ('A' for Active; 'I' for Inactive)
REMARK    1  A    between atoms: C7_7  and  N1_8 
REMARK    2  A    between atoms: N1_8  and  C8_9 
REMARK    3  A    between atoms: C11_15  and  C12_16 
REMARK    4  A    between atoms: C12_16  and  N5_17 
REMARK    5  A    between atoms: N5_17  and  C13_18 
REMARK    6  A    between atoms: C13_18  and  C14_19 
REMARK    7  A    between atoms: C14_19  and  C15_20 
REMARK    8  A    between atoms: C15_20  and  N6_22 
ROOT
HETATM    1  C1  UNL     1      26.825   6.719  48.198  1.00  0.00     0.018 C 
HETATM    2  C2  UNL     1      26.390   5.845  48.921  1.00  0.00    -0.078 C 
HETATM    3  C3  UNL     1      25.863   4.835  49.766  1.00  0.00     0.019 A 
HETATM    4  C4  UNL     1      24.622   5.102  50.337  1.00  0.00     0.021 A 
HETATM    5  C5  UNL     1      24.048   4.165  51.169  1.00  0.00     0.004 A 
HETATM    6  C6  UNL     1      24.748   3.006  51.382  1.00  0.00     0.029 A 
HETATM    7  C7  UNL     1      25.992   2.749  50.804  1.00  0.00     0.035 A 
HETATM    8  C19 UNL     1      26.562   3.673  49.983  1.00  0.00     0.050 A 
ENDROOT
BRANCH   7   9
HETATM    9  N1  UNL     1      26.544   1.468  51.180  1.00  0.00    -0.339 N 
HETATM   10  H5  UNL     1      26.517   0.627  50.587  1.00  0.00     0.167 HD
BRANCH   9  11
HETATM   11  C8  UNL     1      27.173   1.393  52.482  1.00  0.00     0.158 A 
HETATM   12  N2  UNL     1      28.286   2.014  52.623  1.00  0.00    -0.220 NA
HETATM   13  C9  UNL     1      28.943   1.972  53.878  1.00  0.00     0.257 A 
HETATM   14  N3  UNL     1      28.432   1.311  54.893  1.00  0.00    -0.165 NA
HETATM   15  N4  UNL     1      27.212   0.638  54.714  1.00  0.00    -0.261 N 
HETATM   16  C10 UNL     1      26.226  -0.184  55.339  1.00  0.00     0.190 A 
HETATM   17  C18 UNL     1      26.465   0.605  53.518  1.00  0.00     0.104 A 
HETATM   18  C11 UNL     1      25.496  -0.164  54.060  1.00  0.00    -0.011 A 
BRANCH  18  19
HETATM   19  C12 UNL     1      24.283  -0.620  53.338  1.00  0.00     0.152 C 
BRANCH  19  20
HETATM   20  N5  UNL     1      23.158   0.173  53.570  1.00  0.00    -0.417 N 
HETATM   21  H11 UNL     1      23.345   1.110  53.992  1.00  0.00     0.153 HD
BRANCH  20  22
HETATM   22  C13 UNL     1      21.852  -0.124  53.235  1.00  0.00     0.116 C 
BRANCH  22  23
HETATM   23  C14 UNL     1      20.718   0.785  53.548  1.00  0.00     0.054 C 
BRANCH  23  24
HETATM   24  C15 UNL     1      20.227   1.490  52.280  1.00  0.00     0.217 C 
HETATM   25  C16 UNL     1      20.622   0.650  51.095  1.00  0.00     0.042 C 
BRANCH  24  26
HETATM   26  N6  UNL     1      20.903   2.759  52.113  1.00  0.00     0.083 N 
HETATM   27  C17 UNL     1      20.057   3.844  51.729  1.00  0.00     0.307 C 
HETATM   28  H20 UNL     1      21.773   2.652  51.571  1.00  0.00     0.315 HD
ENDBRANCH  24  26
ENDBRANCH  23  24
ENDBRANCH  22  23
ENDBRANCH  20  22
ENDBRANCH  19  20
ENDBRANCH  18  19
ENDBRANCH   9  11
ENDBRANCH   7   9
TORSDOF 8
ENDMDL
MODEL 4
REMARK VINA RESULT:      -6.7      3.049      5.255
REMARK  8 active torsions:
REMARK  status: ('A' for Active; 'I' for Inactive)
REMARK    1  A    between atoms: C7_7  and  N1_8 
REMARK    2  A    between atoms: N1_8  and  C8_9 
REMARK    3  A    between atoms: C11_15  and  C12_16 
REMARK    4  A    between atoms: C12_16  and  N5_17 
REMARK    5  A    between atoms: N5_17  and  C13_18 
REMARK    6  A    between atoms: C13_18  and  C14_19 
REMARK    7  A    between atoms: C14_19  and  C15_20 
REMARK    8  A    between atoms: C15_20  and  N6_22 
ROOT
HETATM    1  C1  UNL     1      28.929   2.540  53.665  1.00  0.00     0.018 C 
HETATM    2  C2  UNL     1      27.864   1.972  53.528  1.00  0.00    -0.078 C 
HETATM    3  C3  UNL     1      26.630   1.291  53.375  1.00  0.00     0.019 A 
HETATM    4  C4  UNL     1      26.676  -0.094  53.509  1.00  0.00     0.021 A 
HETATM    5  C5  UNL     1      25.514  -0.823  53.373  1.00  0.00     0.004 A 
HETATM    6  C6  UNL     1      24.364  -0.122  53.114  1.00  0.00     0.029 A 
HETATM    7  C7  UNL     1      24.330   1.266  52.981  1.00  0.00     0.035 A 
HETATM    8  C19 UNL     1      25.476   1.988  53.114  1.00  0.00     0.050 A 
ENDROOT
BRANCH   7   9
HETATM    9  N1  UNL     1      23.011   1.782  52.699  1.00  0.00    -0.339 N 
HETATM   10  H5  UNL     1      22.375   2.171  53.409  1.00  0.00     0.167 HD
BRANCH   9  11
HETATM   11  C8  UNL     1      22.582   1.737  51.317  1.00  0.00     0.158 A 
HETATM   12  N2  UNL     1      21.769   0.799  50.995  1.00  0.00    -0.220 NA
HETATM   13  C9  UNL     1      21.318   0.710  49.653  1.00  0.00     0.257 A 
HETATM   14  N3  UNL     1      21.717   1.569  48.742  1.00  0.00    -0.165 NA
HETATM   15  N4  UNL     1      22.608   2.588  49.119  1.00  0.00    -0.261 N 
HETATM   16  C10 UNL     1      23.356   3.717  48.665  1.00  0.00     0.190 A 
HETATM   17  C18 UNL     1      23.127   2.780  50.417  1.00  0.00     0.104 A 
HETATM   18  C11 UNL     1      23.846   3.862  50.047  1.00  0.00    -0.011 A 
BRANCH  18  19
HETATM   19  C12 UNL     1      24.697   4.659  50.964  1.00  0.00     0.152 C 
BRANCH  19  20
HETATM   20  N5  UNL     1      24.695   6.027  50.687  1.00  0.00    -0.417 N 
HETATM   21  H11 UNL     1      23.886   6.565  51.070  1.00  0.00     0.153 HD
BRANCH  20  22
HETATM   22  C13 UNL     1      25.678   6.740  50.031  1.00  0.00     0.116 C 
BRANCH  22  23
HETATM   23  C14 UNL     1      25.918   6.617  48.569  1.00  0.00     0.054 C 
BRANCH  23  24
HETATM   24  C15 UNL     1      27.384   6.276  48.290  1.00  0.00     0.217 C 
HETATM   25  C16 UNL     1      27.612   4.840  48.680  1.00  0.00     0.042 C 
BRANCH  24  26
HETATM   26  N6  UNL     1      28.257   7.063  49.135  1.00  0.00     0.083 N 
HETATM   27  C17 UNL     1      29.102   7.980  48.437  1.00  0.00     0.307 C 
HETATM   28  H20 UNL     1      28.718   6.477  49.846  1.00  0.00     0.315 HD
ENDBRANCH  24  26
ENDBRANCH  23  24
ENDBRANCH  22  23
ENDBRANCH  20  22
ENDBRANCH  19  20
ENDBRANCH  18  19
ENDBRANCH   9  11
ENDBRANCH   7   9
TORSDOF 8
ENDMDL
MODEL 5
REMARK VINA RESULT:      -6.7      1.704      2.459
REMARK  8 active torsions:
REMARK  status: ('A' for Active; 'I' for Inactive)
REMARK    1  A    between atoms: C7_7  and  N1_8 
REMARK    2  A    between atoms: N1_8  and  C8_9 
REMARK    3  A    between atoms: C11_15  and  C12_16 
REMARK    4  A    between atoms: C12_16  and  N5_17 
REMARK    5  A    between atoms: N5_17  and  C13_18 
REMARK    6  A    between atoms: C13_18  and  C14_19 
REMARK    7  A    between atoms: C14_19  and  C15_20 
REMARK    8  A    between atoms: C15_20  and  N6_22 
ROOT
HETATM    1  C1  UNL     1      21.152  -1.725  54.233  1.00  0.00     0.018 C 
HETATM    2  C2  UNL     1      21.493  -0.813  53.507  1.00  0.00    -0.078 C 
HETATM    3  C3  UNL     1      21.878   0.243  52.643  1.00  0.00     0.019 A 
HETATM    4  C4  UNL     1      21.490   0.117  51.312  1.00  0.00     0.021 A 
HETATM    5  C5  UNL     1      21.828   1.107  50.414  1.00  0.00     0.004 A 
HETATM    6  C6  UNL     1      22.537   2.174  50.900  1.00  0.00     0.029 A 
HETATM    7  C7  UNL     1      22.922   2.291  52.236  1.00  0.00     0.035 A 
HETATM    8  C19 UNL     1      22.589   1.315  53.125  1.00  0.00     0.050 A 
ENDROOT
BRANCH   7   9
HETATM    9  N1  UNL     1      23.669   3.495  52.515  1.00  0.00    -0.339 N 
HETATM   10  H5  UNL     1      24.312   3.609  53.310  1.00  0.00     0.167 HD
BRANCH   9  11
HETATM   11  C8  UNL     1      23.482   4.598  51.596  1.00  0.00     0.158 A 
HETATM   12  N2  UNL     1      22.489   5.377  51.823  1.00  0.00    -0.220 NA
HETATM   13  C9  UNL     1      22.262   6.473  50.952  1.00  0.00     0.257 A 
HETATM   14  N3  UNL     1      23.048   6.701  49.924  1.00  0.00    -0.165 NA
HETATM   15  N4  UNL     1      24.129   5.833  49.695  1.00  0.00    -0.261 N 
HETATM   16  C10 UNL     1      25.238   5.543  48.844  1.00  0.00     0.190 A 
HETATM   17  C18 UNL     1      24.458   4.712  50.487  1.00  0.00     0.104 A 
HETATM   18  C11 UNL     1      25.527   4.397  49.723  1.00  0.00    -0.011 A 
BRANCH  18  19
HETATM   19  C12 UNL     1      26.434   3.253  49.981  1.00  0.00     0.152 C 
BRANCH  19  20
HETATM   20  N5  UNL     1      26.885   3.179  51.300  1.00  0.00    -0.417 N 
HETATM   21  H11 UNL     1      27.374   4.029  51.659  1.00  0.00     0.153 HD
BRANCH  20  22
HETATM   22  C13 UNL     1      26.688   2.138  52.185  1.00  0.00     0.116 C 
BRANCH  22  23
HETATM   23  C14 UNL     1      27.807   1.317  52.720  1.00  0.00     0.054 C 
BRANCH  23  24
HETATM   24  C15 UNL     1      27.395  -0.154  52.822  1.00  0.00     0.217 C 
HETATM   25  C16 UNL     1      25.896  -0.229  52.699  1.00  0.00     0.042 C 
BRANCH  24  26
HETATM   26  N6  UNL     1      27.715  -0.679  54.133  1.00  0.00     0.083 N 
HETATM   27  C17 UNL     1      28.604   0.130  54.904  1.00  0.00     0.307 C 
HETATM   28  H20 UNL     1      27.944  -1.684  54.088  1.00  0.00     0.315 HD
ENDBRANCH  24  26
ENDBRANCH  23  24
ENDBRANCH  22  23
ENDBRANCH  20  22
ENDBRANCH  19  20
ENDBRANCH  18  19
ENDBRANCH   9  11
ENDBRANCH   7   9
TORSDOF 8
ENDMDL
MODEL 6
REMARK VINA RESULT:      -6.6      2.801      5.664
REMARK  8 active torsions:
REMARK  status: ('A' for Active; 'I' for Inactive)
REMARK    1  A    between atoms: C7_7  and  N1_8 
REMARK    2  A    between atoms: N1_8  and  C8_9 
REMARK    3  A    between atoms: C11_15  and  C12_16 
REMARK    4  A    between atoms: C12_16  and  N5_17 
REMARK    5  A    between atoms: N5_17  and  C13_18 
REMARK    6  A    between atoms: C13_18  and  C14_19 
REMARK    7  A    between atoms: C14_19  and  C15_20 
REMARK    8  A    between atoms: C15_20  and  N6_22 
ROOT
HETATM    1  C1  UNL     1      27.946   7.465  47.491  1.00  0.00     0.018 C 
HETATM    2  C2  UNL     1      27.304   6.594  48.044  1.00  0.00    -0.078 C 
HETATM    3  C3  UNL     1      26.572   5.567  48.692  1.00  0.00     0.019 A 
HETATM    4  C4  UNL     1      27.271   4.395  48.960  1.00  0.00     0.021 A 
HETATM    5  C5  UNL     1      26.623   3.353  49.589  1.00  0.00     0.004 A 
HETATM    6  C6  UNL     1      25.307   3.544  49.919  1.00  0.00     0.029 A 
HETATM    7  C7  UNL     1      24.615   4.724  49.645  1.00  0.00     0.035 A 
HETATM    8  C19 UNL     1      25.252   5.754  49.024  1.00  0.00     0.050 A 
ENDROOT
BRANCH   7   9
HETATM    9  N1  UNL     1      23.237   4.693  50.075  1.00  0.00    -0.339 N 
HETATM   10  H5  UNL     1      22.824   5.351  50.751  1.00  0.00     0.167 HD
BRANCH   9  11
HETATM   11  C8  UNL     1      22.404   3.660  49.499  1.00  0.00     0.158 A 
HETATM   12  N2  UNL     1      21.892   3.904  48.348  1.00  0.00    -0.220 NA
HETATM   13  C9  UNL     1      21.068   2.925  47.739  1.00  0.00     0.257 A 
HETATM   14  N3  UNL     1      20.822   1.777  48.332  1.00  0.00    -0.165 NA
HETATM   15  N4  UNL     1      21.393   1.532  49.591  1.00  0.00    -0.261 N 
HETATM   16  C10 UNL     1      21.507   0.595  50.664  1.00  0.00     0.190 A 
HETATM   17  C18 UNL     1      22.227   2.425  50.298  1.00  0.00     0.104 A 
HETATM   18  C11 UNL     1      22.380   1.574  51.336  1.00  0.00    -0.011 A 
BRANCH  18  19
HETATM   19  C12 UNL     1      23.203   1.853  52.537  1.00  0.00     0.152 C 
BRANCH  19  20
HETATM   20  N5  UNL     1      24.137   0.856  52.823  1.00  0.00    -0.417 N 
HETATM   21  H11 UNL     1      23.850   0.163  53.551  1.00  0.00     0.153 HD
BRANCH  20  22
HETATM   22  C13 UNL     1      25.351   0.653  52.199  1.00  0.00     0.116 C 
BRANCH  22  23
HETATM   23  C14 UNL     1      26.578   0.258  52.939  1.00  0.00     0.054 C 
BRANCH  23  24
HETATM   24  C15 UNL     1      27.034   1.387  53.868  1.00  0.00     0.217 C 
HETATM   25  C16 UNL     1      27.964   2.282  53.094  1.00  0.00     0.042 C 
BRANCH  24  26
HETATM   26  N6  UNL     1      27.814   0.855  54.966  1.00  0.00     0.083 N 
HETATM   27  C17 UNL     1      28.786  -0.123  54.594  1.00  0.00     0.307 C 
HETATM   28  H20 UNL     1      27.214   0.612  55.768  1.00  0.00     0.315 HD
ENDBRANCH  24  26
ENDBRANCH  23  24
ENDBRANCH  22  23
ENDBRANCH  20  22
ENDBRANCH  19  20
ENDBRANCH  18  19
ENDBRANCH   9  11
ENDBRANCH   7   9
TORSDOF 8
ENDMDL
MODEL 7
REMARK VINA RESULT:      -6.6      7.250      9.307
REMARK  8 active torsions:
REMARK  status: ('A' for Active; 'I' for Inactive)
REMARK    1  A    between atoms: C7_7  and  N1_8 
REMARK    2  A    between atoms: N1_8  and  C8_9 
REMARK    3  A    between atoms: C11_15  and  C12_16 
REMARK    4  A    between atoms: C12_16  and  N5_17 
REMARK    5  A    between atoms: N5_17  and  C13_18 
REMARK    6  A    between atoms: C13_18  and  C14_19 
REMARK    7  A    between atoms: C14_19  and  C15_20 
REMARK    8  A    between atoms: C15_20  and  N6_22 
ROOT
HETATM    1  C1  UNL     1      26.501   2.509  50.455  1.00  0.00     0.018 C 
HETATM    2  C2  UNL     1      26.456   3.570  49.866  1.00  0.00    -0.078 C 
HETATM    3  C3  UNL     1      26.383   4.812  49.186  1.00  0.00     0.019 A 
HETATM    4  C4  UNL     1      25.133   5.424  49.164  1.00  0.00     0.021 A 
HETATM    5  C5  UNL     1      24.987   6.635  48.521  1.00  0.00     0.004 A 
HETATM    6  C6  UNL     1      26.105   7.170  47.936  1.00  0.00     0.029 A 
HETATM    7  C7  UNL     1      27.353   6.548  47.965  1.00  0.00     0.035 A 
HETATM    8  C19 UNL     1      27.500   5.352  48.598  1.00  0.00     0.050 A 
ENDROOT
BRANCH   7   9
HETATM    9  N1  UNL     1      28.380   7.292  47.274  1.00  0.00    -0.339 N 
HETATM   10  H5  UNL     1      28.594   7.194  46.272  1.00  0.00     0.167 HD
BRANCH   9  11
HETATM   11  C8  UNL     1      29.142   8.232  48.069  1.00  0.00     0.158 A 
HETATM   12  N2  UNL     1      28.638   9.402  48.220  1.00  0.00    -0.220 NA
HETATM   13  C9  UNL     1      29.344  10.361  48.990  1.00  0.00     0.257 A 
HETATM   14  N3  UNL     1      30.498  10.070  49.548  1.00  0.00    -0.165 NA
HETATM   15  N4  UNL     1      31.030   8.782  49.368  1.00  0.00    -0.261 N 
HETATM   16  C10 UNL     1      32.126   7.916  49.664  1.00  0.00     0.190 A 
HETATM   17  C18 UNL     1      30.425   7.745  48.626  1.00  0.00     0.104 A 
HETATM   18  C11 UNL     1      31.429   6.879  48.884  1.00  0.00    -0.011 A 
BRANCH  18  19
HETATM   19  C12 UNL     1      31.472   5.477  48.401  1.00  0.00     0.152 C 
BRANCH  19  20
HETATM   20  N5  UNL     1      31.769   5.359  47.042  1.00  0.00    -0.417 N 
HETATM   21  H11 UNL     1      31.186   5.940  46.400  1.00  0.00     0.153 HD
BRANCH  20  22
HETATM   22  C13 UNL     1      32.789   4.619  46.479  1.00  0.00     0.116 C 
BRANCH  22  23
HETATM   23  C14 UNL     1      34.222   4.848  46.806  1.00  0.00     0.054 C 
BRANCH  23  24
HETATM   24  C15 UNL     1      34.796   3.655  47.574  1.00  0.00     0.217 C 
HETATM   25  C16 UNL     1      33.729   2.597  47.661  1.00  0.00     0.042 C 
BRANCH  24  26
HETATM   26  N6  UNL     1      35.099   4.030  48.939  1.00  0.00     0.083 N 
HETATM   27  C17 UNL     1      35.231   5.435  49.161  1.00  0.00     0.307 C 
HETATM   28  H20 UNL     1      35.846   3.439  49.333  1.00  0.00     0.315 HD
ENDBRANCH  24  26
ENDBRANCH  23  24
ENDBRANCH  22  23
ENDBRANCH  20  22
ENDBRANCH  19  20
ENDBRANCH  18  19
ENDBRANCH   9  11
ENDBRANCH   7   9
TORSDOF 8
ENDMDL
MODEL 8
REMARK VINA RESULT:      -6.6      2.564      5.552
REMARK  8 active torsions:
REMARK  status: ('A' for Active; 'I' for Inactive)
REMARK    1  A    between atoms: C7_7  and  N1_8 
REMARK    2  A    between atoms: N1_8  and  C8_9 
REMARK    3  A    between atoms: C11_15  and  C12_16 
REMARK    4  A    between atoms: C12_16  and  N5_17 
REMARK    5  A    between atoms: N5_17  and  C13_18 
REMARK    6  A    between atoms: C13_18  and  C14_19 
REMARK    7  A    between atoms: C14_19  and  C15_20 
REMARK    8  A    between atoms: C15_20  and  N6_22 
ROOT
HETATM    1  C1  UNL     1      28.470   5.492  48.197  1.00  0.00     0.018 C 
HETATM    2  C2  UNL     1      27.345   5.731  48.588  1.00  0.00    -0.078 C 
HETATM    3  C3  UNL     1      26.026   6.017  49.024  1.00  0.00     0.019 A 
HETATM    4  C4  UNL     1      25.211   6.678  48.111  1.00  0.00     0.021 A 
HETATM    5  C5  UNL     1      23.915   6.987  48.467  1.00  0.00     0.004 A 
HETATM    6  C6  UNL     1      23.505   6.614  49.720  1.00  0.00     0.029 A 
HETATM    7  C7  UNL     1      24.332   5.951  50.628  1.00  0.00     0.035 A 
HETATM    8  C19 UNL     1      25.612   5.645  50.280  1.00  0.00     0.050 A 
ENDROOT
BRANCH   7   9
HETATM    9  N1  UNL     1      23.687   5.668  51.889  1.00  0.00    -0.339 N 
HETATM   10  H5  UNL     1      23.840   6.207  52.753  1.00  0.00     0.167 HD
BRANCH   9  11
HETATM   11  C8  UNL     1      22.770   4.548  51.908  1.00  0.00     0.158 A 
HETATM   12  N2  UNL     1      21.519   4.827  51.924  1.00  0.00    -0.220 NA
HETATM   13  C9  UNL     1      20.578   3.767  51.944  1.00  0.00     0.257 A 
HETATM   14  N3  UNL     1      20.966   2.511  51.946  1.00  0.00    -0.165 NA
HETATM   15  N4  UNL     1      22.343   2.231  51.929  1.00  0.00    -0.261 N 
HETATM   16  C10 UNL     1      23.327   1.196  51.930  1.00  0.00     0.190 A 
HETATM   17  C18 UNL     1      23.373   3.195  51.909  1.00  0.00     0.104 A 
HETATM   18  C11 UNL     1      24.346   2.259  51.898  1.00  0.00    -0.011 A 
BRANCH  18  19
HETATM   19  C12 UNL     1      25.798   2.558  51.858  1.00  0.00     0.152 C 
BRANCH  19  20
HETATM   20  N5  UNL     1      26.416   2.515  53.109  1.00  0.00    -0.417 N 
HETATM   21  H11 UNL     1      26.900   3.392  53.404  1.00  0.00     0.153 HD
BRANCH  20  22
HETATM   22  C13 UNL     1      26.388   1.470  54.011  1.00  0.00     0.116 C 
BRANCH  22  23
HETATM   23  C14 UNL     1      27.530   0.535  54.191  1.00  0.00     0.054 C 
BRANCH  23  24
HETATM   24  C15 UNL     1      27.603  -0.456  53.026  1.00  0.00     0.217 C 
HETATM   25  C16 UNL     1      26.270  -1.147  52.916  1.00  0.00     0.042 C 
BRANCH  24  26
HETATM   26  N6  UNL     1      28.570  -1.496  53.307  1.00  0.00     0.083 N 
HETATM   27  C17 UNL     1      29.833  -1.029  53.784  1.00  0.00     0.307 C 
HETATM   28  H20 UNL     1      28.605  -2.191  52.545  1.00  0.00     0.315 HD
ENDBRANCH  24  26
ENDBRANCH  23  24
ENDBRANCH  22  23
ENDBRANCH  20  22
ENDBRANCH  19  20
ENDBRANCH  18  19
ENDBRANCH   9  11
ENDBRANCH   7   9
TORSDOF 8
ENDMDL
MODEL 9
REMARK VINA RESULT:      -6.4      2.321      4.546
REMARK  8 active torsions:
REMARK  status: ('A' for Active; 'I' for Inactive)
REMARK    1  A    between atoms: C7_7  and  N1_8 
REMARK    2  A    between atoms: N1_8  and  C8_9 
REMARK    3  A    between atoms: C11_15  and  C12_16 
REMARK    4  A    between atoms: C12_16  and  N5_17 
REMARK    5  A    between atoms: N5_17  and  C13_18 
REMARK    6  A    between atoms: C13_18  and  C14_19 
REMARK    7  A    between atoms: C14_19  and  C15_20 
REMARK    8  A    between atoms: C15_20  and  N6_22 
ROOT
HETATM    1  C1  UNL     1      27.454   0.520  52.934  1.00  0.00     0.018 C 
HETATM    2  C2  UNL     1      26.240   0.536  52.956  1.00  0.00    -0.078 C 
HETATM    3  C3  UNL     1      24.822   0.538  52.997  1.00  0.00     0.019 A 
HETATM    4  C4  UNL     1      24.230  -0.497  53.714  1.00  0.00     0.021 A 
HETATM    5  C5  UNL     1      22.855  -0.558  53.797  1.00  0.00     0.004 A 
HETATM    6  C6  UNL     1      22.147   0.425  53.158  1.00  0.00     0.029 A 
HETATM    7  C7  UNL     1      22.751   1.458  52.441  1.00  0.00     0.035 A 
HETATM    8  C19 UNL     1      24.108   1.521  52.357  1.00  0.00     0.050 A 
ENDROOT
BRANCH   7   9
HETATM    9  N1  UNL     1      21.805   2.372  51.845  1.00  0.00    -0.339 N 
HETATM   10  H5  UNL     1      21.136   2.945  52.378  1.00  0.00     0.167 HD
BRANCH   9  11
HETATM   11  C8  UNL     1      21.822   2.468  50.401  1.00  0.00     0.158 A 
HETATM   12  N2  UNL     1      21.898   1.366  49.749  1.00  0.00    -0.220 NA
HETATM   13  C9  UNL     1      21.918   1.405  48.332  1.00  0.00     0.257 A 
HETATM   14  N3  UNL     1      21.860   2.545  47.681  1.00  0.00    -0.165 NA
HETATM   15  N4  UNL     1      21.778   3.739  48.416  1.00  0.00    -0.261 N 
HETATM   16  C10 UNL     1      21.703   5.163  48.333  1.00  0.00     0.190 A 
HETATM   17  C18 UNL     1      21.750   3.831  49.824  1.00  0.00     0.104 A 
HETATM   18  C11 UNL     1      21.666   5.179  49.806  1.00  0.00    -0.011 A 
BRANCH  18  19
HETATM   19  C12 UNL     1      21.578   6.031  51.016  1.00  0.00     0.152 C 
BRANCH  19  20
HETATM   20  N5  UNL     1      22.804   6.561  51.422  1.00  0.00    -0.417 N 
HETATM   21  H11 UNL     1      23.088   6.344  52.403  1.00  0.00     0.153 HD
BRANCH  20  22
HETATM   22  C13 UNL     1      23.699   7.269  50.644  1.00  0.00     0.116 C 
BRANCH  22  23
HETATM   23  C14 UNL     1      25.166   7.035  50.695  1.00  0.00     0.054 C 
BRANCH  23  24
HETATM   24  C15 UNL     1      25.594   6.057  49.598  1.00  0.00     0.217 C 
HETATM   25  C16 UNL     1      25.391   4.657  50.115  1.00  0.00     0.042 C 
BRANCH  24  26
HETATM   26  N6  UNL     1      27.012   6.182  49.332  1.00  0.00     0.083 N 
HETATM   27  C17 UNL     1      27.580   5.107  48.583  1.00  0.00     0.307 C 
HETATM   28  H20 UNL     1      27.528   6.463  50.179  1.00  0.00     0.315 HD
ENDBRANCH  24  26
ENDBRANCH  23  24
ENDBRANCH  22  23
ENDBRANCH  20  22
ENDBRANCH  19  20
ENDBRANCH  18  19
ENDBRANCH   9  11
ENDBRANCH   7   9
TORSDOF 8
ENDMDL
