MODEL 1
REMARK VINA RESULT:      -7.0      0.000      0.000
REMARK  5 active torsions:
REMARK  status: ('A' for Active; 'I' for Inactive)
REMARK    1  A    between atoms: O1_2  and  C2_3 
REMARK    2  A    between atoms: C13_17  and  C14_18 
REMARK    3  A    between atoms: C14_18  and  C15_19 
REMARK    4  A    between atoms: C16_20  and  C17_21 
REMARK    5  A    between atoms: C17_21  and  C18_22 
ROOT
HETATM    1  C2  UNL     1      26.527   2.010  52.362  1.00  0.00     0.131 C 
HETATM    2  C3  UNL     1      25.952   2.934  53.455  1.00  0.00     0.221 C 
HETATM    3  O2  UNL     1      24.756   2.229  53.843  1.00  0.00    -0.347 OA
HETATM    4  C4  UNL     1      25.086   0.896  53.500  1.00  0.00     0.081 C 
HETATM    5  C5  UNL     1      26.312   0.717  53.053  1.00  0.00    -0.004 C 
HETATM    6  C6  UNL     1      26.487  -0.670  53.629  1.00  0.00     0.021 C 
HETATM    7  C7  UNL     1      26.418  -1.738  52.594  1.00  0.00     0.015 C 
HETATM    8  C8  UNL     1      25.220  -0.824  54.495  1.00  0.00     0.050 C 
HETATM    9  C9  UNL     1      24.195  -0.247  53.605  1.00  0.00    -0.022 C 
HETATM   10  C10 UNL     1      23.069  -0.682  53.147  1.00  0.00     0.029 C 
HETATM   11  C11 UNL     1      22.222  -0.012  52.204  1.00  0.00     0.118 C 
HETATM   12  N1  UNL     1      22.273   1.071  51.534  1.00  0.00    -0.255 NA
HETATM   13  C12 UNL     1      23.318   2.027  51.536  1.00  0.00     0.226 C 
HETATM   14  N2  UNL     1      24.455   1.473  51.241  1.00  0.00    -0.274 NA
HETATM   15  C13 UNL     1      25.718   2.130  51.147  1.00  0.00     0.154 C 
ENDROOT
BRANCH  15  16
HETATM   16  C14 UNL     1      25.562   3.548  50.618  1.00  0.00     0.057 C 
BRANCH  16  17
HETATM   17  C15 UNL     1      26.497   3.830  49.535  1.00  0.00    -0.028 C 
HETATM   18  C16 UNL     1      26.891   5.091  49.266  1.00  0.00    -0.030 C 
BRANCH  18  19
HETATM   19  C17 UNL     1      27.783   5.753  48.296  1.00  0.00     0.037 C 
BRANCH  19  20
HETATM   20  C18 UNL     1      27.220   7.142  48.000  1.00  0.00     0.089 C 
HETATM   21 BR1  UNL     1      26.372   7.762  49.619  1.00  0.00    -0.096 Br
ENDBRANCH  19  20
ENDBRANCH  18  19
ENDBRANCH  16  17
ENDBRANCH  15  16
BRANCH   1  22
HETATM   22  O1  UNL     1      27.854   2.348  52.246  1.00  0.00    -0.376 OA
HETATM   23  C1  UNL     1      28.555   2.417  53.425  1.00  0.00     0.203 C 
ENDBRANCH   1  22
TORSDOF 5
ENDMDL
MODEL 2
REMARK VINA RESULT:      -6.9      2.679      6.041
REMARK  5 active torsions:
REMARK  status: ('A' for Active; 'I' for Inactive)
REMARK    1  A    between atoms: O1_2  and  C2_3 
REMARK    2  A    between atoms: C13_17  and  C14_18 
REMARK    3  A    between atoms: C14_18  and  C15_19 
REMARK    4  A    between atoms: C16_20  and  C17_21 
REMARK    5  A    between atoms: C17_21  and  C18_22 
ROOT
HETATM    1  C2  UNL     1      23.116   1.843  52.023  1.00  0.00     0.131 C 
HETATM    2  C3  UNL     1      23.261   3.009  53.023  1.00  0.00     0.221 C 
HETATM    3  O2  UNL     1      24.027   3.962  52.260  1.00  0.00    -0.347 OA
HETATM    4  C4  UNL     1      23.693   3.602  50.932  1.00  0.00     0.081 C 
HETATM    5  C5  UNL     1      22.794   2.645  50.819  1.00  0.00    -0.004 C 
HETATM    6  C6  UNL     1      22.168   3.169  49.547  1.00  0.00     0.021 C 
HETATM    7  C7  UNL     1      22.540   2.367  48.348  1.00  0.00     0.015 C 
HETATM    8  C8  UNL     1      22.862   4.537  49.383  1.00  0.00     0.050 C 
HETATM    9  C9  UNL     1      24.254   4.194  49.731  1.00  0.00    -0.022 C 
HETATM   10  C10 UNL     1      25.385   4.351  49.128  1.00  0.00     0.029 C 
HETATM   11  C11 UNL     1      26.659   3.872  49.577  1.00  0.00     0.118 C 
HETATM   12  N1  UNL     1      27.083   3.181  50.560  1.00  0.00    -0.255 NA
HETATM   13  C12 UNL     1      26.309   2.623  51.608  1.00  0.00     0.226 C 
HETATM   14  N2  UNL     1      25.363   1.869  51.136  1.00  0.00    -0.274 NA
HETATM   15  C13 UNL     1      24.398   1.146  51.899  1.00  0.00     0.154 C 
ENDROOT
BRANCH  15  16
HETATM   16  C14 UNL     1      24.989   0.652  53.210  1.00  0.00     0.057 C 
BRANCH  16  17
HETATM   17  C15 UNL     1      25.666  -0.630  53.052  1.00  0.00    -0.028 C 
HETATM   18  C16 UNL     1      27.009  -0.724  53.140  1.00  0.00    -0.030 C 
BRANCH  18  19
HETATM   19  C17 UNL     1      28.019  -1.793  53.044  1.00  0.00     0.037 C 
BRANCH  19  20
HETATM   20  C18 UNL     1      29.384  -1.192  53.370  1.00  0.00     0.089 C 
HETATM   21 BR1  UNL     1      29.065   0.567  54.096  1.00  0.00    -0.096 Br
ENDBRANCH  19  20
ENDBRANCH  18  19
ENDBRANCH  16  17
ENDBRANCH  15  16
BRANCH   1  22
HETATM   22  O1  UNL     1      22.056   1.093  52.474  1.00  0.00    -0.376 OA
HETATM   23  C1  UNL     1      21.558   0.172  51.584  1.00  0.00     0.203 C 
ENDBRANCH   1  22
TORSDOF 5
ENDMDL
MODEL 3
REMARK VINA RESULT:      -6.9      1.849      2.958
REMARK  5 active torsions:
REMARK  status: ('A' for Active; 'I' for Inactive)
REMARK    1  A    between atoms: O1_2  and  C2_3 
REMARK    2  A    between atoms: C13_17  and  C14_18 
REMARK    3  A    between atoms: C14_18  and  C15_19 
REMARK    4  A    between atoms: C16_20  and  C17_21 
REMARK    5  A    between atoms: C17_21  and  C18_22 
ROOT
HETATM    1  C2  UNL     1      23.811   2.690  52.235  1.00  0.00     0.131 C 
HETATM    2  C3  UNL     1      22.924   3.921  52.517  1.00  0.00     0.221 C 
HETATM    3  O2  UNL     1      21.613   3.430  52.175  1.00  0.00    -0.347 OA
HETATM    4  C4  UNL     1      21.769   2.037  52.374  1.00  0.00     0.081 C 
HETATM    5  C5  UNL     1      22.938   1.664  52.853  1.00  0.00    -0.004 C 
HETATM    6  C6  UNL     1      22.413   0.492  53.651  1.00  0.00     0.021 C 
HETATM    7  C7  UNL     1      22.736  -0.821  53.027  1.00  0.00     0.015 C 
HETATM    8  C8  UNL     1      20.886   0.668  53.519  1.00  0.00     0.050 C 
HETATM    9  C9  UNL     1      20.762   1.028  52.095  1.00  0.00    -0.022 C 
HETATM   10  C10 UNL     1      20.072   0.549  51.113  1.00  0.00     0.029 C 
HETATM   11  C11 UNL     1      20.137   0.971  49.745  1.00  0.00     0.118 C 
HETATM   12  N1  UNL     1      20.823   1.812  49.077  1.00  0.00    -0.255 NA
HETATM   13  C12 UNL     1      21.843   2.664  49.570  1.00  0.00     0.226 C 
HETATM   14  N2  UNL     1      22.767   1.981  50.175  1.00  0.00    -0.274 NA
HETATM   15  C13 UNL     1      23.943   2.507  50.788  1.00  0.00     0.154 C 
ENDROOT
BRANCH  15  16
HETATM   16  C14 UNL     1      24.462   3.721  50.033  1.00  0.00     0.057 C 
BRANCH  16  17
HETATM   17  C15 UNL     1      25.850   3.552  49.619  1.00  0.00    -0.028 C 
HETATM   18  C16 UNL     1      26.557   4.584  49.117  1.00  0.00    -0.030 C 
BRANCH  18  19
HETATM   19  C17 UNL     1      27.924   4.803  48.610  1.00  0.00     0.037 C 
BRANCH  19  20
HETATM   20  C18 UNL     1      28.058   6.272  48.215  1.00  0.00     0.089 C 
HETATM   21 BR1  UNL     1      26.400   7.136  48.692  1.00  0.00    -0.096 Br
ENDBRANCH  19  20
ENDBRANCH  18  19
ENDBRANCH  16  17
ENDBRANCH  15  16
BRANCH   1  22
HETATM   22  O1  UNL     1      24.977   2.900  52.932  1.00  0.00    -0.376 OA
HETATM   23  C1  UNL     1      25.811   1.814  53.036  1.00  0.00     0.203 C 
ENDBRANCH   1  22
TORSDOF 5
ENDMDL
MODEL 4
REMARK VINA RESULT:      -6.6      2.871      5.420
REMARK  5 active torsions:
REMARK  status: ('A' for Active; 'I' for Inactive)
REMARK    1  A    between atoms: O1_2  and  C2_3 
REMARK    2  A    between atoms: C13_17  and  C14_18 
REMARK    3  A    between atoms: C14_18  and  C15_19 
REMARK    4  A    between atoms: C16_20  and  C17_21 
REMARK    5  A    between atoms: C17_21  and  C18_22 
ROOT
HETATM    1  C2  UNL     1      23.745   1.935  52.637  1.00  0.00     0.131 C 
HETATM    2  C3  UNL     1      24.158   3.265  53.301  1.00  0.00     0.221 C 
HETATM    3  O2  UNL     1      23.498   4.234  52.462  1.00  0.00    -0.347 OA
HETATM    4  C4  UNL     1      22.420   3.477  51.943  1.00  0.00     0.081 C 
HETATM    5  C5  UNL     1      22.314   2.252  52.416  1.00  0.00    -0.004 C 
HETATM    6  C6  UNL     1      20.806   2.188  52.348  1.00  0.00     0.021 C 
HETATM    7  C7  UNL     1      20.314   1.335  51.230  1.00  0.00     0.015 C 
HETATM    8  C8  UNL     1      20.436   3.639  51.978  1.00  0.00     0.050 C 
HETATM    9  C9  UNL     1      21.458   3.944  50.959  1.00  0.00    -0.022 C 
HETATM   10  C10 UNL     1      21.402   4.376  49.744  1.00  0.00     0.029 C 
HETATM   11  C11 UNL     1      22.509   4.536  48.848  1.00  0.00     0.118 C 
HETATM   12  N1  UNL     1      23.762   4.306  48.889  1.00  0.00    -0.255 NA
HETATM   13  C12 UNL     1      24.493   3.754  49.971  1.00  0.00     0.226 C 
HETATM   14  N2  UNL     1      23.996   2.609  50.331  1.00  0.00    -0.274 NA
HETATM   15  C13 UNL     1      24.477   1.770  51.380  1.00  0.00     0.154 C 
ENDROOT
BRANCH  15  16
HETATM   16  C14 UNL     1      25.991   1.857  51.503  1.00  0.00     0.057 C 
BRANCH  16  17
HETATM   17  C15 UNL     1      26.606   0.537  51.589  1.00  0.00    -0.028 C 
HETATM   18  C16 UNL     1      27.265   0.147  52.699  1.00  0.00    -0.030 C 
BRANCH  18  19
HETATM   19  C17 UNL     1      27.989  -1.055  53.152  1.00  0.00     0.037 C 
BRANCH  19  20
HETATM   20  C18 UNL     1      29.345  -0.617  53.701  1.00  0.00     0.089 C 
HETATM   21 BR1  UNL     1      29.153   1.214  54.280  1.00  0.00    -0.096 Br
ENDBRANCH  19  20
ENDBRANCH  18  19
ENDBRANCH  16  17
ENDBRANCH  15  16
BRANCH   1  22
HETATM   22  O1  UNL     1      23.943   0.964  53.590  1.00  0.00    -0.376 OA
HETATM   23  C1  UNL     1      23.395  -0.264  53.310  1.00  0.00     0.203 C 
ENDBRANCH   1  22
TORSDOF 5
ENDMDL
MODEL 5
REMARK VINA RESULT:      -6.6      2.077      3.282
REMARK  5 active torsions:
REMARK  status: ('A' for Active; 'I' for Inactive)
REMARK    1  A    between atoms: O1_2  and  C2_3 
REMARK    2  A    between atoms: C13_17  and  C14_18 
REMARK    3  A    between atoms: C14_18  and  C15_19 
REMARK    4  A    between atoms: C16_20  and  C17_21 
REMARK    5  A    between atoms: C17_21  and  C18_22 
ROOT
HETATM    1  C2  UNL     1      24.897   1.743  51.679  1.00  0.00     0.131 C 
HETATM    2  C3  UNL     1      25.200   2.372  53.055  1.00  0.00     0.221 C 
HETATM    3  O2  UNL     1      23.998   3.124  53.310  1.00  0.00    -0.347 OA
HETATM    4  C4  UNL     1      23.046   2.416  52.538  1.00  0.00     0.081 C 
HETATM    5  C5  UNL     1      23.499   1.328  51.947  1.00  0.00    -0.004 C 
HETATM    6  C6  UNL     1      22.207   0.550  52.041  1.00  0.00     0.021 C 
HETATM    7  C7  UNL     1      21.501   0.444  50.734  1.00  0.00     0.015 C 
HETATM    8  C8  UNL     1      21.339   1.467  52.926  1.00  0.00     0.050 C 
HETATM    9  C9  UNL     1      21.654   2.792  52.361  1.00  0.00    -0.022 C 
HETATM   10  C10 UNL     1      20.931   3.755  51.894  1.00  0.00     0.029 C 
HETATM   11  C11 UNL     1      21.414   4.962  51.291  1.00  0.00     0.118 C 
HETATM   12  N1  UNL     1      22.555   5.445  50.992  1.00  0.00    -0.255 NA
HETATM   13  C12 UNL     1      23.818   4.838  51.198  1.00  0.00     0.226 C 
HETATM   14  N2  UNL     1      23.867   3.666  50.641  1.00  0.00    -0.274 NA
HETATM   15  C13 UNL     1      24.981   2.774  50.643  1.00  0.00     0.154 C 
ENDROOT
BRANCH  15  16
HETATM   16  C14 UNL     1      26.296   3.536  50.602  1.00  0.00     0.057 C 
BRANCH  16  17
HETATM   17  C15 UNL     1      26.542   4.126  49.291  1.00  0.00    -0.028 C 
HETATM   18  C16 UNL     1      26.867   5.429  49.164  1.00  0.00    -0.030 C 
BRANCH  18  19
HETATM   19  C17 UNL     1      27.179   6.355  48.060  1.00  0.00     0.037 C 
BRANCH  19  20
HETATM   20  C18 UNL     1      28.499   7.052  48.379  1.00  0.00     0.089 C 
HETATM   21 BR1  UNL     1      29.903   5.760  48.087  1.00  0.00    -0.096 Br
ENDBRANCH  19  20
ENDBRANCH  18  19
ENDBRANCH  16  17
ENDBRANCH  15  16
BRANCH   1  22
HETATM   22  O1  UNL     1      25.761   0.681  51.554  1.00  0.00    -0.376 OA
HETATM   23  C1  UNL     1      25.917  -0.094  52.677  1.00  0.00     0.203 C 
ENDBRANCH   1  22
TORSDOF 5
ENDMDL
MODEL 6
REMARK VINA RESULT:      -6.5      2.783      3.273
REMARK  5 active torsions:
REMARK  status: ('A' for Active; 'I' for Inactive)
REMARK    1  A    between atoms: O1_2  and  C2_3 
REMARK    2  A    between atoms: C13_17  and  C14_18 
REMARK    3  A    between atoms: C14_18  and  C15_19 
REMARK    4  A    between atoms: C16_20  and  C17_21 
REMARK    5  A    between atoms: C17_21  and  C18_22 
ROOT
HETATM    1  C2  UNL     1      24.670   3.075  51.055  1.00  0.00     0.131 C 
HETATM    2  C3  UNL     1      23.950   3.938  52.113  1.00  0.00     0.221 C 
HETATM    3  O2  UNL     1      23.440   2.938  53.016  1.00  0.00    -0.347 OA
HETATM    4  C4  UNL     1      24.345   1.871  52.805  1.00  0.00     0.081 C 
HETATM    5  C5  UNL     1      25.341   2.133  51.982  1.00  0.00    -0.004 C 
HETATM    6  C6  UNL     1      26.354   1.252  52.678  1.00  0.00     0.021 C 
HETATM    7  C7  UNL     1      26.637  -0.004  51.929  1.00  0.00     0.015 C 
HETATM    8  C8  UNL     1      25.597   0.833  53.954  1.00  0.00     0.050 C 
HETATM    9  C9  UNL     1      24.254   0.554  53.412  1.00  0.00    -0.022 C 
HETATM   10  C10 UNL     1      23.466  -0.468  53.468  1.00  0.00     0.029 C 
HETATM   11  C11 UNL     1      22.208  -0.607  52.797  1.00  0.00     0.118 C 
HETATM   12  N1  UNL     1      21.520   0.093  51.984  1.00  0.00    -0.255 NA
HETATM   13  C12 UNL     1      21.862   1.361  51.451  1.00  0.00     0.226 C 
HETATM   14  N2  UNL     1      23.018   1.322  50.862  1.00  0.00    -0.274 NA
HETATM   15  C13 UNL     1      23.675   2.409  50.212  1.00  0.00     0.154 C 
ENDROOT
BRANCH  15  16
HETATM   16  C14 UNL     1      22.672   3.339  49.547  1.00  0.00     0.057 C 
BRANCH  16  17
HETATM   17  C15 UNL     1      22.352   2.914  48.190  1.00  0.00    -0.028 C 
HETATM   18  C16 UNL     1      22.150   3.815  47.207  1.00  0.00    -0.030 C 
BRANCH  18  19
HETATM   19  C17 UNL     1      21.822   3.781  45.770  1.00  0.00     0.037 C 
BRANCH  19  20
HETATM   20  C18 UNL     1      21.944   5.200  45.218  1.00  0.00     0.089 C 
HETATM   21 BR1  UNL     1      22.472   6.332  46.689  1.00  0.00    -0.096 Br
ENDBRANCH  19  20
ENDBRANCH  18  19
ENDBRANCH  16  17
ENDBRANCH  15  16
BRANCH   1  22
HETATM   22  O1  UNL     1      25.545   3.919  50.415  1.00  0.00    -0.376 OA
HETATM   23  C1  UNL     1      26.470   3.312  49.602  1.00  0.00     0.203 C 
ENDBRANCH   1  22
TORSDOF 5
ENDMDL
MODEL 7
REMARK VINA RESULT:      -6.5      3.003      4.115
REMARK  5 active torsions:
REMARK  status: ('A' for Active; 'I' for Inactive)
REMARK    1  A    between atoms: O1_2  and  C2_3 
REMARK    2  A    between atoms: C13_17  and  C14_18 
REMARK    3  A    between atoms: C14_18  and  C15_19 
REMARK    4  A    between atoms: C16_20  and  C17_21 
REMARK    5  A    between atoms: C17_21  and  C18_22 
ROOT
HETATM    1  C2  UNL     1      22.312   2.443  51.784  1.00  0.00     0.131 C 
HETATM    2  C3  UNL     1      21.396   3.559  52.329  1.00  0.00     0.221 C 
HETATM    3  O2  UNL     1      20.178   2.837  52.603  1.00  0.00    -0.347 OA
HETATM    4  C4  UNL     1      20.663   1.524  52.812  1.00  0.00     0.081 C 
HETATM    5  C5  UNL     1      21.975   1.398  52.779  1.00  0.00    -0.004 C 
HETATM    6  C6  UNL     1      22.049   0.285  53.800  1.00  0.00     0.021 C 
HETATM    7  C7  UNL     1      22.339  -1.041  53.188  1.00  0.00     0.015 C 
HETATM    8  C8  UNL     1      20.595   0.216  54.311  1.00  0.00     0.050 C 
HETATM    9  C9  UNL     1      19.843   0.350  53.050  1.00  0.00    -0.022 C 
HETATM   10  C10 UNL     1      18.923  -0.358  52.484  1.00  0.00     0.029 C 
HETATM   11  C11 UNL     1      18.351  -0.128  51.190  1.00  0.00     0.118 C 
HETATM   12  N1  UNL     1      18.536   0.702  50.241  1.00  0.00    -0.255 NA
HETATM   13  C12 UNL     1      19.484   1.755  50.201  1.00  0.00     0.226 C 
HETATM   14  N2  UNL     1      20.685   1.307  50.406  1.00  0.00    -0.274 NA
HETATM   15  C13 UNL     1      21.884   2.079  50.431  1.00  0.00     0.154 C 
ENDROOT
BRANCH  15  16
HETATM   16  C14 UNL     1      21.813   3.237  49.449  1.00  0.00     0.057 C 
BRANCH  16  17
HETATM   17  C15 UNL     1      23.128   3.585  48.921  1.00  0.00    -0.028 C 
HETATM   18  C16 UNL     1      23.649   4.815  49.106  1.00  0.00    -0.030 C 
BRANCH  18  19
HETATM   19  C17 UNL     1      24.893   5.519  48.744  1.00  0.00     0.037 C 
BRANCH  19  20
HETATM   20  C18 UNL     1      26.016   4.998  49.638  1.00  0.00     0.089 C 
HETATM   21 BR1  UNL     1      27.649   5.115  48.616  1.00  0.00    -0.096 Br
ENDBRANCH  19  20
ENDBRANCH  18  19
ENDBRANCH  16  17
ENDBRANCH  15  16
BRANCH   1  22
HETATM   22  O1  UNL     1      23.596   2.917  51.911  1.00  0.00    -0.376 OA
HETATM   23  C1  UNL     1      23.747   4.013  52.725  1.00  0.00     0.203 C 
ENDBRANCH   1  22
TORSDOF 5
ENDMDL
MODEL 8
REMARK VINA RESULT:      -6.4      3.455      6.232
REMARK  5 active torsions:
REMARK  status: ('A' for Active; 'I' for Inactive)
REMARK    1  A    between atoms: O1_2  and  C2_3 
REMARK    2  A    between atoms: C13_17  and  C14_18 
REMARK    3  A    between atoms: C14_18  and  C15_19 
REMARK    4  A    between atoms: C16_20  and  C17_21 
REMARK    5  A    between atoms: C17_21  and  C18_22 
ROOT
HETATM    1  C2  UNL     1      22.558   1.876  51.326  1.00  0.00     0.131 C 
HETATM    2  C3  UNL     1      21.556   2.696  52.166  1.00  0.00     0.221 C 
HETATM    3  O2  UNL     1      21.465   3.920  51.410  1.00  0.00    -0.347 OA
HETATM    4  C4  UNL     1      21.807   3.480  50.109  1.00  0.00     0.081 C 
HETATM    5  C5  UNL     1      22.001   2.182  49.987  1.00  0.00    -0.004 C 
HETATM    6  C6  UNL     1      21.481   2.080  48.571  1.00  0.00     0.021 C 
HETATM    7  C7  UNL     1      22.569   1.898  47.569  1.00  0.00     0.015 C 
HETATM    8  C8  UNL     1      20.907   3.492  48.333  1.00  0.00     0.050 C 
HETATM    9  C9  UNL     1      21.955   4.333  48.942  1.00  0.00    -0.022 C 
HETATM   10  C10 UNL     1      22.661   5.325  48.512  1.00  0.00     0.029 C 
HETATM   11  C11 UNL     1      23.718   5.984  49.220  1.00  0.00     0.118 C 
HETATM   12  N1  UNL     1      24.300   5.835  50.344  1.00  0.00    -0.255 NA
HETATM   13  C12 UNL     1      24.026   4.846  51.322  1.00  0.00     0.226 C 
HETATM   14  N2  UNL     1      24.111   3.654  50.814  1.00  0.00    -0.274 NA
HETATM   15  C13 UNL     1      23.904   2.423  51.505  1.00  0.00     0.154 C 
ENDROOT
BRANCH  15  16
HETATM   16  C14 UNL     1      24.371   2.517  52.949  1.00  0.00     0.057 C 
BRANCH  16  17
HETATM   17  C15 UNL     1      25.628   1.808  53.161  1.00  0.00    -0.028 C 
HETATM   18  C16 UNL     1      25.908   0.671  52.493  1.00  0.00    -0.030 C 
BRANCH  18  19
HETATM   19  C17 UNL     1      27.021  -0.294  52.434  1.00  0.00     0.037 C 
BRANCH  19  20
HETATM   20  C18 UNL     1      27.666  -0.365  53.816  1.00  0.00     0.089 C 
HETATM   21 BR1  UNL     1      29.502  -0.899  53.553  1.00  0.00    -0.096 Br
ENDBRANCH  19  20
ENDBRANCH  18  19
ENDBRANCH  16  17
ENDBRANCH  15  16
BRANCH   1  22
HETATM   22  O1  UNL     1      22.377   0.566  51.701  1.00  0.00    -0.376 OA
HETATM   23  C1  UNL     1      21.358   0.338  52.593  1.00  0.00     0.203 C 
ENDBRANCH   1  22
TORSDOF 5
ENDMDL
MODEL 9
REMARK VINA RESULT:      -6.2      4.990      7.451
REMARK  5 active torsions:
REMARK  status: ('A' for Active; 'I' for Inactive)
REMARK    1  A    between atoms: O1_2  and  C2_3 
REMARK    2  A    between atoms: C13_17  and  C14_18 
REMARK    3  A    between atoms: C14_18  and  C15_19 
REMARK    4  A    between atoms: C16_20  and  C17_21 
REMARK    5  A    between atoms: C17_21  and  C18_22 
ROOT
HETATM    1  C2  UNL     1      20.136   0.818  51.525  1.00  0.00     0.131 C 
HETATM    2  C3  UNL     1      20.754   0.895  50.113  1.00  0.00     0.221 C 
HETATM    3  O2  UNL     1      22.073   1.404  50.392  1.00  0.00    -0.347 OA
HETATM    4  C4  UNL     1      22.270   0.976  51.727  1.00  0.00     0.081 C 
HETATM    5  C5  UNL     1      21.303   0.233  52.227  1.00  0.00    -0.004 C 
HETATM    6  C6  UNL     1      22.197  -0.614  53.104  1.00  0.00     0.021 C 
HETATM    7  C7  UNL     1      22.086  -0.266  54.548  1.00  0.00     0.015 C 
HETATM    8  C8  UNL     1      23.605  -0.170  52.659  1.00  0.00     0.050 C 
HETATM    9  C9  UNL     1      23.423   1.289  52.552  1.00  0.00    -0.022 C 
HETATM   10  C10 UNL     1      24.043   2.302  53.060  1.00  0.00     0.029 C 
HETATM   11  C11 UNL     1      23.674   3.680  52.920  1.00  0.00     0.118 C 
HETATM   12  N1  UNL     1      22.721   4.322  52.369  1.00  0.00    -0.255 NA
HETATM   13  C12 UNL     1      21.624   3.776  51.658  1.00  0.00     0.226 C 
HETATM   14  N2  UNL     1      20.983   2.912  52.384  1.00  0.00    -0.274 NA
HETATM   15  C13 UNL     1      19.827   2.170  51.996  1.00  0.00     0.154 C 
ENDROOT
BRANCH  15  16
HETATM   16  C14 UNL     1      18.938   2.983  51.069  1.00  0.00     0.057 C 
BRANCH  16  17
HETATM   17  C15 UNL     1      17.527   2.851  51.415  1.00  0.00    -0.028 C 
HETATM   18  C16 UNL     1      16.718   3.929  51.464  1.00  0.00    -0.030 C 
BRANCH  18  19
HETATM   19  C17 UNL     1      15.298   4.194  51.760  1.00  0.00     0.037 C 
BRANCH  19  20
HETATM   20  C18 UNL     1      15.106   4.133  53.274  1.00  0.00     0.089 C 
HETATM   21 BR1  UNL     1      13.216   4.340  53.609  1.00  0.00    -0.096 Br
ENDBRANCH  19  20
ENDBRANCH  18  19
ENDBRANCH  16  17
ENDBRANCH  15  16
BRANCH   1  22
HETATM   22  O1  UNL     1      19.075  -0.049  51.423  1.00  0.00    -0.376 OA
HETATM   23  C1  UNL     1      18.545  -0.483  52.613  1.00  0.00     0.203 C 
ENDBRANCH   1  22
TORSDOF 5
ENDMDL
