MODEL 1
REMARK VINA RESULT:      -8.5      0.000      0.000
REMARK  6 active torsions:
REMARK  status: ('A' for Active; 'I' for Inactive)
REMARK    1  A    between atoms: C3_3  and  N1_4 
REMARK    2  A    between atoms: N1_4  and  C4_5 
REMARK    3  A    between atoms: C5_6  and  C6_7 
REMARK    4  A    between atoms: C6_7  and  C7_8 
REMARK    5  A    between atoms: C7_8  and  C8_9 
REMARK    6  A    between atoms: C8_9  and  O2_11 
ROOT
HETATM    1  C4  UNL     1      25.198   2.305  51.514  1.00  0.00     0.043 C 
HETATM    2  C5  UNL     1      26.088   1.512  52.142  1.00  0.00     0.037 C 
HETATM    3  C9  UNL     1      25.899   0.173  52.712  1.00  0.00     0.254 C 
HETATM    4  O3  UNL     1      26.938  -0.518  52.543  1.00  0.00    -0.268 OA
HETATM    5  N2  UNL     1      24.801  -0.466  53.396  1.00  0.00    -0.322 N 
HETATM    6  C10 UNL     1      23.398  -0.192  53.448  1.00  0.00     0.045 A 
HETATM    7  C11 UNL     1      22.973  -1.026  54.447  1.00  0.00     0.030 A 
HETATM    8  C12 UNL     1      21.629  -1.014  54.764  1.00  0.00     0.002 A 
HETATM    9  C13 UNL     1      20.775  -0.160  54.058  1.00  0.00     0.001 A 
HETATM   10  C14 UNL     1      21.231   0.676  53.051  1.00  0.00     0.013 A 
HETATM   11  C15 UNL     1      22.567   0.656  52.743  1.00  0.00    -0.009 A 
HETATM   12  C16 UNL     1      22.764   1.631  51.650  1.00  0.00     0.016 C 
HETATM   13  C17 UNL     1      23.789   2.314  51.123  1.00  0.00     0.031 C 
HETATM   14  H12 UNL     1      25.172  -1.292  53.948  1.00  0.00     0.169 HD
ENDROOT
BRANCH   2  15
HETATM   15  C6  UNL     1      27.446   2.033  52.266  1.00  0.00     0.057 C 
BRANCH  15  16
HETATM   16  C7  UNL     1      27.912   2.419  53.615  1.00  0.00     0.115 C 
BRANCH  16  17
HETATM   17  C8  UNL     1      29.153   1.756  54.070  1.00  0.00     0.139 C 
HETATM   18  O1  UNL     1      29.683   2.296  55.090  1.00  0.00    -0.650 OA
BRANCH  17  19
HETATM   19  O2  UNL     1      29.779   0.647  53.520  1.00  0.00    -0.776 OA
HETATM   20  H11 UNL     1      29.363   0.275  52.670  1.00  0.00     0.167 HD
ENDBRANCH  17  19
ENDBRANCH  16  17
ENDBRANCH  15  16
ENDBRANCH   2  15
BRANCH   1  21
HETATM   21  N1  UNL     1      25.813   3.540  51.089  1.00  0.00    -0.366 N 
HETATM   22  H6  UNL     1      26.769   3.925  51.350  1.00  0.00     0.165 HD
BRANCH  21  23
HETATM   23  C3  UNL     1      25.222   4.490  50.210  1.00  0.00     0.084 C 
HETATM   24  C2  UNL     1      25.892   4.962  49.179  1.00  0.00    -0.014 C 
HETATM   25  C1  UNL     1      27.272   4.530  48.898  1.00  0.00     0.037 C 
ENDBRANCH  21  23
ENDBRANCH   1  21
TORSDOF 6
ENDMDL
MODEL 2
REMARK VINA RESULT:      -7.9      1.629      5.452
REMARK  6 active torsions:
REMARK  status: ('A' for Active; 'I' for Inactive)
REMARK    1  A    between atoms: C3_3  and  N1_4 
REMARK    2  A    between atoms: N1_4  and  C4_5 
REMARK    3  A    between atoms: C5_6  and  C6_7 
REMARK    4  A    between atoms: C6_7  and  C7_8 
REMARK    5  A    between atoms: C7_8  and  C8_9 
REMARK    6  A    between atoms: C8_9  and  O2_11 
ROOT
HETATM    1  C4  UNL     1      24.252   0.597  52.704  1.00  0.00     0.043 C 
HETATM    2  C5  UNL     1      25.584   0.538  52.898  1.00  0.00     0.037 C 
HETATM    3  C9  UNL     1      26.599   1.576  52.693  1.00  0.00     0.254 C 
HETATM    4  O3  UNL     1      27.493   1.486  53.576  1.00  0.00    -0.268 OA
HETATM    5  N2  UNL     1      26.757   2.627  51.717  1.00  0.00    -0.322 N 
HETATM    6  C10 UNL     1      25.839   3.283  50.839  1.00  0.00     0.045 A 
HETATM    7  C11 UNL     1      26.673   4.009  50.031  1.00  0.00     0.030 A 
HETATM    8  C12 UNL     1      26.095   4.781  49.042  1.00  0.00     0.002 A 
HETATM    9  C13 UNL     1      24.702   4.785  48.914  1.00  0.00     0.001 A 
HETATM   10  C14 UNL     1      23.880   4.040  49.745  1.00  0.00     0.013 A 
HETATM   11  C15 UNL     1      24.464   3.277  50.724  1.00  0.00    -0.009 A 
HETATM   12  C16 UNL     1      23.364   2.602  51.445  1.00  0.00     0.016 C 
HETATM   13  C17 UNL     1      23.229   1.535  52.244  1.00  0.00     0.031 C 
HETATM   14  H12 UNL     1      27.774   2.930  51.698  1.00  0.00     0.169 HD
ENDROOT
BRANCH   2  15
HETATM   15  C6  UNL     1      26.110  -0.727  53.403  1.00  0.00     0.057 C 
BRANCH  15  16
HETATM   16  C7  UNL     1      26.909  -1.557  52.477  1.00  0.00     0.115 C 
BRANCH  16  17
HETATM   17  C8  UNL     1      28.081  -2.227  53.080  1.00  0.00     0.139 C 
HETATM   18  O1  UNL     1      28.831  -1.451  53.751  1.00  0.00    -0.650 OA
BRANCH  17  19
HETATM   19  O2  UNL     1      28.439  -3.564  52.994  1.00  0.00    -0.776 OA
HETATM   20  H11 UNL     1      28.830  -3.865  52.105  1.00  0.00     0.167 HD
ENDBRANCH  17  19
ENDBRANCH  16  17
ENDBRANCH  15  16
ENDBRANCH   2  15
BRANCH   1  21
HETATM   21  N1  UNL     1      23.621  -0.654  53.054  1.00  0.00    -0.366 N 
HETATM   22  H6  UNL     1      24.017  -1.637  52.976  1.00  0.00     0.165 HD
BRANCH  21  23
HETATM   23  C3  UNL     1      22.307  -0.788  53.585  1.00  0.00     0.084 C 
HETATM   24  C2  UNL     1      22.121  -1.171  54.831  1.00  0.00    -0.014 C 
HETATM   25  C1  UNL     1      23.258  -1.475  55.718  1.00  0.00     0.037 C 
ENDBRANCH  21  23
ENDBRANCH   1  21
TORSDOF 6
ENDMDL
MODEL 3
REMARK VINA RESULT:      -7.8      2.575      4.410
REMARK  6 active torsions:
REMARK  status: ('A' for Active; 'I' for Inactive)
REMARK    1  A    between atoms: C3_3  and  N1_4 
REMARK    2  A    between atoms: N1_4  and  C4_5 
REMARK    3  A    between atoms: C5_6  and  C6_7 
REMARK    4  A    between atoms: C6_7  and  C7_8 
REMARK    5  A    between atoms: C7_8  and  C8_9 
REMARK    6  A    between atoms: C8_9  and  O2_11 
ROOT
HETATM    1  C4  UNL     1      25.967   0.458  53.450  1.00  0.00     0.043 C 
HETATM    2  C5  UNL     1      25.589   1.608  52.856  1.00  0.00     0.037 C 
HETATM    3  C9  UNL     1      24.308   2.317  52.937  1.00  0.00     0.254 C 
HETATM    4  O3  UNL     1      24.501   3.561  52.921  1.00  0.00    -0.268 OA
HETATM    5  N2  UNL     1      22.937   1.877  53.027  1.00  0.00    -0.322 N 
HETATM    6  C10 UNL     1      22.337   0.645  53.437  1.00  0.00     0.045 A 
HETATM    7  C11 UNL     1      21.030   0.817  53.066  1.00  0.00     0.030 A 
HETATM    8  C12 UNL     1      20.149  -0.214  53.326  1.00  0.00     0.002 A 
HETATM    9  C13 UNL     1      20.628  -1.373  53.948  1.00  0.00     0.001 A 
HETATM   10  C14 UNL     1      21.956  -1.522  54.313  1.00  0.00     0.013 A 
HETATM   11  C15 UNL     1      22.822  -0.491  54.052  1.00  0.00    -0.009 A 
HETATM   12  C16 UNL     1      24.150  -0.920  54.541  1.00  0.00     0.016 C 
HETATM   13  C17 UNL     1      25.427  -0.575  54.333  1.00  0.00     0.031 C 
HETATM   14  H12 UNL     1      22.300   2.666  52.715  1.00  0.00     0.169 HD
ENDROOT
BRANCH   2  15
HETATM   15  C6  UNL     1      26.592   2.268  52.026  1.00  0.00     0.057 C 
BRANCH  15  16
HETATM   16  C7  UNL     1      26.297   2.419  50.585  1.00  0.00     0.115 C 
BRANCH  16  17
HETATM   17  C8  UNL     1      26.444   3.790  50.050  1.00  0.00     0.139 C 
HETATM   18  O1  UNL     1      27.266   3.883  49.086  1.00  0.00    -0.650 OA
BRANCH  17  19
HETATM   19  O2  UNL     1      25.804   4.945  50.474  1.00  0.00    -0.776 OA
HETATM   20  H11 UNL     1      25.986   5.230  51.433  1.00  0.00     0.167 HD
ENDBRANCH  17  19
ENDBRANCH  16  17
ENDBRANCH  15  16
ENDBRANCH   2  15
BRANCH   1  21
HETATM   21  N1  UNL     1      27.332   0.126  53.116  1.00  0.00    -0.366 N 
HETATM   22  H6  UNL     1      28.115   0.779  52.815  1.00  0.00     0.165 HD
BRANCH  21  23
HETATM   23  C3  UNL     1      27.885  -1.185  53.135  1.00  0.00     0.084 C 
HETATM   24  C2  UNL     1      29.171  -1.370  53.348  1.00  0.00    -0.014 C 
HETATM   25  C1  UNL     1      30.083  -0.234  53.570  1.00  0.00     0.037 C 
ENDBRANCH  21  23
ENDBRANCH   1  21
TORSDOF 6
ENDMDL
MODEL 4
REMARK VINA RESULT:      -7.5      2.910      6.024
REMARK  6 active torsions:
REMARK  status: ('A' for Active; 'I' for Inactive)
REMARK    1  A    between atoms: C3_3  and  N1_4 
REMARK    2  A    between atoms: N1_4  and  C4_5 
REMARK    3  A    between atoms: C5_6  and  C6_7 
REMARK    4  A    between atoms: C6_7  and  C7_8 
REMARK    5  A    between atoms: C7_8  and  C8_9 
REMARK    6  A    between atoms: C8_9  and  O2_11 
ROOT
HETATM    1  C4  UNL     1      23.768   1.359  52.335  1.00  0.00     0.043 C 
HETATM    2  C5  UNL     1      24.215   2.460  51.699  1.00  0.00     0.037 C 
HETATM    3  C9  UNL     1      25.588   2.834  51.345  1.00  0.00     0.254 C 
HETATM    4  O3  UNL     1      25.601   3.430  50.236  1.00  0.00    -0.268 OA
HETATM    5  N2  UNL     1      26.862   2.657  51.999  1.00  0.00    -0.322 N 
HETATM    6  C10 UNL     1      27.317   1.757  53.013  1.00  0.00     0.045 A 
HETATM    7  C11 UNL     1      28.545   2.270  53.332  1.00  0.00     0.030 A 
HETATM    8  C12 UNL     1      29.278   1.621  54.306  1.00  0.00     0.002 A 
HETATM    9  C13 UNL     1      28.737   0.483  54.914  1.00  0.00     0.001 A 
HETATM   10  C14 UNL     1      27.490  -0.017  54.572  1.00  0.00     0.013 A 
HETATM   11  C15 UNL     1      26.771   0.635  53.603  1.00  0.00    -0.009 A 
HETATM   12  C16 UNL     1      25.502  -0.107  53.448  1.00  0.00     0.016 C 
HETATM   13  C17 UNL     1      24.282   0.137  52.951  1.00  0.00     0.031 C 
HETATM   14  H12 UNL     1      27.553   3.360  51.605  1.00  0.00     0.169 HD
ENDROOT
BRANCH   2  15
HETATM   15  C6  UNL     1      23.200   3.420  51.275  1.00  0.00     0.057 C 
BRANCH  15  16
HETATM   16  C7  UNL     1      23.020   4.635  52.097  1.00  0.00     0.115 C 
BRANCH  16  17
HETATM   17  C8  UNL     1      23.620   5.868  51.544  1.00  0.00     0.139 C 
HETATM   18  O1  UNL     1      23.402   6.036  50.303  1.00  0.00    -0.650 OA
BRANCH  17  19
HETATM   19  O2  UNL     1      24.370   6.827  52.209  1.00  0.00    -0.776 OA
HETATM   20  H11 UNL     1      25.379   6.740  52.126  1.00  0.00     0.167 HD
ENDBRANCH  17  19
ENDBRANCH  16  17
ENDBRANCH  15  16
ENDBRANCH   2  15
BRANCH   1  21
HETATM   21  N1  UNL     1      22.329   1.380  52.459  1.00  0.00    -0.366 N 
HETATM   22  H6  UNL     1      21.704   2.186  52.756  1.00  0.00     0.165 HD
BRANCH  21  23
HETATM   23  C3  UNL     1      21.468   0.279  52.192  1.00  0.00     0.084 C 
HETATM   24  C2  UNL     1      20.770  -0.280  53.158  1.00  0.00    -0.014 C 
HETATM   25  C1  UNL     1      20.855   0.208  54.546  1.00  0.00     0.037 C 
ENDBRANCH  21  23
ENDBRANCH   1  21
TORSDOF 6
ENDMDL
MODEL 5
REMARK VINA RESULT:      -7.2      2.905      6.205
REMARK  6 active torsions:
REMARK  status: ('A' for Active; 'I' for Inactive)
REMARK    1  A    between atoms: C3_3  and  N1_4 
REMARK    2  A    between atoms: N1_4  and  C4_5 
REMARK    3  A    between atoms: C5_6  and  C6_7 
REMARK    4  A    between atoms: C6_7  and  C7_8 
REMARK    5  A    between atoms: C7_8  and  C8_9 
REMARK    6  A    between atoms: C8_9  and  O2_11 
ROOT
HETATM    1  C4  UNL     1      25.336   0.944  52.429  1.00  0.00     0.043 C 
HETATM    2  C5  UNL     1      23.993   1.050  52.404  1.00  0.00     0.037 C 
HETATM    3  C9  UNL     1      23.126   1.632  51.374  1.00  0.00     0.254 C 
HETATM    4  O3  UNL     1      22.058   0.971  51.285  1.00  0.00    -0.268 OA
HETATM    5  N2  UNL     1      23.262   2.765  50.490  1.00  0.00    -0.322 N 
HETATM    6  C10 UNL     1      24.395   3.500  50.023  1.00  0.00     0.045 A 
HETATM    7  C11 UNL     1      23.813   4.576  49.406  1.00  0.00     0.030 A 
HETATM    8  C12 UNL     1      24.647   5.512  48.827  1.00  0.00     0.002 A 
HETATM    9  C13 UNL     1      26.031   5.321  48.898  1.00  0.00     0.001 A 
HETATM   10  C14 UNL     1      26.595   4.224  49.529  1.00  0.00     0.013 A 
HETATM   11  C15 UNL     1      25.758   3.299  50.100  1.00  0.00    -0.009 A 
HETATM   12  C16 UNL     1      26.622   2.255  50.691  1.00  0.00     0.016 C 
HETATM   13  C17 UNL     1      26.500   1.296  51.618  1.00  0.00     0.031 C 
HETATM   14  H12 UNL     1      22.299   3.059  50.156  1.00  0.00     0.169 HD
ENDROOT
BRANCH   2  15
HETATM   15  C6  UNL     1      23.278   0.492  53.549  1.00  0.00     0.057 C 
BRANCH  15  16
HETATM   16  C7  UNL     1      22.881  -0.930  53.484  1.00  0.00     0.115 C 
BRANCH  16  17
HETATM   17  C8  UNL     1      22.371  -1.503  54.748  1.00  0.00     0.139 C 
HETATM   18  O1  UNL     1      21.115  -1.693  54.759  1.00  0.00    -0.650 OA
BRANCH  17  19
HETATM   19  O2  UNL     1      23.091  -1.841  55.884  1.00  0.00    -0.776 OA
HETATM   20  H11 UNL     1      23.199  -2.836  56.064  1.00  0.00     0.167 HD
ENDBRANCH  17  19
ENDBRANCH  16  17
ENDBRANCH  15  16
ENDBRANCH   2  15
BRANCH   1  21
HETATM   21  N1  UNL     1      25.782   0.277  53.629  1.00  0.00    -0.366 N 
HETATM   22  H6  UNL     1      25.485  -0.671  54.006  1.00  0.00     0.165 HD
BRANCH  21  23
HETATM   23  C3  UNL     1      26.735   0.796  54.549  1.00  0.00     0.084 C 
HETATM   24  C2  UNL     1      27.953   0.298  54.609  1.00  0.00    -0.014 C 
HETATM   25  C1  UNL     1      28.373  -0.809  53.733  1.00  0.00     0.037 C 
ENDBRANCH  21  23
ENDBRANCH   1  21
TORSDOF 6
ENDMDL
MODEL 6
REMARK VINA RESULT:      -7.0      3.418      5.244
REMARK  6 active torsions:
REMARK  status: ('A' for Active; 'I' for Inactive)
REMARK    1  A    between atoms: C3_3  and  N1_4 
REMARK    2  A    between atoms: N1_4  and  C4_5 
REMARK    3  A    between atoms: C5_6  and  C6_7 
REMARK    4  A    between atoms: C6_7  and  C7_8 
REMARK    5  A    between atoms: C7_8  and  C8_9 
REMARK    6  A    between atoms: C8_9  and  O2_11 
ROOT
HETATM    1  C4  UNL     1      23.930   3.261  50.421  1.00  0.00     0.043 C 
HETATM    2  C5  UNL     1      25.040   3.945  50.080  1.00  0.00     0.037 C 
HETATM    3  C9  UNL     1      26.449   3.585  50.272  1.00  0.00     0.254 C 
HETATM    4  O3  UNL     1      27.133   3.984  49.294  1.00  0.00    -0.268 OA
HETATM    5  N2  UNL     1      27.160   2.894  51.320  1.00  0.00    -0.322 N 
HETATM    6  C10 UNL     1      26.739   1.996  52.351  1.00  0.00     0.045 A 
HETATM    7  C11 UNL     1      27.861   1.896  53.129  1.00  0.00     0.030 A 
HETATM    8  C12 UNL     1      27.798   1.082  54.243  1.00  0.00     0.002 A 
HETATM    9  C13 UNL     1      26.605   0.406  54.521  1.00  0.00     0.001 A 
HETATM   10  C14 UNL     1      25.483   0.525  53.716  1.00  0.00     0.013 A 
HETATM   11  C15 UNL     1      25.556   1.335  52.612  1.00  0.00    -0.009 A 
HETATM   12  C16 UNL     1      24.235   1.272  51.953  1.00  0.00     0.016 C 
HETATM   13  C17 UNL     1      23.544   2.012  51.076  1.00  0.00     0.031 C 
HETATM   14  H12 UNL     1      28.190   3.140  51.259  1.00  0.00     0.169 HD
ENDROOT
BRANCH   2  15
HETATM   15  C6  UNL     1      24.832   5.222  49.404  1.00  0.00     0.057 C 
BRANCH  15  16
HETATM   16  C7  UNL     1      25.296   6.446  50.090  1.00  0.00     0.115 C 
BRANCH  16  17
HETATM   17  C8  UNL     1      24.414   6.939  51.169  1.00  0.00     0.139 C 
HETATM   18  O1  UNL     1      23.734   7.965  50.852  1.00  0.00    -0.650 OA
BRANCH  17  19
HETATM   19  O2  UNL     1      24.255   6.422  52.446  1.00  0.00    -0.776 OA
HETATM   20  H11 UNL     1      24.377   7.079  53.212  1.00  0.00     0.167 HD
ENDBRANCH  17  19
ENDBRANCH  16  17
ENDBRANCH  15  16
ENDBRANCH   2  15
BRANCH   1  21
HETATM   21  N1  UNL     1      22.739   3.974  50.025  1.00  0.00    -0.366 N 
HETATM   22  H6  UNL     1      22.464   4.309  49.055  1.00  0.00     0.165 HD
BRANCH  21  23
HETATM   23  C3  UNL     1      21.687   4.363  50.900  1.00  0.00     0.084 C 
HETATM   24  C2  UNL     1      20.900   5.375  50.599  1.00  0.00    -0.014 C 
HETATM   25  C1  UNL     1      21.078   6.140  49.353  1.00  0.00     0.037 C 
ENDBRANCH  21  23
ENDBRANCH   1  21
TORSDOF 6
ENDMDL
MODEL 7
REMARK VINA RESULT:      -6.9      2.265      2.971
REMARK  6 active torsions:
REMARK  status: ('A' for Active; 'I' for Inactive)
REMARK    1  A    between atoms: C3_3  and  N1_4 
REMARK    2  A    between atoms: N1_4  and  C4_5 
REMARK    3  A    between atoms: C5_6  and  C6_7 
REMARK    4  A    between atoms: C6_7  and  C7_8 
REMARK    5  A    between atoms: C7_8  and  C8_9 
REMARK    6  A    between atoms: C8_9  and  O2_11 
ROOT
HETATM    1  C4  UNL     1      23.068   1.595  51.454  1.00  0.00     0.043 C 
HETATM    2  C5  UNL     1      23.379   1.025  52.635  1.00  0.00     0.037 C 
HETATM    3  C9  UNL     1      22.750  -0.115  53.310  1.00  0.00     0.254 C 
HETATM    4  O3  UNL     1      23.622  -0.797  53.908  1.00  0.00    -0.268 OA
HETATM    5  N2  UNL     1      21.386  -0.576  53.412  1.00  0.00    -0.322 N 
HETATM    6  C10 UNL     1      20.219  -0.337  52.621  1.00  0.00     0.045 A 
HETATM    7  C11 UNL     1      19.226  -0.883  53.390  1.00  0.00     0.030 A 
HETATM    8  C12 UNL     1      17.934  -0.823  52.907  1.00  0.00     0.002 A 
HETATM    9  C13 UNL     1      17.702  -0.214  51.669  1.00  0.00     0.001 A 
HETATM   10  C14 UNL     1      18.725   0.331  50.909  1.00  0.00     0.013 A 
HETATM   11  C15 UNL     1      20.005   0.266  51.398  1.00  0.00    -0.009 A 
HETATM   12  C16 UNL     1      20.874   0.916  50.395  1.00  0.00     0.016 C 
HETATM   13  C17 UNL     1      22.098   1.459  50.368  1.00  0.00     0.031 C 
HETATM   14  H12 UNL     1      21.299  -1.212  54.256  1.00  0.00     0.169 HD
ENDROOT
BRANCH   2  15
HETATM   15  C6  UNL     1      24.515   1.598  53.351  1.00  0.00     0.057 C 
BRANCH  15  16
HETATM   16  C7  UNL     1      25.841   0.980  53.141  1.00  0.00     0.115 C 
BRANCH  16  17
HETATM   17  C8  UNL     1      26.582   0.637  54.374  1.00  0.00     0.139 C 
HETATM   18  O1  UNL     1      27.531   1.437  54.645  1.00  0.00    -0.650 OA
BRANCH  17  19
HETATM   19  O2  UNL     1      26.361  -0.427  55.235  1.00  0.00    -0.776 OA
HETATM   20  H11 UNL     1      25.467  -0.431  55.720  1.00  0.00     0.167 HD
ENDBRANCH  17  19
ENDBRANCH  16  17
ENDBRANCH  15  16
ENDBRANCH   2  15
BRANCH   1  21
HETATM   21  N1  UNL     1      23.964   2.686  51.152  1.00  0.00    -0.366 N 
HETATM   22  H6  UNL     1      24.669   3.157  51.793  1.00  0.00     0.165 HD
BRANCH  21  23
HETATM   23  C3  UNL     1      24.061   3.343  49.893  1.00  0.00     0.084 C 
HETATM   24  C2  UNL     1      25.236   3.583  49.348  1.00  0.00    -0.014 C 
HETATM   25  C1  UNL     1      26.487   3.186  50.017  1.00  0.00     0.037 C 
ENDBRANCH  21  23
ENDBRANCH   1  21
TORSDOF 6
ENDMDL
MODEL 8
REMARK VINA RESULT:      -6.8      2.723      4.817
REMARK  6 active torsions:
REMARK  status: ('A' for Active; 'I' for Inactive)
REMARK    1  A    between atoms: C3_3  and  N1_4 
REMARK    2  A    between atoms: N1_4  and  C4_5 
REMARK    3  A    between atoms: C5_6  and  C6_7 
REMARK    4  A    between atoms: C6_7  and  C7_8 
REMARK    5  A    between atoms: C7_8  and  C8_9 
REMARK    6  A    between atoms: C8_9  and  O2_11 
ROOT
HETATM    1  C4  UNL     1      23.228  -0.126  53.381  1.00  0.00     0.043 C 
HETATM    2  C5  UNL     1      23.026   0.846  52.470  1.00  0.00     0.037 C 
HETATM    3  C9  UNL     1      21.788   1.553  52.125  1.00  0.00     0.254 C 
HETATM    4  O3  UNL     1      22.039   2.756  51.853  1.00  0.00    -0.268 OA
HETATM    5  N2  UNL     1      20.405   1.147  52.044  1.00  0.00    -0.322 N 
HETATM    6  C10 UNL     1      19.681   0.051  52.608  1.00  0.00     0.045 A 
HETATM    7  C11 UNL     1      18.479   0.127  51.957  1.00  0.00     0.030 A 
HETATM    8  C12 UNL     1      17.517  -0.812  52.274  1.00  0.00     0.002 A 
HETATM    9  C13 UNL     1      17.812  -1.785  53.235  1.00  0.00     0.001 A 
HETATM   10  C14 UNL     1      19.037  -1.840  53.880  1.00  0.00     0.013 A 
HETATM   11  C15 UNL     1      19.985  -0.903  53.558  1.00  0.00    -0.009 A 
HETATM   12  C16 UNL     1      21.172  -1.200  54.388  1.00  0.00     0.016 C 
HETATM   13  C17 UNL     1      22.481  -0.914  54.359  1.00  0.00     0.031 C 
HETATM   14  H12 UNL     1      19.878   1.837  51.435  1.00  0.00     0.169 HD
ENDROOT
BRANCH   2  15
HETATM   15  C6  UNL     1      24.199   1.287  51.721  1.00  0.00     0.057 C 
BRANCH  15  16
HETATM   16  C7  UNL     1      24.909   2.490  52.204  1.00  0.00     0.115 C 
BRANCH  16  17
HETATM   17  C8  UNL     1      25.744   3.178  51.196  1.00  0.00     0.139 C 
HETATM   18  O1  UNL     1      25.077   3.785  50.301  1.00  0.00    -0.650 OA
BRANCH  17  19
HETATM   19  O2  UNL     1      27.128   3.230  51.125  1.00  0.00    -0.776 OA
HETATM   20  H11 UNL     1      27.631   2.663  51.802  1.00  0.00     0.167 HD
ENDBRANCH  17  19
ENDBRANCH  16  17
ENDBRANCH  15  16
ENDBRANCH   2  15
BRANCH   1  21
HETATM   21  N1  UNL     1      24.615  -0.527  53.412  1.00  0.00    -0.366 N 
HETATM   22  H6  UNL     1      25.193  -0.963  52.634  1.00  0.00     0.165 HD
BRANCH  21  23
HETATM   23  C3  UNL     1      25.479  -0.402  54.536  1.00  0.00     0.084 C 
HETATM   24  C2  UNL     1      26.771  -0.209  54.373  1.00  0.00    -0.014 C 
HETATM   25  C1  UNL     1      27.369  -0.117  53.030  1.00  0.00     0.037 C 
ENDBRANCH  21  23
ENDBRANCH   1  21
TORSDOF 6
ENDMDL
MODEL 9
REMARK VINA RESULT:      -6.7      3.246      6.515
REMARK  6 active torsions:
REMARK  status: ('A' for Active; 'I' for Inactive)
REMARK    1  A    between atoms: C3_3  and  N1_4 
REMARK    2  A    between atoms: N1_4  and  C4_5 
REMARK    3  A    between atoms: C5_6  and  C6_7 
REMARK    4  A    between atoms: C6_7  and  C7_8 
REMARK    5  A    between atoms: C7_8  and  C8_9 
REMARK    6  A    between atoms: C8_9  and  O2_11 
ROOT
HETATM    1  C4  UNL     1      22.220   0.732  52.900  1.00  0.00     0.043 C 
HETATM    2  C5  UNL     1      22.412   1.650  51.933  1.00  0.00     0.037 C 
HETATM    3  C9  UNL     1      23.622   1.943  51.157  1.00  0.00     0.254 C 
HETATM    4  O3  UNL     1      23.314   2.251  49.976  1.00  0.00    -0.268 OA
HETATM    5  N2  UNL     1      25.029   1.944  51.480  1.00  0.00    -0.322 N 
HETATM    6  C10 UNL     1      25.787   1.322  52.521  1.00  0.00     0.045 A 
HETATM    7  C11 UNL     1      27.015   1.912  52.382  1.00  0.00     0.030 A 
HETATM    8  C12 UNL     1      28.013   1.527  53.255  1.00  0.00     0.002 A 
HETATM    9  C13 UNL     1      27.726   0.565  54.229  1.00  0.00     0.001 A 
HETATM   10  C14 UNL     1      26.474  -0.018  54.348  1.00  0.00     0.013 A 
HETATM   11  C15 UNL     1      25.490   0.371  53.476  1.00  0.00    -0.009 A 
HETATM   12  C16 UNL     1      24.281  -0.401  53.832  1.00  0.00     0.016 C 
HETATM   13  C17 UNL     1      22.961  -0.299  53.627  1.00  0.00     0.031 C 
HETATM   14  H12 UNL     1      25.545   2.538  50.769  1.00  0.00     0.169 HD
ENDROOT
BRANCH   2  15
HETATM   15  C6  UNL     1      21.256   2.467  51.577  1.00  0.00     0.057 C 
BRANCH  15  16
HETATM   16  C7  UNL     1      21.236   3.869  52.046  1.00  0.00     0.115 C 
BRANCH  16  17
HETATM   17  C8  UNL     1      21.468   4.888  51.000  1.00  0.00     0.139 C 
HETATM   18  O1  UNL     1      21.618   6.066  51.453  1.00  0.00    -0.650 OA
BRANCH  17  19
HETATM   19  O2  UNL     1      21.538   4.704  49.628  1.00  0.00    -0.776 OA
HETATM   20  H11 UNL     1      20.651   4.561  49.151  1.00  0.00     0.167 HD
ENDBRANCH  17  19
ENDBRANCH  16  17
ENDBRANCH  15  16
ENDBRANCH   2  15
BRANCH   1  21
HETATM   21  N1  UNL     1      20.861   0.765  53.385  1.00  0.00    -0.366 N 
HETATM   22  H6  UNL     1      20.221   1.606  53.496  1.00  0.00     0.165 HD
BRANCH  21  23
HETATM   23  C3  UNL     1      20.115  -0.369  53.813  1.00  0.00     0.084 C 
HETATM   24  C2  UNL     1      19.065  -0.780  53.133  1.00  0.00    -0.014 C 
HETATM   25  C1  UNL     1      18.623  -0.086  51.911  1.00  0.00     0.037 C 
ENDBRANCH  21  23
ENDBRANCH   1  21
TORSDOF 6
ENDMDL
