MODEL 1
REMARK VINA RESULT:      -8.3      0.000      0.000
REMARK  5 active torsions:
REMARK  status: ('A' for Active; 'I' for Inactive)
REMARK    1  A    between atoms: O1_1  and  C1_2 
REMARK    2  A    between atoms: C4_5  and  C5_6 
REMARK    3  A    between atoms: C11_13  and  C12_14 
REMARK    4  A    between atoms: C12_14  and  C13_15 
REMARK    5  A    between atoms: C13_15  and  C14_16 
ROOT
HETATM    1  C5  UNL     1      25.150   2.503  52.820  1.00  0.00     0.042 C 
HETATM    2  C6  UNL     1      24.026   3.136  52.700  1.00  0.00     0.059 C 
HETATM    3  C7  UNL     1      23.572   4.481  52.206  1.00  0.00     0.062 C 
HETATM    4  C8  UNL     1      23.959   5.767  51.717  1.00  0.00     0.158 C 
HETATM    5  N1  UNL     1      22.593   6.085  51.569  1.00  0.00    -0.406 N 
HETATM    6  C9  UNL     1      23.077   5.952  50.146  1.00  0.00     0.153 C 
HETATM    7  C10 UNL     1      23.918   4.729  50.104  1.00  0.00    -0.018 C 
HETATM    8  C11 UNL     1      24.989   5.368  49.548  1.00  0.00     0.008 C 
HETATM    9  C15 UNL     1      24.399   3.346  50.299  1.00  0.00     0.260 C 
HETATM   10  N2  UNL     1      23.371   2.372  50.214  1.00  0.00    -0.161 NA
HETATM   11  N3  UNL     1      22.297   2.208  50.754  1.00  0.00    -0.146 NA
HETATM   12  C16 UNL     1      21.706   3.010  51.711  1.00  0.00     0.257 C 
HETATM   13  N4  UNL     1      22.245   3.989  52.340  1.00  0.00    -0.242 NA
HETATM   14  N5  UNL     1      25.299   3.176  51.487  1.00  0.00    -0.361 N 
HETATM   15  H6  UNL     1      22.166   6.200  52.525  1.00  0.00     0.154 HD
HETATM   16  H16 UNL     1      26.253   3.633  51.358  1.00  0.00     0.162 HD
ENDROOT
BRANCH   1  17
HETATM   17  C4  UNL     1      26.316   1.655  53.029  1.00  0.00    -0.009 A 
HETATM   18  C3  UNL     1      27.505   2.091  53.549  1.00  0.00     0.016 A 
HETATM   19  C2  UNL     1      28.481   1.168  53.663  1.00  0.00     0.037 A 
HETATM   20  C1  UNL     1      28.215  -0.119  53.257  1.00  0.00     0.065 A 
HETATM   21  C18 UNL     1      27.034  -0.587  52.732  1.00  0.00     0.037 A 
HETATM   22  C17 UNL     1      26.026   0.363  52.613  1.00  0.00     0.016 A 
BRANCH  20  23
HETATM   23  O1  UNL     1      29.238  -1.046  53.387  1.00  0.00    -0.361 OA
HETATM   24  H1  UNL     1      29.907  -0.903  54.148  1.00  0.00     0.217 HD
ENDBRANCH  20  23
ENDBRANCH   1  17
BRANCH   8  25
HETATM   25  C12 UNL     1      26.290   4.860  49.162  1.00  0.00    -0.001 C 
BRANCH  25  26
HETATM   26  C13 UNL     1      27.455   5.116  48.650  1.00  0.00     0.004 C 
BRANCH  26  27
HETATM   27  C14 UNL     1      28.729   5.742  48.291  1.00  0.00     0.249 C 
HETATM   28  F1  UNL     1      29.547   4.715  47.794  1.00  0.00    -0.251 F 
ENDBRANCH  26  27
ENDBRANCH  25  26
ENDBRANCH   8  25
TORSDOF 5
ENDMDL
MODEL 2
REMARK VINA RESULT:      -8.1      3.020      4.759
REMARK  5 active torsions:
REMARK  status: ('A' for Active; 'I' for Inactive)
REMARK    1  A    between atoms: O1_1  and  C1_2 
REMARK    2  A    between atoms: C4_5  and  C5_6 
REMARK    3  A    between atoms: C11_13  and  C12_14 
REMARK    4  A    between atoms: C12_14  and  C13_15 
REMARK    5  A    between atoms: C13_15  and  C14_16 
ROOT
HETATM    1  C5  UNL     1      25.833   2.352  51.362  1.00  0.00     0.042 C 
HETATM    2  C6  UNL     1      25.105   3.199  50.706  1.00  0.00     0.059 C 
HETATM    3  C7  UNL     1      23.849   3.159  49.881  1.00  0.00     0.062 C 
HETATM    4  C8  UNL     1      22.839   2.343  49.283  1.00  0.00     0.158 C 
HETATM    5  N1  UNL     1      22.205   3.519  48.830  1.00  0.00    -0.406 N 
HETATM    6  C9  UNL     1      21.275   3.012  49.903  1.00  0.00     0.153 C 
HETATM    7  C10 UNL     1      22.134   2.613  51.047  1.00  0.00    -0.018 C 
HETATM    8  C11 UNL     1      21.602   1.358  51.133  1.00  0.00     0.008 C 
HETATM    9  C15 UNL     1      23.182   2.621  52.088  1.00  0.00     0.260 C 
HETATM   10  N2  UNL     1      23.404   3.901  52.657  1.00  0.00    -0.161 NA
HETATM   11  N3  UNL     1      23.657   5.004  52.217  1.00  0.00    -0.146 NA
HETATM   12  C16 UNL     1      23.818   5.364  50.893  1.00  0.00     0.257 C 
HETATM   13  N4  UNL     1      23.902   4.579  49.882  1.00  0.00    -0.242 NA
HETATM   14  N5  UNL     1      24.439   1.905  51.693  1.00  0.00    -0.361 N 
HETATM   15  H6  UNL     1      22.791   3.948  48.067  1.00  0.00     0.154 HD
HETATM   16  H16 UNL     1      24.317   0.848  51.633  1.00  0.00     0.162 HD
ENDROOT
BRANCH   1  17
HETATM   17  C4  UNL     1      26.762   1.541  52.138  1.00  0.00    -0.009 A 
HETATM   18  C3  UNL     1      27.819   2.044  52.847  1.00  0.00     0.016 A 
HETATM   19  C2  UNL     1      28.581   1.143  53.500  1.00  0.00     0.037 A 
HETATM   20  C1  UNL     1      28.246  -0.187  53.408  1.00  0.00     0.065 A 
HETATM   21  C18 UNL     1      27.193  -0.723  52.706  1.00  0.00     0.037 A 
HETATM   22  C17 UNL     1      26.405   0.204  52.031  1.00  0.00     0.016 A 
BRANCH  20  23
HETATM   23  O1  UNL     1      29.049  -1.089  54.091  1.00  0.00    -0.361 OA
HETATM   24  H1  UNL     1      29.647  -0.716  54.832  1.00  0.00     0.217 HD
ENDBRANCH  20  23
ENDBRANCH   1  17
BRANCH   8  25
HETATM   25  C12 UNL     1      21.904   0.270  52.042  1.00  0.00    -0.001 C 
BRANCH  25  26
HETATM   26  C13 UNL     1      21.507  -0.466  53.034  1.00  0.00     0.004 C 
BRANCH  26  27
HETATM   27  C14 UNL     1      21.388  -1.142  54.327  1.00  0.00     0.249 C 
HETATM   28  F1  UNL     1      21.466  -0.139  55.306  1.00  0.00    -0.251 F 
ENDBRANCH  26  27
ENDBRANCH  25  26
ENDBRANCH   8  25
TORSDOF 5
ENDMDL
MODEL 3
REMARK VINA RESULT:      -7.8      1.493      1.959
REMARK  5 active torsions:
REMARK  status: ('A' for Active; 'I' for Inactive)
REMARK    1  A    between atoms: O1_1  and  C1_2 
REMARK    2  A    between atoms: C4_5  and  C5_6 
REMARK    3  A    between atoms: C11_13  and  C12_14 
REMARK    4  A    between atoms: C12_14  and  C13_15 
REMARK    5  A    between atoms: C13_15  and  C14_16 
ROOT
HETATM    1  C5  UNL     1      23.370   2.024  52.678  1.00  0.00     0.042 C 
HETATM    2  C6  UNL     1      22.309   2.591  52.199  1.00  0.00     0.059 C 
HETATM    3  C7  UNL     1      21.970   3.892  51.526  1.00  0.00     0.062 C 
HETATM    4  C8  UNL     1      22.435   5.178  51.108  1.00  0.00     0.158 C 
HETATM    5  N1  UNL     1      21.163   5.418  50.548  1.00  0.00    -0.406 N 
HETATM    6  C9  UNL     1      22.053   5.259  49.340  1.00  0.00     0.153 C 
HETATM    7  C10 UNL     1      22.915   4.080  49.610  1.00  0.00    -0.018 C 
HETATM    8  C11 UNL     1      24.078   4.754  49.364  1.00  0.00     0.008 C 
HETATM    9  C15 UNL     1      23.370   2.733  50.009  1.00  0.00     0.260 C 
HETATM   10  N2  UNL     1      22.453   1.704  49.673  1.00  0.00    -0.161 NA
HETATM   11  N3  UNL     1      21.274   1.504  49.879  1.00  0.00    -0.146 NA
HETATM   12  C16 UNL     1      20.395   2.309  50.577  1.00  0.00     0.257 C 
HETATM   13  N4  UNL     1      20.684   3.337  51.287  1.00  0.00    -0.242 NA
HETATM   14  N5  UNL     1      23.882   2.654  51.416  1.00  0.00    -0.361 N 
HETATM   15  H6  UNL     1      20.467   5.546  51.328  1.00  0.00     0.154 HD
HETATM   16  H16 UNL     1      24.813   3.155  51.551  1.00  0.00     0.162 HD
ENDROOT
BRANCH   1  17
HETATM   17  C4  UNL     1      24.453   1.246  53.265  1.00  0.00    -0.009 A 
HETATM   18  C3  UNL     1      24.355  -0.074  53.615  1.00  0.00     0.016 A 
HETATM   19  C2  UNL     1      25.457  -0.632  54.155  1.00  0.00     0.037 A 
HETATM   20  C1  UNL     1      26.577   0.151  54.310  1.00  0.00     0.065 A 
HETATM   21  C18 UNL     1      26.708   1.476  53.970  1.00  0.00     0.037 A 
HETATM   22  C17 UNL     1      25.572   2.054  53.413  1.00  0.00     0.016 A 
BRANCH  20  23
HETATM   23  O1  UNL     1      27.695  -0.452  54.869  1.00  0.00    -0.361 OA
HETATM   24  H1  UNL     1      27.893  -1.418  54.596  1.00  0.00     0.217 HD
ENDBRANCH  20  23
ENDBRANCH   1  17
BRANCH   8  25
HETATM   25  C12 UNL     1      25.454   4.300  49.406  1.00  0.00    -0.001 C 
BRANCH  25  26
HETATM   26  C13 UNL     1      26.698   4.560  49.143  1.00  0.00     0.004 C 
BRANCH  26  27
HETATM   27  C14 UNL     1      27.936   5.051  48.536  1.00  0.00     0.249 C 
HETATM   28  F1  UNL     1      27.610   6.256  47.893  1.00  0.00    -0.251 F 
ENDBRANCH  26  27
ENDBRANCH  25  26
ENDBRANCH   8  25
TORSDOF 5
ENDMDL
MODEL 4
REMARK VINA RESULT:      -7.7      2.604      5.276
REMARK  5 active torsions:
REMARK  status: ('A' for Active; 'I' for Inactive)
REMARK    1  A    between atoms: O1_1  and  C1_2 
REMARK    2  A    between atoms: C4_5  and  C5_6 
REMARK    3  A    between atoms: C11_13  and  C12_14 
REMARK    4  A    between atoms: C12_14  and  C13_15 
REMARK    5  A    between atoms: C13_15  and  C14_16 
ROOT
HETATM    1  C5  UNL     1      23.273   3.573  49.560  1.00  0.00     0.042 C 
HETATM    2  C6  UNL     1      22.034   3.218  49.697  1.00  0.00     0.059 C 
HETATM    3  C7  UNL     1      21.287   1.976  50.098  1.00  0.00     0.062 C 
HETATM    4  C8  UNL     1      21.369   0.592  50.443  1.00  0.00     0.158 C 
HETATM    5  N1  UNL     1      19.974   0.596  50.651  1.00  0.00    -0.406 N 
HETATM    6  C9  UNL     1      20.535   0.463  52.045  1.00  0.00     0.153 C 
HETATM    7  C10 UNL     1      21.650   1.439  52.141  1.00  0.00    -0.018 C 
HETATM    8  C11 UNL     1      22.555   0.509  52.567  1.00  0.00     0.008 C 
HETATM    9  C15 UNL     1      22.445   2.680  52.039  1.00  0.00     0.260 C 
HETATM   10  N2  UNL     1      21.690   3.857  52.278  1.00  0.00    -0.161 NA
HETATM   11  N3  UNL     1      20.666   4.327  51.827  1.00  0.00    -0.146 NA
HETATM   12  C16 UNL     1      19.858   3.791  50.843  1.00  0.00     0.257 C 
HETATM   13  N4  UNL     1      20.116   2.781  50.094  1.00  0.00    -0.242 NA
HETATM   14  N5  UNL     1      23.308   2.751  50.815  1.00  0.00    -0.361 N 
HETATM   15  H6  UNL     1      19.492   0.684  49.719  1.00  0.00     0.154 HD
HETATM   16  H16 UNL     1      24.127   2.068  50.840  1.00  0.00     0.162 HD
ENDROOT
BRANCH   1  17
HETATM   17  C4  UNL     1      24.600   4.135  49.352  1.00  0.00    -0.009 A 
HETATM   18  C3  UNL     1      24.839   5.410  48.915  1.00  0.00     0.016 A 
HETATM   19  C2  UNL     1      26.133   5.758  48.769  1.00  0.00     0.037 A 
HETATM   20  C1  UNL     1      27.099   4.825  49.065  1.00  0.00     0.065 A 
HETATM   21  C18 UNL     1      26.893   3.540  49.505  1.00  0.00     0.037 A 
HETATM   22  C17 UNL     1      25.558   3.178  49.655  1.00  0.00     0.016 A 
BRANCH  20  23
HETATM   23  O1  UNL     1      28.422   5.213  48.906  1.00  0.00    -0.361 OA
HETATM   24  H1  UNL     1      28.615   5.948  48.221  1.00  0.00     0.217 HD
ENDBRANCH  20  23
ENDBRANCH   1  17
BRANCH   8  25
HETATM   25  C12 UNL     1      23.956   0.650  52.910  1.00  0.00    -0.001 C 
BRANCH  25  26
HETATM   26  C13 UNL     1      25.169   0.218  52.747  1.00  0.00     0.004 C 
BRANCH  26  27
HETATM   27  C14 UNL     1      26.447  -0.207  52.175  1.00  0.00     0.249 C 
HETATM   28  F1  UNL     1      27.050   0.948  51.650  1.00  0.00    -0.251 F 
ENDBRANCH  26  27
ENDBRANCH  25  26
ENDBRANCH   8  25
TORSDOF 5
ENDMDL
MODEL 5
REMARK VINA RESULT:      -7.7      2.893      3.898
REMARK  5 active torsions:
REMARK  status: ('A' for Active; 'I' for Inactive)
REMARK    1  A    between atoms: O1_1  and  C1_2 
REMARK    2  A    between atoms: C4_5  and  C5_6 
REMARK    3  A    between atoms: C11_13  and  C12_14 
REMARK    4  A    between atoms: C12_14  and  C13_15 
REMARK    5  A    between atoms: C13_15  and  C14_16 
ROOT
HETATM    1  C5  UNL     1      22.159   2.373  52.112  1.00  0.00     0.042 C 
HETATM    2  C6  UNL     1      21.851   3.371  51.346  1.00  0.00     0.059 C 
HETATM    3  C7  UNL     1      22.546   4.583  50.793  1.00  0.00     0.062 C 
HETATM    4  C8  UNL     1      23.734   5.379  50.783  1.00  0.00     0.158 C 
HETATM    5  N1  UNL     1      23.131   6.207  49.813  1.00  0.00    -0.406 N 
HETATM    6  C9  UNL     1      24.207   5.487  49.039  1.00  0.00     0.153 C 
HETATM    7  C10 UNL     1      24.133   4.061  49.448  1.00  0.00    -0.018 C 
HETATM    8  C11 UNL     1      25.457   3.986  49.776  1.00  0.00     0.008 C 
HETATM    9  C15 UNL     1      23.612   2.722  49.790  1.00  0.00     0.260 C 
HETATM   10  N2  UNL     1      22.524   2.313  48.976  1.00  0.00    -0.161 NA
HETATM   11  N3  UNL     1      21.450   2.792  48.674  1.00  0.00    -0.146 NA
HETATM   12  C16 UNL     1      20.925   4.002  49.083  1.00  0.00     0.257 C 
HETATM   13  N4  UNL     1      21.388   4.779  49.993  1.00  0.00    -0.242 NA
HETATM   14  N5  UNL     1      23.384   2.514  51.257  1.00  0.00    -0.361 N 
HETATM   15  H6  UNL     1      22.358   6.757  50.269  1.00  0.00     0.154 HD
HETATM   16  H16 UNL     1      24.289   2.452  51.817  1.00  0.00     0.162 HD
ENDROOT
BRANCH   1  17
HETATM   17  C4  UNL     1      22.330   1.196  52.954  1.00  0.00    -0.009 A 
HETATM   18  C3  UNL     1      23.499   0.494  53.071  1.00  0.00     0.016 A 
HETATM   19  C2  UNL     1      23.472  -0.577  53.890  1.00  0.00     0.037 A 
HETATM   20  C1  UNL     1      22.295  -0.878  54.534  1.00  0.00     0.065 A 
HETATM   21  C18 UNL     1      21.107  -0.195  54.438  1.00  0.00     0.037 A 
HETATM   22  C17 UNL     1      21.132   0.910  53.594  1.00  0.00     0.016 A 
BRANCH  20  23
HETATM   23  O1  UNL     1      22.299  -1.986  55.371  1.00  0.00    -0.361 OA
HETATM   24  H1  UNL     1      21.458  -2.155  55.929  1.00  0.00     0.217 HD
ENDBRANCH  20  23
ENDBRANCH   1  17
BRANCH   8  25
HETATM   25  C12 UNL     1      26.237   2.876  50.284  1.00  0.00    -0.001 C 
BRANCH  25  26
HETATM   26  C13 UNL     1      26.773   2.300  51.317  1.00  0.00     0.004 C 
BRANCH  26  27
HETATM   27  C14 UNL     1      27.118   1.359  52.383  1.00  0.00     0.249 C 
HETATM   28  F1  UNL     1      26.778   0.082  51.908  1.00  0.00    -0.251 F 
ENDBRANCH  26  27
ENDBRANCH  25  26
ENDBRANCH   8  25
TORSDOF 5
ENDMDL
MODEL 6
REMARK VINA RESULT:      -7.7      2.694      5.262
REMARK  5 active torsions:
REMARK  status: ('A' for Active; 'I' for Inactive)
REMARK    1  A    between atoms: O1_1  and  C1_2 
REMARK    2  A    between atoms: C4_5  and  C5_6 
REMARK    3  A    between atoms: C11_13  and  C12_14 
REMARK    4  A    between atoms: C12_14  and  C13_15 
REMARK    5  A    between atoms: C13_15  and  C14_16 
ROOT
HETATM    1  C5  UNL     1      24.568   4.188  49.440  1.00  0.00     0.042 C 
HETATM    2  C6  UNL     1      23.396   3.703  49.700  1.00  0.00     0.059 C 
HETATM    3  C7  UNL     1      22.837   2.523  50.445  1.00  0.00     0.062 C 
HETATM    4  C8  UNL     1      23.121   1.316  51.156  1.00  0.00     0.158 C 
HETATM    5  N1  UNL     1      21.738   1.167  51.390  1.00  0.00    -0.406 N 
HETATM    6  C9  UNL     1      22.288   1.509  52.752  1.00  0.00     0.153 C 
HETATM    7  C10 UNL     1      23.241   2.630  52.548  1.00  0.00    -0.018 C 
HETATM    8  C11 UNL     1      24.269   2.000  53.190  1.00  0.00     0.008 C 
HETATM    9  C15 UNL     1      23.841   3.899  52.089  1.00  0.00     0.260 C 
HETATM   10  N2  UNL     1      22.913   4.970  52.014  1.00  0.00    -0.161 NA
HETATM   11  N3  UNL     1      21.838   5.138  51.476  1.00  0.00    -0.146 NA
HETATM   12  C16 UNL     1      21.138   4.237  50.698  1.00  0.00     0.257 C 
HETATM   13  N4  UNL     1      21.558   3.111  50.250  1.00  0.00    -0.242 NA
HETATM   14  N5  UNL     1      24.706   3.759  50.872  1.00  0.00    -0.361 N 
HETATM   15  H6  UNL     1      21.265   0.923  50.481  1.00  0.00     0.154 HD
HETATM   16  H16 UNL     1      25.617   3.241  51.063  1.00  0.00     0.162 HD
ENDROOT
BRANCH   1  17
HETATM   17  C4  UNL     1      25.799   4.863  49.052  1.00  0.00    -0.009 A 
HETATM   18  C3  UNL     1      27.028   4.262  49.005  1.00  0.00     0.016 A 
HETATM   19  C2  UNL     1      28.061   5.045  48.632  1.00  0.00     0.037 A 
HETATM   20  C1  UNL     1      27.808   6.363  48.333  1.00  0.00     0.065 A 
HETATM   21  C18 UNL     1      26.589   6.995  48.370  1.00  0.00     0.037 A 
HETATM   22  C17 UNL     1      25.522   6.190  48.754  1.00  0.00     0.016 A 
BRANCH  20  23
HETATM   23  O1  UNL     1      28.892   7.142  47.952  1.00  0.00    -0.361 OA
HETATM   24  H1  UNL     1      29.324   6.935  47.048  1.00  0.00     0.217 HD
ENDBRANCH  20  23
ENDBRANCH   1  17
BRANCH   8  25
HETATM   25  C12 UNL     1      25.626   2.439  53.447  1.00  0.00    -0.001 C 
BRANCH  25  26
HETATM   26  C13 UNL     1      26.878   2.112  53.549  1.00  0.00     0.004 C 
BRANCH  26  27
HETATM   27  C14 UNL     1      28.274   1.779  53.263  1.00  0.00     0.249 C 
HETATM   28  F1  UNL     1      29.039   2.870  53.704  1.00  0.00    -0.251 F 
ENDBRANCH  26  27
ENDBRANCH  25  26
ENDBRANCH   8  25
TORSDOF 5
ENDMDL
MODEL 7
REMARK VINA RESULT:      -7.7      2.013      2.717
REMARK  5 active torsions:
REMARK  status: ('A' for Active; 'I' for Inactive)
REMARK    1  A    between atoms: O1_1  and  C1_2 
REMARK    2  A    between atoms: C4_5  and  C5_6 
REMARK    3  A    between atoms: C11_13  and  C12_14 
REMARK    4  A    between atoms: C12_14  and  C13_15 
REMARK    5  A    between atoms: C13_15  and  C14_16 
ROOT
HETATM    1  C5  UNL     1      23.234   1.117  52.770  1.00  0.00     0.042 C 
HETATM    2  C6  UNL     1      21.999   1.500  52.690  1.00  0.00     0.059 C 
HETATM    3  C7  UNL     1      21.258   2.732  52.249  1.00  0.00     0.062 C 
HETATM    4  C8  UNL     1      21.353   4.084  51.796  1.00  0.00     0.158 C 
HETATM    5  N1  UNL     1      19.947   4.109  51.682  1.00  0.00    -0.406 N 
HETATM    6  C9  UNL     1      20.414   4.123  50.248  1.00  0.00     0.153 C 
HETATM    7  C10 UNL     1      21.493   3.107  50.151  1.00  0.00    -0.018 C 
HETATM    8  C11 UNL     1      22.391   3.975  49.597  1.00  0.00     0.008 C 
HETATM    9  C15 UNL     1      22.261   1.853  50.292  1.00  0.00     0.260 C 
HETATM   10  N2  UNL     1      21.460   0.686  50.192  1.00  0.00    -0.161 NA
HETATM   11  N3  UNL     1      20.458   0.282  50.745  1.00  0.00    -0.146 NA
HETATM   12  C16 UNL     1      19.734   0.913  51.738  1.00  0.00     0.257 C 
HETATM   13  N4  UNL     1      20.069   1.966  52.390  1.00  0.00    -0.242 NA
HETATM   14  N5  UNL     1      23.204   1.844  51.457  1.00  0.00    -0.361 N 
HETATM   15  H6  UNL     1      19.528   4.103  52.649  1.00  0.00     0.154 HD
HETATM   16  H16 UNL     1      24.037   2.497  51.326  1.00  0.00     0.162 HD
ENDROOT
BRANCH   1  17
HETATM   17  C4  UNL     1      24.557   0.531  52.930  1.00  0.00    -0.009 A 
HETATM   18  C3  UNL     1      24.864  -0.445  53.840  1.00  0.00     0.016 A 
HETATM   19  C2  UNL     1      26.146  -0.865  53.855  1.00  0.00     0.037 A 
HETATM   20  C1  UNL     1      27.032  -0.293  52.972  1.00  0.00     0.065 A 
HETATM   21  C18 UNL     1      26.756   0.686  52.049  1.00  0.00     0.037 A 
HETATM   22  C17 UNL     1      25.434   1.121  52.031  1.00  0.00     0.016 A 
BRANCH  20  23
HETATM   23  O1  UNL     1      28.343  -0.745  53.012  1.00  0.00    -0.361 OA
HETATM   24  H1  UNL     1      28.804  -0.927  52.117  1.00  0.00     0.217 HD
ENDBRANCH  20  23
ENDBRANCH   1  17
BRANCH   8  25
HETATM   25  C12 UNL     1      23.761   3.766  49.173  1.00  0.00    -0.001 C 
BRANCH  25  26
HETATM   26  C13 UNL     1      25.012   4.069  49.334  1.00  0.00     0.004 C 
BRANCH  26  27
HETATM   27  C14 UNL     1      26.460   4.011  49.540  1.00  0.00     0.249 C 
HETATM   28  F1  UNL     1      26.845   2.687  49.273  1.00  0.00    -0.251 F 
ENDBRANCH  26  27
ENDBRANCH  25  26
ENDBRANCH   8  25
TORSDOF 5
ENDMDL
MODEL 8
REMARK VINA RESULT:      -7.5      6.581     10.184
REMARK  5 active torsions:
REMARK  status: ('A' for Active; 'I' for Inactive)
REMARK    1  A    between atoms: O1_1  and  C1_2 
REMARK    2  A    between atoms: C4_5  and  C5_6 
REMARK    3  A    between atoms: C11_13  and  C12_14 
REMARK    4  A    between atoms: C12_14  and  C13_15 
REMARK    5  A    between atoms: C13_15  and  C14_16 
ROOT
HETATM    1  C5  UNL     1      31.681   9.321  48.390  1.00  0.00     0.042 C 
HETATM    2  C6  UNL     1      32.575   8.418  48.139  1.00  0.00     0.059 C 
HETATM    3  C7  UNL     1      32.770   6.956  48.432  1.00  0.00     0.062 C 
HETATM    4  C8  UNL     1      32.281   5.799  49.114  1.00  0.00     0.158 C 
HETATM    5  N1  UNL     1      33.329   5.055  48.533  1.00  0.00    -0.406 N 
HETATM    6  C9  UNL     1      32.100   4.542  47.824  1.00  0.00     0.153 C 
HETATM    7  C10 UNL     1      31.291   5.736  47.472  1.00  0.00    -0.018 C 
HETATM    8  C11 UNL     1      30.155   5.259  48.060  1.00  0.00     0.008 C 
HETATM    9  C15 UNL     1      30.898   7.075  46.987  1.00  0.00     0.260 C 
HETATM   10  N2  UNL     1      31.599   7.483  45.823  1.00  0.00    -0.161 NA
HETATM   11  N3  UNL     1      32.769   7.577  45.514  1.00  0.00    -0.146 NA
HETATM   12  C16 UNL     1      33.870   7.281  46.294  1.00  0.00     0.257 C 
HETATM   13  N4  UNL     1      33.881   7.013  47.548  1.00  0.00    -0.242 NA
HETATM   14  N5  UNL     1      30.844   8.120  48.061  1.00  0.00    -0.361 N 
HETATM   15  H6  UNL     1      34.239   5.350  48.974  1.00  0.00     0.154 HD
HETATM   16  H16 UNL     1      30.034   7.980  48.740  1.00  0.00     0.162 HD
ENDROOT
BRANCH   1  17
HETATM   17  C4  UNL     1      30.786  10.454  48.584  1.00  0.00    -0.009 A 
HETATM   18  C3  UNL     1      31.190  11.762  48.611  1.00  0.00     0.016 A 
HETATM   19  C2  UNL     1      30.224  12.681  48.811  1.00  0.00     0.037 A 
HETATM   20  C1  UNL     1      28.929  12.245  48.970  1.00  0.00     0.065 A 
HETATM   21  C18 UNL     1      28.492  10.943  48.948  1.00  0.00     0.037 A 
HETATM   22  C17 UNL     1      29.487   9.992  48.742  1.00  0.00     0.016 A 
BRANCH  20  23
HETATM   23  O1  UNL     1      27.958  13.215  49.174  1.00  0.00    -0.361 OA
HETATM   24  H1  UNL     1      27.293  13.059  49.936  1.00  0.00     0.217 HD
ENDBRANCH  20  23
ENDBRANCH   1  17
BRANCH   8  25
HETATM   25  C12 UNL     1      28.834   5.846  48.166  1.00  0.00    -0.001 C 
BRANCH  25  26
HETATM   26  C13 UNL     1      27.580   5.669  48.449  1.00  0.00     0.004 C 
BRANCH  26  27
HETATM   27  C14 UNL     1      26.321   5.239  49.061  1.00  0.00     0.249 C 
HETATM   28  F1  UNL     1      26.330   3.835  49.039  1.00  0.00    -0.251 F 
ENDBRANCH  26  27
ENDBRANCH  25  26
ENDBRANCH   8  25
TORSDOF 5
ENDMDL
MODEL 9
REMARK VINA RESULT:      -7.4      1.630      2.128
REMARK  5 active torsions:
REMARK  status: ('A' for Active; 'I' for Inactive)
REMARK    1  A    between atoms: O1_1  and  C1_2 
REMARK    2  A    between atoms: C4_5  and  C5_6 
REMARK    3  A    between atoms: C11_13  and  C12_14 
REMARK    4  A    between atoms: C12_14  and  C13_15 
REMARK    5  A    between atoms: C13_15  and  C14_16 
ROOT
HETATM    1  C5  UNL     1      24.104   3.620  51.865  1.00  0.00     0.042 C 
HETATM    2  C6  UNL     1      23.350   4.649  51.641  1.00  0.00     0.059 C 
HETATM    3  C7  UNL     1      23.544   6.083  51.231  1.00  0.00     0.062 C 
HETATM    4  C8  UNL     1      24.477   7.129  50.950  1.00  0.00     0.158 C 
HETATM    5  N1  UNL     1      23.389   7.966  50.628  1.00  0.00    -0.406 N 
HETATM    6  C9  UNL     1      24.039   7.708  49.292  1.00  0.00     0.153 C 
HETATM    7  C10 UNL     1      24.340   6.255  49.248  1.00  0.00    -0.018 C 
HETATM    8  C11 UNL     1      25.657   6.440  48.936  1.00  0.00     0.008 C 
HETATM    9  C15 UNL     1      24.211   4.788  49.365  1.00  0.00     0.260 C 
HETATM   10  N2  UNL     1      22.924   4.304  49.017  1.00  0.00    -0.161 NA
HETATM   11  N3  UNL     1      21.788   4.557  49.363  1.00  0.00    -0.146 NA
HETATM   12  C16 UNL     1      21.384   5.490  50.298  1.00  0.00     0.257 C 
HETATM   13  N4  UNL     1      22.130   6.151  51.106  1.00  0.00    -0.242 NA
HETATM   14  N5  UNL     1      24.742   4.230  50.651  1.00  0.00    -0.361 N 
HETATM   15  H6  UNL     1      22.870   8.204  51.513  1.00  0.00     0.154 HD
HETATM   16  H16 UNL     1      25.805   4.278  50.721  1.00  0.00     0.162 HD
ENDROOT
BRANCH   1  17
HETATM   17  C4  UNL     1      24.797   2.373  52.159  1.00  0.00    -0.009 A 
HETATM   18  C3  UNL     1      24.321   1.405  53.003  1.00  0.00     0.016 A 
HETATM   19  C2  UNL     1      25.102   0.318  53.164  1.00  0.00     0.037 A 
HETATM   20  C1  UNL     1      26.295   0.262  52.482  1.00  0.00     0.065 A 
HETATM   21  C18 UNL     1      26.799   1.214  51.629  1.00  0.00     0.037 A 
HETATM   22  C17 UNL     1      25.996   2.337  51.461  1.00  0.00     0.016 A 
BRANCH  20  23
HETATM   23  O1  UNL     1      27.076  -0.869  52.668  1.00  0.00    -0.361 OA
HETATM   24  H1  UNL     1      26.588  -1.751  52.846  1.00  0.00     0.217 HD
ENDBRANCH  20  23
ENDBRANCH   1  17
BRANCH   8  25
HETATM   25  C12 UNL     1      26.712   5.473  48.704  1.00  0.00    -0.001 C 
BRANCH  25  26
HETATM   26  C13 UNL     1      27.985   5.258  48.568  1.00  0.00     0.004 C 
BRANCH  26  27
HETATM   27  C14 UNL     1      29.389   5.326  48.162  1.00  0.00     0.249 C 
HETATM   28  F1  UNL     1      29.905   6.506  48.721  1.00  0.00    -0.251 F 
ENDBRANCH  26  27
ENDBRANCH  25  26
ENDBRANCH   8  25
TORSDOF 5
ENDMDL
