MODEL 1
REMARK VINA RESULT:      -7.5      0.000      0.000
REMARK  10 active torsions:
REMARK  status: ('A' for Active; 'I' for Inactive)
REMARK    1  A    between atoms: C5_5  and  C6_6 
REMARK    2  A    between atoms: C6_6  and  C7_7 
REMARK    3  A    between atoms: C8_8  and  C9_9 
REMARK    4  A    between atoms: C10_10  and  O1_11 
REMARK    5  A    between atoms: N1_12  and  O2_13 
REMARK    6  A    between atoms: O2_13  and  C11_14 
REMARK    7  A    between atoms: C11_14  and  C12_15 
REMARK    8  A    between atoms: C12_15  and  C13_16 
REMARK    9  A    between atoms: C12_15  and  C15_19 
REMARK   10  A    between atoms: C14_17  and  N2_18 
ROOT
HETATM    1  C1  UNL     1      25.101   4.507  49.371  1.00  0.00     0.045 C 
HETATM    2  C2  UNL     1      25.207   3.311  50.241  1.00  0.00    -0.064 A 
HETATM    3  C3  UNL     1      26.448   2.972  50.555  1.00  0.00     0.006 A 
HETATM    4  C4  UNL     1      26.531   1.787  51.417  1.00  0.00     0.027 A 
HETATM    5  C5  UNL     1      25.506   1.087  51.868  1.00  0.00     0.038 A 
HETATM    6  N1  UNL     1      24.189   1.502  51.499  1.00  0.00    -0.259 N 
HETATM    7  C19 UNL     1      23.966   2.650  50.652  1.00  0.00     0.189 A 
ENDROOT
BRANCH   6   8
HETATM    8  O2  UNL     1      23.149   0.789  51.966  1.00  0.00    -0.277 OA
BRANCH   8   9
HETATM    9  C11 UNL     1      22.359   1.484  52.882  1.00  0.00     0.215 C 
BRANCH   9  10
HETATM   10  C12 UNL     1      21.371   0.475  53.422  1.00  0.00     0.075 C 
BRANCH  10  11
HETATM   11  C13 UNL     1      22.099  -0.809  53.608  1.00  0.00    -0.004 C 
HETATM   12  C14 UNL     1      22.328  -0.951  54.887  1.00  0.00     0.051 C 
BRANCH  12  13
HETATM   13  N2  UNL     1      22.934  -1.865  55.779  1.00  0.00    -0.312 NA
HETATM   14  H18 UNL     1      22.745  -1.482  56.750  1.00  0.00     0.123 HD
HETATM   15  H19 UNL     1      22.737  -1.470  56.745  1.00  0.00     0.123 HD
ENDBRANCH  12  13
ENDBRANCH  10  11
BRANCH  10  16
HETATM   16  C15 UNL     1      20.205   0.275  52.630  1.00  0.00    -0.008 A 
HETATM   17  C16 UNL     1      19.830   0.736  51.407  1.00  0.00     0.016 A 
HETATM   18  C17 UNL     1      18.639   0.405  50.827  1.00  0.00     0.008 A 
HETATM   19  C18 UNL     1      17.782  -0.515  51.662  1.00  0.00     0.050 A 
HETATM   20  S1  UNL     1      18.847  -0.777  53.207  1.00  0.00    -0.106 SA
ENDBRANCH  10  16
ENDBRANCH   9  10
ENDBRANCH   8   9
ENDBRANCH   6   8
BRANCH   5  21
HETATM   21  C6  UNL     1      25.661  -0.117  52.746  1.00  0.00     0.086 C 
BRANCH  21  22
HETATM   22  C7  UNL     1      27.033  -0.625  52.699  1.00  0.00    -0.021 C 
HETATM   23  C8  UNL     1      27.999  -0.609  53.609  1.00  0.00    -0.002 C 
BRANCH  23  24
HETATM   24  C9  UNL     1      29.326  -1.181  53.361  1.00  0.00     0.023 C 
HETATM   25  C10 UNL     1      30.352  -0.369  53.432  1.00  0.00     0.131 C 
BRANCH  25  26
HETATM   26  O1  UNL     1      29.729   0.813  53.742  1.00  0.00    -0.373 OA
HETATM   27  H12 UNL     1      28.977   1.202  53.210  1.00  0.00     0.216 HD
ENDBRANCH  25  26
ENDBRANCH  23  24
ENDBRANCH  21  22
ENDBRANCH   5  21
TORSDOF 10
ENDMDL
MODEL 2
REMARK VINA RESULT:      -7.4      2.782      5.634
REMARK  10 active torsions:
REMARK  status: ('A' for Active; 'I' for Inactive)
REMARK    1  A    between atoms: C5_5  and  C6_6 
REMARK    2  A    between atoms: C6_6  and  C7_7 
REMARK    3  A    between atoms: C8_8  and  C9_9 
REMARK    4  A    between atoms: C10_10  and  O1_11 
REMARK    5  A    between atoms: N1_12  and  O2_13 
REMARK    6  A    between atoms: O2_13  and  C11_14 
REMARK    7  A    between atoms: C11_14  and  C12_15 
REMARK    8  A    between atoms: C12_15  and  C13_16 
REMARK    9  A    between atoms: C12_15  and  C15_19 
REMARK   10  A    between atoms: C14_17  and  N2_18 
ROOT
HETATM    1  C1  UNL     1      20.273   1.927  49.097  1.00  0.00     0.045 C 
HETATM    2  C2  UNL     1      21.689   2.235  49.413  1.00  0.00    -0.064 A 
HETATM    3  C3  UNL     1      22.286   3.023  48.533  1.00  0.00     0.006 A 
HETATM    4  C4  UNL     1      23.685   3.317  48.864  1.00  0.00     0.027 A 
HETATM    5  C5  UNL     1      24.339   2.869  49.921  1.00  0.00     0.038 A 
HETATM    6  N1  UNL     1      23.641   2.023  50.839  1.00  0.00    -0.259 N 
HETATM    7  C19 UNL     1      22.261   1.654  50.630  1.00  0.00     0.189 A 
ENDROOT
BRANCH   6   8
HETATM    8  O2  UNL     1      24.309   1.575  51.916  1.00  0.00    -0.277 OA
BRANCH   8   9
HETATM    9  C11 UNL     1      23.493   0.969  52.872  1.00  0.00     0.215 C 
BRANCH   9  10
HETATM   10  C12 UNL     1      24.131  -0.367  53.171  1.00  0.00     0.075 C 
BRANCH  10  11
HETATM   11  C13 UNL     1      23.453  -0.928  54.371  1.00  0.00    -0.004 C 
HETATM   12  C14 UNL     1      22.168  -0.926  54.134  1.00  0.00     0.051 C 
BRANCH  12  13
HETATM   13  N2  UNL     1      20.954  -1.287  54.765  1.00  0.00    -0.312 NA
HETATM   14  H18 UNL     1      20.548  -0.382  55.138  1.00  0.00     0.123 HD
HETATM   15  H19 UNL     1      20.559  -0.373  55.132  1.00  0.00     0.123 HD
ENDBRANCH  12  13
ENDBRANCH  10  11
BRANCH  10  16
HETATM   16  C15 UNL     1      25.542  -0.343  53.365  1.00  0.00    -0.008 A 
HETATM   17  C16 UNL     1      26.590  -0.634  52.548  1.00  0.00     0.016 A 
HETATM   18  C17 UNL     1      27.889  -0.537  52.955  1.00  0.00     0.008 A 
HETATM   19  C18 UNL     1      28.056  -0.079  54.384  1.00  0.00     0.050 A 
HETATM   20  S1  UNL     1      26.264   0.151  54.952  1.00  0.00    -0.106 SA
ENDBRANCH  10  16
ENDBRANCH   9  10
ENDBRANCH   8   9
ENDBRANCH   6   8
BRANCH   5  21
HETATM   21  C6  UNL     1      25.771   3.206  50.202  1.00  0.00     0.086 C 
BRANCH  21  22
HETATM   22  C7  UNL     1      26.208   4.343  49.390  1.00  0.00    -0.021 C 
HETATM   23  C8  UNL     1      27.425   4.755  49.052  1.00  0.00    -0.002 C 
BRANCH  23  24
HETATM   24  C9  UNL     1      27.652   5.937  48.216  1.00  0.00     0.023 C 
HETATM   25  C10 UNL     1      28.865   6.435  48.198  1.00  0.00     0.131 C 
BRANCH  25  26
HETATM   26  O1  UNL     1      29.512   5.575  49.049  1.00  0.00    -0.373 OA
HETATM   27  H12 UNL     1      29.049   5.019  49.738  1.00  0.00     0.216 HD
ENDBRANCH  25  26
ENDBRANCH  23  24
ENDBRANCH  21  22
ENDBRANCH   5  21
TORSDOF 10
ENDMDL
MODEL 3
REMARK VINA RESULT:      -7.3      1.550      2.077
REMARK  10 active torsions:
REMARK  status: ('A' for Active; 'I' for Inactive)
REMARK    1  A    between atoms: C5_5  and  C6_6 
REMARK    2  A    between atoms: C6_6  and  C7_7 
REMARK    3  A    between atoms: C8_8  and  C9_9 
REMARK    4  A    between atoms: C10_10  and  O1_11 
REMARK    5  A    between atoms: N1_12  and  O2_13 
REMARK    6  A    between atoms: O2_13  and  C11_14 
REMARK    7  A    between atoms: C11_14  and  C12_15 
REMARK    8  A    between atoms: C12_15  and  C13_16 
REMARK    9  A    between atoms: C12_15  and  C15_19 
REMARK   10  A    between atoms: C14_17  and  N2_18 
ROOT
HETATM    1  C1  UNL     1      22.392   2.352  47.812  1.00  0.00     0.045 C 
HETATM    2  C2  UNL     1      22.898   2.492  49.199  1.00  0.00    -0.064 A 
HETATM    3  C3  UNL     1      24.027   3.176  49.301  1.00  0.00     0.006 A 
HETATM    4  C4  UNL     1      24.511   3.305  50.681  1.00  0.00     0.027 A 
HETATM    5  C5  UNL     1      23.922   2.810  51.755  1.00  0.00     0.038 A 
HETATM    6  N1  UNL     1      22.704   2.083  51.583  1.00  0.00    -0.259 N 
HETATM    7  C19 UNL     1      22.120   1.879  50.278  1.00  0.00     0.189 A 
ENDROOT
BRANCH   6   8
HETATM    8  O2  UNL     1      22.105   1.586  52.680  1.00  0.00    -0.277 OA
BRANCH   8   9
HETATM    9  C11 UNL     1      21.993   0.196  52.678  1.00  0.00     0.215 C 
BRANCH   9  10
HETATM   10  C12 UNL     1      20.779  -0.121  53.521  1.00  0.00     0.075 C 
BRANCH  10  11
HETATM   11  C13 UNL     1      21.088  -1.345  54.308  1.00  0.00    -0.004 C 
HETATM   12  C14 UNL     1      22.218  -1.139  54.930  1.00  0.00     0.051 C 
BRANCH  12  13
HETATM   13  N2  UNL     1      23.100  -1.804  55.814  1.00  0.00    -0.312 NA
HETATM   14  H18 UNL     1      24.076  -1.541  55.492  1.00  0.00     0.123 HD
HETATM   15  H19 UNL     1      24.071  -1.532  55.481  1.00  0.00     0.123 HD
ENDBRANCH  12  13
ENDBRANCH  10  11
BRANCH  10  16
HETATM   16  C15 UNL     1      19.561  -0.287  52.802  1.00  0.00    -0.008 A 
HETATM   17  C16 UNL     1      19.119   0.199  51.612  1.00  0.00     0.016 A 
HETATM   18  C17 UNL     1      17.886  -0.100  51.106  1.00  0.00     0.008 A 
HETATM   19  C18 UNL     1      17.064  -1.013  51.983  1.00  0.00     0.050 A 
HETATM   20  S1  UNL     1      18.220  -1.318  53.454  1.00  0.00    -0.106 SA
ENDBRANCH  10  16
ENDBRANCH   9  10
ENDBRANCH   8   9
ENDBRANCH   6   8
BRANCH   5  21
HETATM   21  C6  UNL     1      24.470   2.977  53.139  1.00  0.00     0.086 C 
BRANCH  21  22
HETATM   22  C7  UNL     1      25.529   2.001  53.402  1.00  0.00    -0.021 C 
HETATM   23  C8  UNL     1      26.840   2.061  53.194  1.00  0.00    -0.002 C 
BRANCH  23  24
HETATM   24  C9  UNL     1      27.742   0.957  53.533  1.00  0.00     0.023 C 
HETATM   25  C10 UNL     1      29.021   1.233  53.618  1.00  0.00     0.131 C 
BRANCH  25  26
HETATM   26  O1  UNL     1      29.019   2.574  53.329  1.00  0.00    -0.373 OA
HETATM   27  H12 UNL     1      29.793   3.058  52.923  1.00  0.00     0.216 HD
ENDBRANCH  25  26
ENDBRANCH  23  24
ENDBRANCH  21  22
ENDBRANCH   5  21
TORSDOF 10
ENDMDL
MODEL 4
REMARK VINA RESULT:      -7.2      2.200      4.283
REMARK  10 active torsions:
REMARK  status: ('A' for Active; 'I' for Inactive)
REMARK    1  A    between atoms: C5_5  and  C6_6 
REMARK    2  A    between atoms: C6_6  and  C7_7 
REMARK    3  A    between atoms: C8_8  and  C9_9 
REMARK    4  A    between atoms: C10_10  and  O1_11 
REMARK    5  A    between atoms: N1_12  and  O2_13 
REMARK    6  A    between atoms: O2_13  and  C11_14 
REMARK    7  A    between atoms: C11_14  and  C12_15 
REMARK    8  A    between atoms: C12_15  and  C13_16 
REMARK    9  A    between atoms: C12_15  and  C15_19 
REMARK   10  A    between atoms: C14_17  and  N2_18 
ROOT
HETATM    1  C1  UNL     1      28.037  -0.039  54.934  1.00  0.00     0.045 C 
HETATM    2  C2  UNL     1      27.264   0.722  53.923  1.00  0.00    -0.064 A 
HETATM    3  C3  UNL     1      28.007   1.314  53.000  1.00  0.00     0.006 A 
HETATM    4  C4  UNL     1      27.224   2.061  52.009  1.00  0.00     0.027 A 
HETATM    5  C5  UNL     1      25.907   2.170  51.987  1.00  0.00     0.038 A 
HETATM    6  N1  UNL     1      25.158   1.507  53.008  1.00  0.00    -0.259 N 
HETATM    7  C19 UNL     1      25.805   0.740  54.046  1.00  0.00     0.189 A 
ENDROOT
BRANCH   6   8
HETATM    8  O2  UNL     1      23.818   1.615  52.977  1.00  0.00    -0.277 OA
BRANCH   8   9
HETATM    9  C11 UNL     1      23.162   0.406  52.746  1.00  0.00     0.215 C 
BRANCH   9  10
HETATM   10  C12 UNL     1      21.890   0.465  53.560  1.00  0.00     0.075 C 
BRANCH  10  11
HETATM   11  C13 UNL     1      21.737  -0.846  54.246  1.00  0.00    -0.004 C 
HETATM   12  C14 UNL     1      22.776  -1.010  55.021  1.00  0.00     0.051 C 
BRANCH  12  13
HETATM   13  N2  UNL     1      23.305  -1.954  55.932  1.00  0.00    -0.312 NA
HETATM   14  H18 UNL     1      24.292  -2.150  55.596  1.00  0.00     0.123 HD
HETATM   15  H19 UNL     1      24.291  -2.140  55.585  1.00  0.00     0.123 HD
ENDBRANCH  12  13
ENDBRANCH  10  11
BRANCH  10  16
HETATM   16  C15 UNL     1      20.710   0.784  52.830  1.00  0.00    -0.008 A 
HETATM   17  C16 UNL     1      19.699   0.023  52.332  1.00  0.00     0.016 A 
HETATM   18  C17 UNL     1      18.643   0.555  51.650  1.00  0.00     0.008 A 
HETATM   19  C18 UNL     1      18.698   2.056  51.500  1.00  0.00     0.050 A 
HETATM   20  S1  UNL     1      20.313   2.497  52.389  1.00  0.00    -0.106 SA
ENDBRANCH  10  16
ENDBRANCH   9  10
ENDBRANCH   8   9
ENDBRANCH   6   8
BRANCH   5  21
HETATM   21  C6  UNL     1      25.168   2.951  50.945  1.00  0.00     0.086 C 
BRANCH  21  22
HETATM   22  C7  UNL     1      26.094   3.521  49.964  1.00  0.00    -0.021 C 
HETATM   23  C8  UNL     1      26.243   4.766  49.528  1.00  0.00    -0.002 C 
BRANCH  23  24
HETATM   24  C9  UNL     1      27.247   5.135  48.526  1.00  0.00     0.023 C 
HETATM   25  C10 UNL     1      27.713   6.359  48.566  1.00  0.00     0.131 C 
BRANCH  25  26
HETATM   26  O1  UNL     1      27.015   6.870  49.631  1.00  0.00    -0.373 OA
HETATM   27  H12 UNL     1      26.940   7.845  49.832  1.00  0.00     0.216 HD
ENDBRANCH  25  26
ENDBRANCH  23  24
ENDBRANCH  21  22
ENDBRANCH   5  21
TORSDOF 10
ENDMDL
MODEL 5
REMARK VINA RESULT:      -7.2      2.227      3.327
REMARK  10 active torsions:
REMARK  status: ('A' for Active; 'I' for Inactive)
REMARK    1  A    between atoms: C5_5  and  C6_6 
REMARK    2  A    between atoms: C6_6  and  C7_7 
REMARK    3  A    between atoms: C8_8  and  C9_9 
REMARK    4  A    between atoms: C10_10  and  O1_11 
REMARK    5  A    between atoms: N1_12  and  O2_13 
REMARK    6  A    between atoms: O2_13  and  C11_14 
REMARK    7  A    between atoms: C11_14  and  C12_15 
REMARK    8  A    between atoms: C12_15  and  C13_16 
REMARK    9  A    between atoms: C12_15  and  C15_19 
REMARK   10  A    between atoms: C14_17  and  N2_18 
ROOT
HETATM    1  C1  UNL     1      25.500   6.086  48.699  1.00  0.00     0.045 C 
HETATM    2  C2  UNL     1      25.570   4.858  49.528  1.00  0.00    -0.064 A 
HETATM    3  C3  UNL     1      26.661   4.132  49.338  1.00  0.00     0.006 A 
HETATM    4  C4  UNL     1      26.711   2.923  50.168  1.00  0.00     0.027 A 
HETATM    5  C5  UNL     1      25.791   2.542  51.036  1.00  0.00     0.038 A 
HETATM    6  N1  UNL     1      24.636   3.369  51.201  1.00  0.00    -0.259 N 
HETATM    7  C19 UNL     1      24.459   4.585  50.444  1.00  0.00     0.189 A 
ENDROOT
BRANCH   6   8
HETATM    8  O2  UNL     1      23.705   2.981  52.091  1.00  0.00    -0.277 OA
BRANCH   8   9
HETATM    9  C11 UNL     1      22.443   2.781  51.533  1.00  0.00     0.215 C 
BRANCH   9  10
HETATM   10  C12 UNL     1      22.313   1.289  51.331  1.00  0.00     0.075 C 
BRANCH  10  11
HETATM   11  C13 UNL     1      21.112   1.054  50.484  1.00  0.00    -0.004 C 
HETATM   12  C14 UNL     1      21.287   1.702  49.363  1.00  0.00     0.051 C 
BRANCH  12  13
HETATM   13  N2  UNL     1      20.618   1.941  48.141  1.00  0.00    -0.312 NA
HETATM   14  H18 UNL     1      21.308   1.669  47.382  1.00  0.00     0.123 HD
HETATM   15  H19 UNL     1      21.319   1.665  47.392  1.00  0.00     0.123 HD
ENDBRANCH  12  13
ENDBRANCH  10  11
BRANCH  10  16
HETATM   16  C15 UNL     1      22.240   0.513  52.523  1.00  0.00    -0.008 A 
HETATM   17  C16 UNL     1      23.109  -0.346  53.119  1.00  0.00     0.016 A 
HETATM   18  C17 UNL     1      22.821  -0.992  54.287  1.00  0.00     0.008 A 
HETATM   19  C18 UNL     1      21.460  -0.668  54.853  1.00  0.00     0.050 A 
HETATM   20  S1  UNL     1      20.770   0.556  53.582  1.00  0.00    -0.106 SA
ENDBRANCH  10  16
ENDBRANCH   9  10
ENDBRANCH   8   9
ENDBRANCH   6   8
BRANCH   5  21
HETATM   21  C6  UNL     1      25.903   1.293  51.853  1.00  0.00     0.086 C 
BRANCH  21  22
HETATM   22  C7  UNL     1      27.269   1.113  52.348  1.00  0.00    -0.021 C 
HETATM   23  C8  UNL     1      27.775   0.239  53.210  1.00  0.00    -0.002 C 
BRANCH  23  24
HETATM   24  C9  UNL     1      29.194   0.225  53.577  1.00  0.00     0.023 C 
HETATM   25  C10 UNL     1      29.761  -0.946  53.737  1.00  0.00     0.131 C 
BRANCH  25  26
HETATM   26  O1  UNL     1      28.707  -1.784  53.475  1.00  0.00    -0.373 OA
HETATM   27  H12 UNL     1      28.384  -2.488  54.106  1.00  0.00     0.216 HD
ENDBRANCH  25  26
ENDBRANCH  23  24
ENDBRANCH  21  22
ENDBRANCH   5  21
TORSDOF 10
ENDMDL
MODEL 6
REMARK VINA RESULT:      -7.2      2.814      6.240
REMARK  10 active torsions:
REMARK  status: ('A' for Active; 'I' for Inactive)
REMARK    1  A    between atoms: C5_5  and  C6_6 
REMARK    2  A    between atoms: C6_6  and  C7_7 
REMARK    3  A    between atoms: C8_8  and  C9_9 
REMARK    4  A    between atoms: C10_10  and  O1_11 
REMARK    5  A    between atoms: N1_12  and  O2_13 
REMARK    6  A    between atoms: O2_13  and  C11_14 
REMARK    7  A    between atoms: C11_14  and  C12_15 
REMARK    8  A    between atoms: C12_15  and  C13_16 
REMARK    9  A    between atoms: C12_15  and  C15_19 
REMARK   10  A    between atoms: C14_17  and  N2_18 
ROOT
HETATM    1  C1  UNL     1      27.330   4.689  48.775  1.00  0.00     0.045 C 
HETATM    2  C2  UNL     1      26.307   4.290  49.772  1.00  0.00    -0.064 A 
HETATM    3  C3  UNL     1      25.224   5.051  49.777  1.00  0.00     0.006 A 
HETATM    4  C4  UNL     1      24.224   4.639  50.769  1.00  0.00     0.027 A 
HETATM    5  C5  UNL     1      24.336   3.620  51.602  1.00  0.00     0.038 A 
HETATM    6  N1  UNL     1      25.527   2.831  51.548  1.00  0.00    -0.259 N 
HETATM    7  C19 UNL     1      26.592   3.130  50.620  1.00  0.00     0.189 A 
ENDROOT
BRANCH   6   8
HETATM    8  O2  UNL     1      25.633   1.791  52.393  1.00  0.00    -0.277 OA
BRANCH   8   9
HETATM    9  C11 UNL     1      25.992   0.595  51.770  1.00  0.00     0.215 C 
BRANCH   9  10
HETATM   10  C12 UNL     1      26.304  -0.374  52.886  1.00  0.00     0.075 C 
BRANCH  10  11
HETATM   11  C13 UNL     1      25.604   0.109  54.107  1.00  0.00    -0.004 C 
HETATM   12  C14 UNL     1      25.321  -0.936  54.838  1.00  0.00     0.051 C 
BRANCH  12  13
HETATM   13  N2  UNL     1      24.699  -1.256  56.067  1.00  0.00    -0.312 NA
HETATM   14  H18 UNL     1      24.321  -2.240  55.947  1.00  0.00     0.123 HD
HETATM   15  H19 UNL     1      24.326  -2.241  55.933  1.00  0.00     0.123 HD
ENDBRANCH  12  13
ENDBRANCH  10  11
BRANCH  10  16
HETATM   16  C15 UNL     1      27.688  -0.575  53.153  1.00  0.00    -0.008 A 
HETATM   17  C16 UNL     1      28.481  -1.680  53.128  1.00  0.00     0.016 A 
HETATM   18  C17 UNL     1      29.813  -1.637  53.427  1.00  0.00     0.008 A 
HETATM   19  C18 UNL     1      30.321  -0.262  53.786  1.00  0.00     0.050 A 
HETATM   20  S1  UNL     1      28.761   0.803  53.637  1.00  0.00    -0.106 SA
ENDBRANCH  10  16
ENDBRANCH   9  10
ENDBRANCH   8   9
ENDBRANCH   6   8
BRANCH   5  21
HETATM   21  C6  UNL     1      23.275   3.253  52.593  1.00  0.00     0.086 C 
BRANCH  21  22
HETATM   22  C7  UNL     1      22.775   1.899  52.345  1.00  0.00    -0.021 C 
HETATM   23  C8  UNL     1      22.301   0.980  53.179  1.00  0.00    -0.002 C 
BRANCH  23  24
HETATM   24  C9  UNL     1      21.843  -0.336  52.722  1.00  0.00     0.023 C 
HETATM   25  C10 UNL     1      21.615  -1.243  53.640  1.00  0.00     0.131 C 
BRANCH  25  26
HETATM   26  O1  UNL     1      21.923  -0.544  54.780  1.00  0.00    -0.373 OA
HETATM   27  H12 UNL     1      22.069   0.444  54.806  1.00  0.00     0.216 HD
ENDBRANCH  25  26
ENDBRANCH  23  24
ENDBRANCH  21  22
ENDBRANCH   5  21
TORSDOF 10
ENDMDL
MODEL 7
REMARK VINA RESULT:      -7.1      2.809      6.068
REMARK  10 active torsions:
REMARK  status: ('A' for Active; 'I' for Inactive)
REMARK    1  A    between atoms: C5_5  and  C6_6 
REMARK    2  A    between atoms: C6_6  and  C7_7 
REMARK    3  A    between atoms: C8_8  and  C9_9 
REMARK    4  A    between atoms: C10_10  and  O1_11 
REMARK    5  A    between atoms: N1_12  and  O2_13 
REMARK    6  A    between atoms: O2_13  and  C11_14 
REMARK    7  A    between atoms: C11_14  and  C12_15 
REMARK    8  A    between atoms: C12_15  and  C13_16 
REMARK    9  A    between atoms: C12_15  and  C15_19 
REMARK   10  A    between atoms: C14_17  and  N2_18 
ROOT
HETATM    1  C1  UNL     1      20.584  -0.114  54.174  1.00  0.00     0.045 C 
HETATM    2  C2  UNL     1      21.912   0.143  53.568  1.00  0.00    -0.064 A 
HETATM    3  C3  UNL     1      22.917  -0.472  54.173  1.00  0.00     0.006 A 
HETATM    4  C4  UNL     1      24.222  -0.206  53.558  1.00  0.00     0.027 A 
HETATM    5  C5  UNL     1      24.438   0.561  52.504  1.00  0.00     0.038 A 
HETATM    6  N1  UNL     1      23.314   1.197  51.890  1.00  0.00    -0.259 N 
HETATM    7  C19 UNL     1      21.974   1.023  52.398  1.00  0.00     0.189 A 
ENDROOT
BRANCH   6   8
HETATM    8  O2  UNL     1      23.538   1.972  50.814  1.00  0.00    -0.277 OA
BRANCH   8   9
HETATM    9  C11 UNL     1      23.807   3.304  51.127  1.00  0.00     0.215 C 
BRANCH   9  10
HETATM   10  C12 UNL     1      23.838   4.040  49.808  1.00  0.00     0.075 C 
BRANCH  10  11
HETATM   11  C13 UNL     1      23.284   3.126  48.773  1.00  0.00    -0.004 C 
HETATM   12  C14 UNL     1      22.340   3.771  48.141  1.00  0.00     0.051 C 
BRANCH  12  13
HETATM   13  N2  UNL     1      21.413   3.572  47.092  1.00  0.00    -0.312 NA
HETATM   14  H18 UNL     1      21.243   4.533  46.676  1.00  0.00     0.123 HD
HETATM   15  H19 UNL     1      21.253   4.540  46.686  1.00  0.00     0.123 HD
ENDBRANCH  12  13
ENDBRANCH  10  11
BRANCH  10  16
HETATM   16  C15 UNL     1      25.114   4.528  49.408  1.00  0.00    -0.008 A 
HETATM   17  C16 UNL     1      26.338   3.943  49.315  1.00  0.00     0.016 A 
HETATM   18  C17 UNL     1      27.448   4.618  48.897  1.00  0.00     0.008 A 
HETATM   19  C18 UNL     1      27.195   6.065  48.548  1.00  0.00     0.050 A 
HETATM   20  S1  UNL     1      25.340   6.249  48.884  1.00  0.00    -0.106 SA
ENDBRANCH  10  16
ENDBRANCH   9  10
ENDBRANCH   8   9
ENDBRANCH   6   8
BRANCH   5  21
HETATM   21  C6  UNL     1      25.799   0.793  51.925  1.00  0.00     0.086 C 
BRANCH  21  22
HETATM   22  C7  UNL     1      26.754  -0.199  52.423  1.00  0.00    -0.021 C 
HETATM   23  C8  UNL     1      27.966  -0.055  52.947  1.00  0.00    -0.002 C 
BRANCH  23  24
HETATM   24  C9  UNL     1      28.773  -1.195  53.392  1.00  0.00     0.023 C 
HETATM   25  C10 UNL     1      30.036  -0.968  53.656  1.00  0.00     0.131 C 
BRANCH  25  26
HETATM   26  O1  UNL     1      30.122   0.375  53.389  1.00  0.00    -0.373 OA
HETATM   27  H12 UNL     1      30.239   1.076  54.091  1.00  0.00     0.216 HD
ENDBRANCH  25  26
ENDBRANCH  23  24
ENDBRANCH  21  22
ENDBRANCH   5  21
TORSDOF 10
ENDMDL
MODEL 8
REMARK VINA RESULT:      -7.1      2.723      5.244
REMARK  10 active torsions:
REMARK  status: ('A' for Active; 'I' for Inactive)
REMARK    1  A    between atoms: C5_5  and  C6_6 
REMARK    2  A    between atoms: C6_6  and  C7_7 
REMARK    3  A    between atoms: C8_8  and  C9_9 
REMARK    4  A    between atoms: C10_10  and  O1_11 
REMARK    5  A    between atoms: N1_12  and  O2_13 
REMARK    6  A    between atoms: O2_13  and  C11_14 
REMARK    7  A    between atoms: C11_14  and  C12_15 
REMARK    8  A    between atoms: C12_15  and  C13_16 
REMARK    9  A    between atoms: C12_15  and  C15_19 
REMARK   10  A    between atoms: C14_17  and  N2_18 
ROOT
HETATM    1  C1  UNL     1      20.373  -0.735  53.759  1.00  0.00     0.045 C 
HETATM    2  C2  UNL     1      21.719  -0.188  53.460  1.00  0.00    -0.064 A 
HETATM    3  C3  UNL     1      22.717  -1.013  53.735  1.00  0.00     0.006 A 
HETATM    4  C4  UNL     1      24.039  -0.454  53.431  1.00  0.00     0.027 A 
HETATM    5  C5  UNL     1      24.275   0.746  52.932  1.00  0.00     0.038 A 
HETATM    6  N1  UNL     1      23.157   1.592  52.652  1.00  0.00    -0.259 N 
HETATM    7  C19 UNL     1      21.801   1.166  52.908  1.00  0.00     0.189 A 
ENDROOT
BRANCH   6   8
HETATM    8  O2  UNL     1      23.401   2.811  52.138  1.00  0.00    -0.277 OA
BRANCH   8   9
HETATM    9  C11 UNL     1      22.618   3.118  51.025  1.00  0.00     0.215 C 
BRANCH   9  10
HETATM   10  C12 UNL     1      23.575   3.200  49.858  1.00  0.00     0.075 C 
BRANCH  10  11
HETATM   11  C13 UNL     1      24.640   4.174  50.221  1.00  0.00    -0.004 C 
HETATM   12  C14 UNL     1      25.775   3.700  49.779  1.00  0.00     0.051 C 
BRANCH  12  13
HETATM   13  N2  UNL     1      27.147   4.042  49.745  1.00  0.00    -0.312 NA
HETATM   14  H18 UNL     1      27.442   3.930  48.732  1.00  0.00     0.123 HD
HETATM   15  H19 UNL     1      27.429   3.926  48.727  1.00  0.00     0.123 HD
ENDBRANCH  12  13
ENDBRANCH  10  11
BRANCH  10  16
HETATM   16  C15 UNL     1      22.989   3.548  48.609  1.00  0.00    -0.008 A 
HETATM   17  C16 UNL     1      22.406   2.811  47.626  1.00  0.00     0.016 A 
HETATM   18  C17 UNL     1      21.900   3.369  46.487  1.00  0.00     0.008 A 
HETATM   19  C18 UNL     1      22.044   4.870  46.419  1.00  0.00     0.050 A 
HETATM   20  S1  UNL     1      22.915   5.272  48.053  1.00  0.00    -0.106 SA
ENDBRANCH  10  16
ENDBRANCH   9  10
ENDBRANCH   8   9
ENDBRANCH   6   8
BRANCH   5  21
HETATM   21  C6  UNL     1      25.653   1.258  52.645  1.00  0.00     0.086 C 
BRANCH  21  22
HETATM   22  C7  UNL     1      26.647   0.195  52.802  1.00  0.00    -0.021 C 
HETATM   23  C8  UNL     1      27.889   0.227  53.273  1.00  0.00    -0.002 C 
BRANCH  23  24
HETATM   24  C9  UNL     1      28.734  -0.968  53.348  1.00  0.00     0.023 C 
HETATM   25  C10 UNL     1      30.023  -0.782  53.499  1.00  0.00     0.131 C 
BRANCH  25  26
HETATM   26  O1  UNL     1      30.087   0.588  53.531  1.00  0.00    -0.373 OA
HETATM   27  H12 UNL     1      29.526   1.158  54.130  1.00  0.00     0.216 HD
ENDBRANCH  25  26
ENDBRANCH  23  24
ENDBRANCH  21  22
ENDBRANCH   5  21
TORSDOF 10
ENDMDL
MODEL 9
REMARK VINA RESULT:      -7.0      2.453      3.590
REMARK  10 active torsions:
REMARK  status: ('A' for Active; 'I' for Inactive)
REMARK    1  A    between atoms: C5_5  and  C6_6 
REMARK    2  A    between atoms: C6_6  and  C7_7 
REMARK    3  A    between atoms: C8_8  and  C9_9 
REMARK    4  A    between atoms: C10_10  and  O1_11 
REMARK    5  A    between atoms: N1_12  and  O2_13 
REMARK    6  A    between atoms: O2_13  and  C11_14 
REMARK    7  A    between atoms: C11_14  and  C12_15 
REMARK    8  A    between atoms: C12_15  and  C13_16 
REMARK    9  A    between atoms: C12_15  and  C15_19 
REMARK   10  A    between atoms: C14_17  and  N2_18 
ROOT
HETATM    1  C1  UNL     1      25.433   6.701  48.356  1.00  0.00     0.045 C 
HETATM    2  C2  UNL     1      25.460   5.442  49.139  1.00  0.00    -0.064 A 
HETATM    3  C3  UNL     1      26.634   4.830  49.148  1.00  0.00     0.006 A 
HETATM    4  C4  UNL     1      26.641   3.587  49.928  1.00  0.00     0.027 A 
HETATM    5  C5  UNL     1      25.610   3.077  50.578  1.00  0.00     0.038 A 
HETATM    6  N1  UNL     1      24.367   3.783  50.534  1.00  0.00    -0.259 N 
HETATM    7  C19 UNL     1      24.223   5.018  49.800  1.00  0.00     0.189 A 
ENDROOT
BRANCH   6   8
HETATM    8  O2  UNL     1      23.323   3.264  51.203  1.00  0.00    -0.277 OA
BRANCH   8   9
HETATM    9  C11 UNL     1      22.261   2.886  50.380  1.00  0.00     0.215 C 
BRANCH   9  10
HETATM   10  C12 UNL     1      22.159   1.384  50.504  1.00  0.00     0.075 C 
BRANCH  10  11
HETATM   11  C13 UNL     1      21.121   0.925  49.541  1.00  0.00    -0.004 C 
HETATM   12  C14 UNL     1      20.680   1.978  48.905  1.00  0.00     0.051 C 
BRANCH  12  13
HETATM   13  N2  UNL     1      19.745   2.318  47.900  1.00  0.00    -0.312 NA
HETATM   14  H18 UNL     1      19.752   1.505  47.219  1.00  0.00     0.123 HD
HETATM   15  H19 UNL     1      19.762   1.497  47.227  1.00  0.00     0.123 HD
ENDBRANCH  12  13
ENDBRANCH  10  11
BRANCH  10  16
HETATM   16  C15 UNL     1      21.875   0.894  51.810  1.00  0.00    -0.008 A 
HETATM   17  C16 UNL     1      22.628   0.240  52.734  1.00  0.00     0.016 A 
HETATM   18  C17 UNL     1      22.137  -0.141  53.950  1.00  0.00     0.008 A 
HETATM   19  C18 UNL     1      20.690   0.228  54.174  1.00  0.00     0.050 A 
HETATM   20  S1  UNL     1      20.233   1.095  52.552  1.00  0.00    -0.106 SA
ENDBRANCH  10  16
ENDBRANCH   9  10
ENDBRANCH   8   9
ENDBRANCH   6   8
BRANCH   5  21
HETATM   21  C6  UNL     1      25.683   1.800  51.357  1.00  0.00     0.086 C 
BRANCH  21  22
HETATM   22  C7  UNL     1      26.960   1.693  52.065  1.00  0.00    -0.021 C 
HETATM   23  C8  UNL     1      27.420   0.764  52.895  1.00  0.00    -0.002 C 
BRANCH  23  24
HETATM   24  C9  UNL     1      28.749   0.843  53.508  1.00  0.00     0.023 C 
HETATM   25  C10 UNL     1      28.936   0.177  54.621  1.00  0.00     0.131 C 
BRANCH  25  26
HETATM   26  O1  UNL     1      27.700  -0.390  54.797  1.00  0.00    -0.373 OA
HETATM   27  H12 UNL     1      26.879   0.126  55.041  1.00  0.00     0.216 HD
ENDBRANCH  25  26
ENDBRANCH  23  24
ENDBRANCH  21  22
ENDBRANCH   5  21
TORSDOF 10
ENDMDL
