MODEL 1
REMARK VINA RESULT:      -7.5      0.000      0.000
REMARK  9 active torsions:
REMARK  status: ('A' for Active; 'I' for Inactive)
REMARK    1  A    between atoms: C2_2  and  C3_3 
REMARK    2  A    between atoms: C3_3  and  N1_4 
REMARK    3  A    between atoms: N1_4  and  C4_5 
REMARK    4  A    between atoms: C4_5  and  C5_6 
REMARK    5  A    between atoms: C6_7  and  C7_8 
REMARK    6  A    between atoms: C7_8  and  C8_9 
REMARK    7  A    between atoms: C10_12  and  N2_13 
REMARK    8  A    between atoms: N2_13  and  C11_14 
REMARK    9  A    between atoms: C14_17  and  C15_18 
ROOT
HETATM    1  C8  UNL     1      23.227   2.724  51.245  1.00  0.00     0.129 A 
HETATM    2  S1  UNL     1      24.557   2.399  52.352  1.00  0.00    -0.110 SA
HETATM    3  C9  UNL     1      23.355   1.099  52.558  1.00  0.00     0.085 A 
HETATM    4  C10 UNL     1      23.390  -0.017  53.431  1.00  0.00     0.150 A 
HETATM    5  N3  UNL     1      22.252  -0.760  53.272  1.00  0.00    -0.211 NA
HETATM    6  C18 UNL     1      21.271  -0.455  52.414  1.00  0.00     0.301 A 
HETATM    7  N4  UNL     1      21.844   0.564  52.001  1.00  0.00    -0.401 NA
HETATM    8  C19 UNL     1      22.423   1.558  51.611  1.00  0.00     0.121 A 
ENDROOT
BRANCH   4   9
HETATM    9  N2  UNL     1      24.415  -0.428  54.382  1.00  0.00    -0.340 N 
HETATM   10  H14 UNL     1      24.042  -0.651  55.298  1.00  0.00     0.167 HD
BRANCH   9  11
HETATM   11  C11 UNL     1      25.761  -0.497  54.027  1.00  0.00     0.033 A 
HETATM   12  C12 UNL     1      26.593   0.172  54.956  1.00  0.00     0.030 A 
HETATM   13  C13 UNL     1      27.975   0.205  54.764  1.00  0.00     0.012 A 
HETATM   14  C14 UNL     1      28.454  -0.449  53.621  1.00  0.00    -0.030 A 
HETATM   15  C16 UNL     1      27.704  -1.113  52.685  1.00  0.00     0.012 A 
HETATM   16  C17 UNL     1      26.380  -1.079  52.976  1.00  0.00     0.030 A 
BRANCH  14  17
HETATM   17  C15 UNL     1      29.947  -0.414  53.474  1.00  0.00     0.261 C 
HETATM   18  F1  UNL     1      30.485  -1.482  54.134  1.00  0.00    -0.251 F 
ENDBRANCH  14  17
ENDBRANCH   9  11
ENDBRANCH   4   9
BRANCH   1  19
HETATM   19  C7  UNL     1      23.580   2.729  49.756  1.00  0.00     0.116 C 
BRANCH  19  20
HETATM   20  C6  UNL     1      24.398   3.928  49.481  1.00  0.00    -0.103 C 
HETATM   21  C5  UNL     1      25.065   4.936  49.264  1.00  0.00    -0.087 C 
BRANCH  21  22
HETATM   22  C4  UNL     1      25.836   6.148  49.006  1.00  0.00     0.208 C 
BRANCH  22  23
HETATM   23  N1  UNL     1      27.226   6.058  49.305  1.00  0.00    -0.411 N 
HETATM   24  H8  UNL     1      27.503   6.183  50.283  1.00  0.00     0.154 HD
BRANCH  23  25
HETATM   25  C3  UNL     1      27.909   5.053  48.556  1.00  0.00     0.114 C 
BRANCH  25  26
HETATM   26  C2  UNL     1      29.271   5.575  48.111  1.00  0.00     0.015 C 
HETATM   27  C1  UNL     1      29.026   6.960  47.523  1.00  0.00     0.006 C 
ENDBRANCH  25  26
ENDBRANCH  23  25
ENDBRANCH  22  23
ENDBRANCH  21  22
ENDBRANCH  19  20
ENDBRANCH   1  19
TORSDOF 9
ENDMDL
MODEL 2
REMARK VINA RESULT:      -7.2      1.469      2.322
REMARK  9 active torsions:
REMARK  status: ('A' for Active; 'I' for Inactive)
REMARK    1  A    between atoms: C2_2  and  C3_3 
REMARK    2  A    between atoms: C3_3  and  N1_4 
REMARK    3  A    between atoms: N1_4  and  C4_5 
REMARK    4  A    between atoms: C4_5  and  C5_6 
REMARK    5  A    between atoms: C6_7  and  C7_8 
REMARK    6  A    between atoms: C7_8  and  C8_9 
REMARK    7  A    between atoms: C10_12  and  N2_13 
REMARK    8  A    between atoms: N2_13  and  C11_14 
REMARK    9  A    between atoms: C14_17  and  C15_18 
ROOT
HETATM    1  C8  UNL     1      25.309   3.636  50.903  1.00  0.00     0.129 A 
HETATM    2  S1  UNL     1      26.183   2.296  51.641  1.00  0.00    -0.110 SA
HETATM    3  C9  UNL     1      24.464   2.126  52.080  1.00  0.00     0.085 A 
HETATM    4  C10 UNL     1      23.841   1.129  52.873  1.00  0.00     0.150 A 
HETATM    5  N3  UNL     1      22.501   1.387  52.966  1.00  0.00    -0.211 NA
HETATM    6  C18 UNL     1      21.895   2.430  52.384  1.00  0.00     0.301 A 
HETATM    7  N4  UNL     1      22.946   2.860  51.885  1.00  0.00    -0.401 NA
HETATM    8  C19 UNL     1      23.987   3.263  51.406  1.00  0.00     0.121 A 
ENDROOT
BRANCH   4   9
HETATM    9  N2  UNL     1      24.417  -0.037  53.531  1.00  0.00    -0.340 N 
HETATM   10  H14 UNL     1      23.721  -0.712  53.827  1.00  0.00     0.167 HD
BRANCH   9  11
HETATM   11  C11 UNL     1      25.792  -0.173  53.712  1.00  0.00     0.033 A 
HETATM   12  C12 UNL     1      26.364  -1.081  52.789  1.00  0.00     0.030 A 
HETATM   13  C13 UNL     1      27.735  -1.343  52.819  1.00  0.00     0.012 A 
HETATM   14  C14 UNL     1      28.470  -0.663  53.800  1.00  0.00    -0.030 A 
HETATM   15  C16 UNL     1      27.978   0.225  54.721  1.00  0.00     0.012 A 
HETATM   16  C17 UNL     1      26.639   0.400  54.595  1.00  0.00     0.030 A 
BRANCH  14  17
HETATM   17  C15 UNL     1      29.943  -0.952  53.773  1.00  0.00     0.261 C 
HETATM   18  F1  UNL     1      30.132  -2.304  53.776  1.00  0.00    -0.251 F 
ENDBRANCH  14  17
ENDBRANCH   9  11
ENDBRANCH   4   9
BRANCH   1  19
HETATM   19  C7  UNL     1      25.341   3.695  49.374  1.00  0.00     0.116 C 
BRANCH  19  20
HETATM   20  C6  UNL     1      26.520   4.490  48.969  1.00  0.00    -0.103 C 
HETATM   21  C5  UNL     1      27.511   5.133  48.637  1.00  0.00    -0.087 C 
BRANCH  21  22
HETATM   22  C4  UNL     1      28.704   5.885  48.259  1.00  0.00     0.208 C 
BRANCH  22  23
HETATM   23  N1  UNL     1      28.930   7.078  49.005  1.00  0.00    -0.411 N 
HETATM   24  H8  UNL     1      29.759   7.105  49.604  1.00  0.00     0.154 HD
BRANCH  23  25
HETATM   25  C3  UNL     1      28.600   8.270  48.293  1.00  0.00     0.114 C 
BRANCH  25  26
HETATM   26  C2  UNL     1      28.364   9.412  49.276  1.00  0.00     0.015 C 
HETATM   27  C1  UNL     1      27.183   8.991  50.143  1.00  0.00     0.006 C 
ENDBRANCH  25  26
ENDBRANCH  23  25
ENDBRANCH  22  23
ENDBRANCH  21  22
ENDBRANCH  19  20
ENDBRANCH   1  19
TORSDOF 9
ENDMDL
MODEL 3
REMARK VINA RESULT:      -7.2      4.121      7.685
REMARK  9 active torsions:
REMARK  status: ('A' for Active; 'I' for Inactive)
REMARK    1  A    between atoms: C2_2  and  C3_3 
REMARK    2  A    between atoms: C3_3  and  N1_4 
REMARK    3  A    between atoms: N1_4  and  C4_5 
REMARK    4  A    between atoms: C4_5  and  C5_6 
REMARK    5  A    between atoms: C6_7  and  C7_8 
REMARK    6  A    between atoms: C7_8  and  C8_9 
REMARK    7  A    between atoms: C10_12  and  N2_13 
REMARK    8  A    between atoms: N2_13  and  C11_14 
REMARK    9  A    between atoms: C14_17  and  C15_18 
ROOT
HETATM    1  C8  UNL     1      20.128   1.104  52.392  1.00  0.00     0.129 A 
HETATM    2  S1  UNL     1      21.576   2.038  52.029  1.00  0.00    -0.110 SA
HETATM    3  C9  UNL     1      22.058   0.685  53.085  1.00  0.00     0.085 A 
HETATM    4  C10 UNL     1      23.343   0.358  53.586  1.00  0.00     0.150 A 
HETATM    5  N3  UNL     1      23.261  -0.758  54.372  1.00  0.00    -0.211 NA
HETATM    6  C18 UNL     1      22.123  -1.422  54.614  1.00  0.00     0.301 A 
HETATM    7  N4  UNL     1      21.438  -0.656  53.921  1.00  0.00    -0.401 NA
HETATM    8  C19 UNL     1      20.786   0.106  53.236  1.00  0.00     0.121 A 
ENDROOT
BRANCH   4   9
HETATM    9  N2  UNL     1      24.626   1.014  53.366  1.00  0.00    -0.340 N 
HETATM   10  H14 UNL     1      24.547   2.020  53.260  1.00  0.00     0.167 HD
BRANCH   9  11
HETATM   11  C11 UNL     1      25.819   0.296  53.314  1.00  0.00     0.033 A 
HETATM   12  C12 UNL     1      26.832   0.887  54.106  1.00  0.00     0.030 A 
HETATM   13  C13 UNL     1      28.098   0.304  54.178  1.00  0.00     0.012 A 
HETATM   14  C14 UNL     1      28.279  -0.869  53.431  1.00  0.00    -0.030 A 
HETATM   15  C16 UNL     1      27.342  -1.490  52.646  1.00  0.00     0.012 A 
HETATM   16  C17 UNL     1      26.155  -0.834  52.654  1.00  0.00     0.030 A 
BRANCH  14  17
HETATM   17  C15 UNL     1      29.645  -1.477  53.565  1.00  0.00     0.261 C 
HETATM   18  F1  UNL     1      29.528  -2.838  53.569  1.00  0.00    -0.251 F 
ENDBRANCH  14  17
ENDBRANCH   9  11
ENDBRANCH   4   9
BRANCH   1  19
HETATM   19  C7  UNL     1      19.426   0.462  51.192  1.00  0.00     0.116 C 
BRANCH  19  20
HETATM   20  C6  UNL     1      18.178  -0.168  51.672  1.00  0.00    -0.103 C 
HETATM   21  C5  UNL     1      17.135  -0.672  52.076  1.00  0.00    -0.087 C 
BRANCH  21  22
HETATM   22  C4  UNL     1      15.893  -1.254  52.576  1.00  0.00     0.208 C 
BRANCH  22  23
HETATM   23  N1  UNL     1      15.926  -2.662  52.789  1.00  0.00    -0.411 N 
HETATM   24  H8  UNL     1      15.531  -3.256  52.055  1.00  0.00     0.154 HD
BRANCH  23  25
HETATM   25  C3  UNL     1      17.120  -3.117  53.426  1.00  0.00     0.114 C 
BRANCH  25  26
HETATM   26  C2  UNL     1      17.128  -4.641  53.483  1.00  0.00     0.015 C 
HETATM   27  C1  UNL     1      15.723  -5.060  53.898  1.00  0.00     0.006 C 
ENDBRANCH  25  26
ENDBRANCH  23  25
ENDBRANCH  22  23
ENDBRANCH  21  22
ENDBRANCH  19  20
ENDBRANCH   1  19
TORSDOF 9
ENDMDL
MODEL 4
REMARK VINA RESULT:      -7.1      2.584      5.397
REMARK  9 active torsions:
REMARK  status: ('A' for Active; 'I' for Inactive)
REMARK    1  A    between atoms: C2_2  and  C3_3 
REMARK    2  A    between atoms: C3_3  and  N1_4 
REMARK    3  A    between atoms: N1_4  and  C4_5 
REMARK    4  A    between atoms: C4_5  and  C5_6 
REMARK    5  A    between atoms: C6_7  and  C7_8 
REMARK    6  A    between atoms: C7_8  and  C8_9 
REMARK    7  A    between atoms: C10_12  and  N2_13 
REMARK    8  A    between atoms: N2_13  and  C11_14 
REMARK    9  A    between atoms: C14_17  and  C15_18 
ROOT
HETATM    1  C8  UNL     1      24.566   4.667  49.735  1.00  0.00     0.129 A 
HETATM    2  S1  UNL     1      23.825   4.353  51.302  1.00  0.00    -0.110 SA
HETATM    3  C9  UNL     1      23.030   3.295  50.108  1.00  0.00     0.085 A 
HETATM    4  C10 UNL     1      21.987   2.355  50.304  1.00  0.00     0.150 A 
HETATM    5  N3  UNL     1      21.668   1.766  49.112  1.00  0.00    -0.211 NA
HETATM    6  C18 UNL     1      22.268   2.053  47.950  1.00  0.00     0.301 A 
HETATM    7  N4  UNL     1      23.026   2.892  48.459  1.00  0.00    -0.401 NA
HETATM    8  C19 UNL     1      23.758   3.709  48.980  1.00  0.00     0.121 A 
ENDROOT
BRANCH   4   9
HETATM    9  N2  UNL     1      21.290   1.974  51.527  1.00  0.00    -0.340 N 
HETATM   10  H14 UNL     1      20.375   2.402  51.613  1.00  0.00     0.167 HD
BRANCH   9  11
HETATM   11  C11 UNL     1      21.859   1.105  52.456  1.00  0.00     0.033 A 
HETATM   12  C12 UNL     1      20.940   0.726  53.464  1.00  0.00     0.030 A 
HETATM   13  C13 UNL     1      21.333  -0.144  54.482  1.00  0.00     0.012 A 
HETATM   14  C14 UNL     1      22.660  -0.594  54.429  1.00  0.00    -0.030 A 
HETATM   15  C16 UNL     1      23.597  -0.266  53.484  1.00  0.00     0.012 A 
HETATM   16  C17 UNL     1      23.102   0.582  52.548  1.00  0.00     0.030 A 
BRANCH  14  17
HETATM   17  C15 UNL     1      23.027  -1.552  55.525  1.00  0.00     0.261 C 
HETATM   18  F1  UNL     1      24.299  -1.285  55.943  1.00  0.00    -0.251 F 
ENDBRANCH  14  17
ENDBRANCH   9  11
ENDBRANCH   4   9
BRANCH   1  19
HETATM   19  C7  UNL     1      26.062   4.360  49.629  1.00  0.00     0.116 C 
BRANCH  19  20
HETATM   20  C6  UNL     1      26.342   3.151  50.431  1.00  0.00    -0.103 C 
HETATM   21  C5  UNL     1      26.592   2.144  51.087  1.00  0.00    -0.087 C 
BRANCH  21  22
HETATM   22  C4  UNL     1      26.901   0.936  51.847  1.00  0.00     0.208 C 
BRANCH  22  23
HETATM   23  N1  UNL     1      27.618   1.149  53.060  1.00  0.00    -0.411 N 
HETATM   24  H8  UNL     1      27.518   2.064  53.508  1.00  0.00     0.154 HD
BRANCH  23  25
HETATM   25  C3  UNL     1      27.654   0.004  53.912  1.00  0.00     0.114 C 
BRANCH  25  26
HETATM   26  C2  UNL     1      28.659  -1.009  53.375  1.00  0.00     0.015 C 
HETATM   27  C1  UNL     1      30.034  -0.369  53.527  1.00  0.00     0.006 C 
ENDBRANCH  25  26
ENDBRANCH  23  25
ENDBRANCH  22  23
ENDBRANCH  21  22
ENDBRANCH  19  20
ENDBRANCH   1  19
TORSDOF 9
ENDMDL
MODEL 5
REMARK VINA RESULT:      -7.1      3.349      7.259
REMARK  9 active torsions:
REMARK  status: ('A' for Active; 'I' for Inactive)
REMARK    1  A    between atoms: C2_2  and  C3_3 
REMARK    2  A    between atoms: C3_3  and  N1_4 
REMARK    3  A    between atoms: N1_4  and  C4_5 
REMARK    4  A    between atoms: C4_5  and  C5_6 
REMARK    5  A    between atoms: C6_7  and  C7_8 
REMARK    6  A    between atoms: C7_8  and  C8_9 
REMARK    7  A    between atoms: C10_12  and  N2_13 
REMARK    8  A    between atoms: N2_13  and  C11_14 
REMARK    9  A    between atoms: C14_17  and  C15_18 
ROOT
HETATM    1  C8  UNL     1      23.859   1.194  51.956  1.00  0.00     0.129 A 
HETATM    2  S1  UNL     1      25.045   2.495  51.898  1.00  0.00    -0.110 SA
HETATM    3  C9  UNL     1      23.434   3.240  52.062  1.00  0.00     0.085 A 
HETATM    4  C10 UNL     1      23.090   4.614  52.134  1.00  0.00     0.150 A 
HETATM    5  N3  UNL     1      21.733   4.743  52.245  1.00  0.00    -0.211 NA
HETATM    6  C18 UNL     1      20.882   3.710  52.277  1.00  0.00     0.301 A 
HETATM    7  N4  UNL     1      21.783   2.864  52.180  1.00  0.00    -0.401 NA
HETATM    8  C19 UNL     1      22.683   2.053  52.084  1.00  0.00     0.121 A 
ENDROOT
BRANCH   4   9
HETATM    9  N2  UNL     1      23.946   5.793  52.117  1.00  0.00    -0.340 N 
HETATM   10  H14 UNL     1      24.140   6.159  53.043  1.00  0.00     0.167 HD
BRANCH   9  11
HETATM   11  C11 UNL     1      24.432   6.331  50.927  1.00  0.00     0.033 A 
HETATM   12  C12 UNL     1      23.944   7.638  50.694  1.00  0.00     0.030 A 
HETATM   13  C13 UNL     1      24.326   8.337  49.547  1.00  0.00     0.012 A 
HETATM   14  C14 UNL     1      25.197   7.665  48.678  1.00  0.00    -0.030 A 
HETATM   15  C16 UNL     1      25.705   6.403  48.845  1.00  0.00     0.012 A 
HETATM   16  C17 UNL     1      25.265   5.824  49.991  1.00  0.00     0.030 A 
BRANCH  14  17
HETATM   17  C15 UNL     1      25.606   8.467  47.477  1.00  0.00     0.261 C 
HETATM   18  F1  UNL     1      26.574   7.787  46.795  1.00  0.00    -0.251 F 
ENDBRANCH  14  17
ENDBRANCH   9  11
ENDBRANCH   4   9
BRANCH   1  19
HETATM   19  C7  UNL     1      23.987   0.222  53.133  1.00  0.00     0.116 C 
BRANCH  19  20
HETATM   20  C6  UNL     1      25.348  -0.352  53.110  1.00  0.00    -0.103 C 
HETATM   21  C5  UNL     1      26.483  -0.817  53.074  1.00  0.00    -0.087 C 
BRANCH  21  22
HETATM   22  C4  UNL     1      27.833  -1.369  53.005  1.00  0.00     0.208 C 
BRANCH  22  23
HETATM   23  N1  UNL     1      28.718  -0.937  54.034  1.00  0.00    -0.411 N 
HETATM   24  H8  UNL     1      29.137  -1.660  54.626  1.00  0.00     0.154 HD
BRANCH  23  25
HETATM   25  C3  UNL     1      29.552   0.157  53.651  1.00  0.00     0.114 C 
BRANCH  25  26
HETATM   26  C2  UNL     1      29.213   1.384  54.490  1.00  0.00     0.015 C 
HETATM   27  C1  UNL     1      28.522   2.366  53.551  1.00  0.00     0.006 C 
ENDBRANCH  25  26
ENDBRANCH  23  25
ENDBRANCH  22  23
ENDBRANCH  21  22
ENDBRANCH  19  20
ENDBRANCH   1  19
TORSDOF 9
ENDMDL
MODEL 6
REMARK VINA RESULT:      -7.0      2.860      6.523
REMARK  9 active torsions:
REMARK  status: ('A' for Active; 'I' for Inactive)
REMARK    1  A    between atoms: C2_2  and  C3_3 
REMARK    2  A    between atoms: C3_3  and  N1_4 
REMARK    3  A    between atoms: N1_4  and  C4_5 
REMARK    4  A    between atoms: C4_5  and  C5_6 
REMARK    5  A    between atoms: C6_7  and  C7_8 
REMARK    6  A    between atoms: C7_8  and  C8_9 
REMARK    7  A    between atoms: C10_12  and  N2_13 
REMARK    8  A    between atoms: N2_13  and  C11_14 
REMARK    9  A    between atoms: C14_17  and  C15_18 
ROOT
HETATM    1  C8  UNL     1      22.153   1.617  51.482  1.00  0.00     0.129 A 
HETATM    2  S1  UNL     1      22.641   2.003  49.834  1.00  0.00    -0.110 SA
HETATM    3  C9  UNL     1      22.751   3.501  50.795  1.00  0.00     0.085 A 
HETATM    4  C10 UNL     1      23.144   4.799  50.381  1.00  0.00     0.150 A 
HETATM    5  N3  UNL     1      23.073   5.661  51.441  1.00  0.00    -0.211 NA
HETATM    6  C18 UNL     1      22.687   5.305  52.672  1.00  0.00     0.301 A 
HETATM    7  N4  UNL     1      22.502   4.120  52.355  1.00  0.00    -0.401 NA
HETATM    8  C19 UNL     1      22.328   2.965  52.023  1.00  0.00     0.121 A 
ENDROOT
BRANCH   4   9
HETATM    9  N2  UNL     1      23.586   5.269  49.074  1.00  0.00    -0.340 N 
HETATM   10  H14 UNL     1      22.831   5.341  48.400  1.00  0.00     0.167 HD
BRANCH   9  11
HETATM   11  C11 UNL     1      24.920   5.580  48.818  1.00  0.00     0.033 A 
HETATM   12  C12 UNL     1      25.788   4.509  49.137  1.00  0.00     0.030 A 
HETATM   13  C13 UNL     1      27.164   4.639  48.944  1.00  0.00     0.012 A 
HETATM   14  C14 UNL     1      27.601   5.868  48.430  1.00  0.00    -0.030 A 
HETATM   15  C16 UNL     1      26.814   6.942  48.101  1.00  0.00     0.012 A 
HETATM   16  C17 UNL     1      25.499   6.700  48.331  1.00  0.00     0.030 A 
BRANCH  14  17
HETATM   17  C15 UNL     1      29.083   5.950  48.209  1.00  0.00     0.261 C 
HETATM   18  F1  UNL     1      29.548   4.718  47.844  1.00  0.00    -0.251 F 
ENDBRANCH  14  17
ENDBRANCH   9  11
ENDBRANCH   4   9
BRANCH   1  19
HETATM   19  C7  UNL     1      23.022   0.591  52.215  1.00  0.00     0.116 C 
BRANCH  19  20
HETATM   20  C6  UNL     1      24.424   1.055  52.162  1.00  0.00    -0.103 C 
HETATM   21  C5  UNL     1      25.594   1.426  52.133  1.00  0.00    -0.087 C 
BRANCH  21  22
HETATM   22  C4  UNL     1      26.987   1.862  52.123  1.00  0.00     0.208 C 
BRANCH  22  23
HETATM   23  N1  UNL     1      27.428   2.510  53.313  1.00  0.00    -0.411 N 
HETATM   24  H8  UNL     1      26.758   2.579  54.084  1.00  0.00     0.154 HD
BRANCH  23  25
HETATM   25  C3  UNL     1      28.785   2.224  53.651  1.00  0.00     0.114 C 
BRANCH  25  26
HETATM   26  C2  UNL     1      29.022   0.719  53.618  1.00  0.00     0.015 C 
HETATM   27  C1  UNL     1      28.405   0.161  54.895  1.00  0.00     0.006 C 
ENDBRANCH  25  26
ENDBRANCH  23  25
ENDBRANCH  22  23
ENDBRANCH  21  22
ENDBRANCH  19  20
ENDBRANCH   1  19
TORSDOF 9
ENDMDL
MODEL 7
REMARK VINA RESULT:      -6.8      1.959      2.747
REMARK  9 active torsions:
REMARK  status: ('A' for Active; 'I' for Inactive)
REMARK    1  A    between atoms: C2_2  and  C3_3 
REMARK    2  A    between atoms: C3_3  and  N1_4 
REMARK    3  A    between atoms: N1_4  and  C4_5 
REMARK    4  A    between atoms: C4_5  and  C5_6 
REMARK    5  A    between atoms: C6_7  and  C7_8 
REMARK    6  A    between atoms: C7_8  and  C8_9 
REMARK    7  A    between atoms: C10_12  and  N2_13 
REMARK    8  A    between atoms: N2_13  and  C11_14 
REMARK    9  A    between atoms: C14_17  and  C15_18 
ROOT
HETATM    1  C8  UNL     1      25.605   4.346  50.575  1.00  0.00     0.129 A 
HETATM    2  S1  UNL     1      26.227   2.768  51.051  1.00  0.00    -0.110 SA
HETATM    3  C9  UNL     1      24.508   2.834  51.520  1.00  0.00     0.085 A 
HETATM    4  C10 UNL     1      23.721   1.846  52.162  1.00  0.00     0.150 A 
HETATM    5  N3  UNL     1      22.450   2.318  52.344  1.00  0.00    -0.211 NA
HETATM    6  C18 UNL     1      22.040   3.534  51.963  1.00  0.00     0.301 A 
HETATM    7  N4  UNL     1      23.148   3.848  51.503  1.00  0.00    -0.401 NA
HETATM    8  C19 UNL     1      24.241   4.134  51.059  1.00  0.00     0.121 A 
ENDROOT
BRANCH   4   9
HETATM    9  N2  UNL     1      24.080   0.503  52.598  1.00  0.00    -0.340 N 
HETATM   10  H14 UNL     1      23.287  -0.127  52.648  1.00  0.00     0.167 HD
BRANCH   9  11
HETATM   11  C11 UNL     1      25.396   0.157  52.902  1.00  0.00     0.033 A 
HETATM   12  C12 UNL     1      25.850   0.779  54.090  1.00  0.00     0.030 A 
HETATM   13  C13 UNL     1      27.146   0.548  54.553  1.00  0.00     0.012 A 
HETATM   14  C14 UNL     1      27.932  -0.315  53.777  1.00  0.00    -0.030 A 
HETATM   15  C16 UNL     1      27.554  -0.948  52.621  1.00  0.00     0.012 A 
HETATM   16  C17 UNL     1      26.278  -0.648  52.270  1.00  0.00     0.030 A 
BRANCH  14  17
HETATM   17  C15 UNL     1      29.306  -0.559  54.331  1.00  0.00     0.261 C 
HETATM   18  F1  UNL     1      30.005  -1.345  53.460  1.00  0.00    -0.251 F 
ENDBRANCH  14  17
ENDBRANCH   9  11
ENDBRANCH   4   9
BRANCH   1  19
HETATM   19  C7  UNL     1      25.637   4.654  49.076  1.00  0.00     0.116 C 
BRANCH  19  20
HETATM   20  C6  UNL     1      27.010   5.070  48.721  1.00  0.00    -0.103 C 
HETATM   21  C5  UNL     1      28.158   5.404  48.442  1.00  0.00    -0.087 C 
BRANCH  21  22
HETATM   22  C4  UNL     1      29.530   5.798  48.134  1.00  0.00     0.208 C 
BRANCH  22  23
HETATM   23  N1  UNL     1      30.313   6.194  49.256  1.00  0.00    -0.411 N 
HETATM   24  H8  UNL     1      30.566   5.466  49.931  1.00  0.00     0.154 HD
BRANCH  23  25
HETATM   25  C3  UNL     1      31.308   7.170  48.945  1.00  0.00     0.114 C 
BRANCH  25  26
HETATM   26  C2  UNL     1      32.638   6.481  48.663  1.00  0.00     0.015 C 
HETATM   27  C1  UNL     1      33.668   7.593  48.498  1.00  0.00     0.006 C 
ENDBRANCH  25  26
ENDBRANCH  23  25
ENDBRANCH  22  23
ENDBRANCH  21  22
ENDBRANCH  19  20
ENDBRANCH   1  19
TORSDOF 9
ENDMDL
MODEL 8
REMARK VINA RESULT:      -6.8      4.767      8.111
REMARK  9 active torsions:
REMARK  status: ('A' for Active; 'I' for Inactive)
REMARK    1  A    between atoms: C2_2  and  C3_3 
REMARK    2  A    between atoms: C3_3  and  N1_4 
REMARK    3  A    between atoms: N1_4  and  C4_5 
REMARK    4  A    between atoms: C4_5  and  C5_6 
REMARK    5  A    between atoms: C6_7  and  C7_8 
REMARK    6  A    between atoms: C7_8  and  C8_9 
REMARK    7  A    between atoms: C10_12  and  N2_13 
REMARK    8  A    between atoms: N2_13  and  C11_14 
REMARK    9  A    between atoms: C14_17  and  C15_18 
ROOT
HETATM    1  C8  UNL     1      22.282   0.808  51.392  1.00  0.00     0.129 A 
HETATM    2  S1  UNL     1      20.539   1.035  51.294  1.00  0.00    -0.110 SA
HETATM    3  C9  UNL     1      20.861  -0.090  52.639  1.00  0.00     0.085 A 
HETATM    4  C10 UNL     1      19.941  -0.727  53.509  1.00  0.00     0.150 A 
HETATM    5  N3  UNL     1      20.619  -1.520  54.394  1.00  0.00    -0.211 NA
HETATM    6  C18 UNL     1      21.950  -1.655  54.412  1.00  0.00     0.301 A 
HETATM    7  N4  UNL     1      22.120  -0.880  53.459  1.00  0.00    -0.401 NA
HETATM    8  C19 UNL     1      22.262  -0.117  52.525  1.00  0.00     0.121 A 
ENDROOT
BRANCH   4   9
HETATM    9  N2  UNL     1      18.488  -0.629  53.566  1.00  0.00    -0.340 N 
HETATM   10  H14 UNL     1      18.159   0.309  53.769  1.00  0.00     0.167 HD
BRANCH   9  11
HETATM   11  C11 UNL     1      17.669  -1.736  53.354  1.00  0.00     0.033 A 
HETATM   12  C12 UNL     1      16.527  -1.414  52.583  1.00  0.00     0.030 A 
HETATM   13  C13 UNL     1      15.591  -2.401  52.267  1.00  0.00     0.012 A 
HETATM   14  C14 UNL     1      15.861  -3.685  52.758  1.00  0.00    -0.030 A 
HETATM   15  C16 UNL     1      16.945  -4.062  53.509  1.00  0.00     0.012 A 
HETATM   16  C17 UNL     1      17.783  -3.023  53.751  1.00  0.00     0.030 A 
BRANCH  14  17
HETATM   17  C15 UNL     1      14.845  -4.718  52.367  1.00  0.00     0.261 C 
HETATM   18  F1  UNL     1      15.205  -5.267  51.169  1.00  0.00    -0.251 F 
ENDBRANCH  14  17
ENDBRANCH   9  11
ENDBRANCH   4   9
BRANCH   1  19
HETATM   19  C7  UNL     1      23.106   2.063  51.696  1.00  0.00     0.116 C 
BRANCH  19  20
HETATM   20  C6  UNL     1      24.494   1.644  51.980  1.00  0.00    -0.103 C 
HETATM   21  C5  UNL     1      25.644   1.278  52.205  1.00  0.00    -0.087 C 
BRANCH  21  22
HETATM   22  C4  UNL     1      27.004   0.819  52.474  1.00  0.00     0.208 C 
BRANCH  22  23
HETATM   23  N1  UNL     1      27.873   1.796  53.040  1.00  0.00    -0.411 N 
HETATM   24  H8  UNL     1      27.437   2.604  53.493  1.00  0.00     0.154 HD
BRANCH  23  25
HETATM   25  C3  UNL     1      29.028   1.240  53.668  1.00  0.00     0.114 C 
BRANCH  25  26
HETATM   26  C2  UNL     1      28.736  -0.187  54.120  1.00  0.00     0.015 C 
HETATM   27  C1  UNL     1      29.892  -1.040  53.614  1.00  0.00     0.006 C 
ENDBRANCH  25  26
ENDBRANCH  23  25
ENDBRANCH  22  23
ENDBRANCH  21  22
ENDBRANCH  19  20
ENDBRANCH   1  19
TORSDOF 9
ENDMDL
MODEL 9
REMARK VINA RESULT:      -6.8      4.293      7.741
REMARK  9 active torsions:
REMARK  status: ('A' for Active; 'I' for Inactive)
REMARK    1  A    between atoms: C2_2  and  C3_3 
REMARK    2  A    between atoms: C3_3  and  N1_4 
REMARK    3  A    between atoms: N1_4  and  C4_5 
REMARK    4  A    between atoms: C4_5  and  C5_6 
REMARK    5  A    between atoms: C6_7  and  C7_8 
REMARK    6  A    between atoms: C7_8  and  C8_9 
REMARK    7  A    between atoms: C10_12  and  N2_13 
REMARK    8  A    between atoms: N2_13  and  C11_14 
REMARK    9  A    between atoms: C14_17  and  C15_18 
ROOT
HETATM    1  C8  UNL     1      19.646   0.704  52.745  1.00  0.00     0.129 A 
HETATM    2  S1  UNL     1      20.960   1.664  52.071  1.00  0.00    -0.110 SA
HETATM    3  C9  UNL     1      21.682   0.443  53.151  1.00  0.00     0.085 A 
HETATM    4  C10 UNL     1      23.048   0.225  53.464  1.00  0.00     0.150 A 
HETATM    5  N3  UNL     1      23.157  -0.812  54.348  1.00  0.00    -0.211 NA
HETATM    6  C18 UNL     1      22.115  -1.500  54.829  1.00  0.00     0.301 A 
HETATM    7  N4  UNL     1      21.283  -0.837  54.191  1.00  0.00    -0.401 NA
HETATM    8  C19 UNL     1      20.487  -0.176  53.556  1.00  0.00     0.121 A 
ENDROOT
BRANCH   4   9
HETATM    9  N2  UNL     1      24.238   0.914  52.981  1.00  0.00    -0.340 N 
HETATM   10  H14 UNL     1      24.035   1.817  52.566  1.00  0.00     0.167 HD
BRANCH   9  11
HETATM   11  C11 UNL     1      25.509   0.356  53.100  1.00  0.00     0.033 A 
HETATM   12  C12 UNL     1      26.336   1.095  53.980  1.00  0.00     0.030 A 
HETATM   13  C13 UNL     1      27.647   0.682  54.224  1.00  0.00     0.012 A 
HETATM   14  C14 UNL     1      28.064  -0.476  53.553  1.00  0.00    -0.030 A 
HETATM   15  C16 UNL     1      27.315  -1.235  52.691  1.00  0.00     0.012 A 
HETATM   16  C17 UNL     1      26.062  -0.739  52.532  1.00  0.00     0.030 A 
BRANCH  14  17
HETATM   17  C15 UNL     1      29.468  -0.898  53.872  1.00  0.00     0.261 C 
HETATM   18  F1  UNL     1      30.338   0.013  53.343  1.00  0.00    -0.251 F 
ENDBRANCH  14  17
ENDBRANCH   9  11
ENDBRANCH   4   9
BRANCH   1  19
HETATM   19  C7  UNL     1      18.805  -0.083  51.736  1.00  0.00     0.116 C 
BRANCH  19  20
HETATM   20  C6  UNL     1      17.415   0.416  51.808  1.00  0.00    -0.103 C 
HETATM   21  C5  UNL     1      16.265   0.840  51.849  1.00  0.00    -0.087 C 
BRANCH  21  22
HETATM   22  C4  UNL     1      14.903   1.367  51.888  1.00  0.00     0.208 C 
BRANCH  22  23
HETATM   23  N1  UNL     1      14.481   1.864  53.155  1.00  0.00    -0.411 N 
HETATM   24  H8  UNL     1      15.123   2.489  53.650  1.00  0.00     0.154 HD
BRANCH  23  25
HETATM   25  C3  UNL     1      13.090   2.177  53.213  1.00  0.00     0.114 C 
BRANCH  25  26
HETATM   26  C2  UNL     1      12.881   3.661  52.932  1.00  0.00     0.015 C 
HETATM   27  C1  UNL     1      12.376   4.274  54.233  1.00  0.00     0.006 C 
ENDBRANCH  25  26
ENDBRANCH  23  25
ENDBRANCH  22  23
ENDBRANCH  21  22
ENDBRANCH  19  20
ENDBRANCH   1  19
TORSDOF 9
ENDMDL
