MODEL 1
REMARK VINA RESULT:      -7.8      0.000      0.000
REMARK  9 active torsions:
REMARK  status: ('A' for Active; 'I' for Inactive)
REMARK    1  A    between atoms: C4_4  and  C5_5 
REMARK    2  A    between atoms: C6_7  and  N1_8 
REMARK    3  A    between atoms: N1_8  and  C7_9 
REMARK    4  A    between atoms: C7_9  and  C8_10 
REMARK    5  A    between atoms: C11_13  and  C12_14 
REMARK    6  A    between atoms: C12_14  and  O1_15 
REMARK    7  A    between atoms: C14_17  and  O2_18 
REMARK    8  A    between atoms: O2_18  and  O3_19 
REMARK    9  A    between atoms: O3_19  and  O4_20 
ROOT
HETATM    1  C8  UNL     1      26.915   1.129  52.890  1.00  0.00    -0.004 A 
HETATM    2  C9  UNL     1      26.567  -0.132  52.425  1.00  0.00     0.012 A 
HETATM    3  C10 UNL     1      27.340  -1.259  52.590  1.00  0.00     0.010 A 
HETATM    4  C11 UNL     1      28.563  -1.163  53.268  1.00  0.00    -0.032 A 
HETATM    5  C13 UNL     1      28.930   0.091  53.742  1.00  0.00     0.050 A 
HETATM    6  C14 UNL     1      28.136   1.234  53.568  1.00  0.00     0.118 A 
ENDROOT
BRANCH   1   7
HETATM    7  C7  UNL     1      26.208   2.398  52.818  1.00  0.00     0.156 C 
BRANCH   7   8
HETATM    8  N1  UNL     1      24.957   2.518  53.454  1.00  0.00    -0.405 N 
HETATM    9  H7  UNL     1      24.794   1.828  54.228  1.00  0.00     0.154 HD
BRANCH   8  10
HETATM   10  C6  UNL     1      23.807   2.804  52.682  1.00  0.00     0.149 A 
HETATM   11  C4  UNL     1      23.075   1.540  52.287  1.00  0.00    -0.022 A 
HETATM   12  C3  UNL     1      22.643   1.336  51.027  1.00  0.00     0.038 A 
HETATM   13  C2  UNL     1      22.877   2.363  50.015  1.00  0.00     0.047 A 
HETATM   14  C1  UNL     1      22.441   2.133  48.792  1.00  0.00     0.045 C 
HETATM   15  N2  UNL     1      23.553   3.569  50.349  1.00  0.00    -0.264 NA
HETATM   16  C15 UNL     1      23.949   3.724  51.550  1.00  0.00     0.119 A 
BRANCH  11  17
HETATM   17  C5  UNL     1      22.841   0.500  53.330  1.00  0.00     0.259 C 
HETATM   18  F1  UNL     1      23.393  -0.714  52.997  1.00  0.00    -0.251 F 
ENDBRANCH  11  17
ENDBRANCH   8  10
ENDBRANCH   7   8
ENDBRANCH   1   7
BRANCH   6  19
HETATM   19  O2  UNL     1      28.793   2.298  54.157  1.00  0.00    -0.167 OA
BRANCH  19  20
HETATM   20  O3  UNL     1      29.558   2.271  55.234  1.00  0.00    -0.064 OA
BRANCH  20  21
HETATM   21  O4  UNL     1      30.681   2.881  54.986  1.00  0.00    -0.220 OA
HETATM   22  H16 UNL     1      31.452   2.266  55.098  1.00  0.00     0.256 HD
ENDBRANCH  20  21
ENDBRANCH  19  20
ENDBRANCH   6  19
BRANCH   4  23
HETATM   23  C12 UNL     1      29.313  -2.407  53.398  1.00  0.00     0.203 C 
BRANCH  23  24
HETATM   24  O1  UNL     1      28.520  -3.550  53.279  1.00  0.00    -0.396 OA
HETATM   25  H14 UNL     1      27.582  -3.229  53.205  1.00  0.00     0.209 HD
ENDBRANCH  23  24
ENDBRANCH   4  23
TORSDOF 9
ENDMDL
MODEL 2
REMARK VINA RESULT:      -7.6      2.268      2.969
REMARK  9 active torsions:
REMARK  status: ('A' for Active; 'I' for Inactive)
REMARK    1  A    between atoms: C4_4  and  C5_5 
REMARK    2  A    between atoms: C6_7  and  N1_8 
REMARK    3  A    between atoms: N1_8  and  C7_9 
REMARK    4  A    between atoms: C7_9  and  C8_10 
REMARK    5  A    between atoms: C11_13  and  C12_14 
REMARK    6  A    between atoms: C12_14  and  O1_15 
REMARK    7  A    between atoms: C14_17  and  O2_18 
REMARK    8  A    between atoms: O2_18  and  O3_19 
REMARK    9  A    between atoms: O3_19  and  O4_20 
ROOT
HETATM    1  C8  UNL     1      26.088   0.646  53.092  1.00  0.00    -0.004 A 
HETATM    2  C9  UNL     1      25.950  -0.635  52.576  1.00  0.00     0.012 A 
HETATM    3  C10 UNL     1      26.936  -1.596  52.614  1.00  0.00     0.010 A 
HETATM    4  C11 UNL     1      28.170  -1.294  53.204  1.00  0.00    -0.032 A 
HETATM    5  C13 UNL     1      28.329  -0.016  53.726  1.00  0.00     0.050 A 
HETATM    6  C14 UNL     1      27.320   0.956  53.683  1.00  0.00     0.118 A 
ENDROOT
BRANCH   1   7
HETATM    7  C7  UNL     1      25.149   1.755  53.151  1.00  0.00     0.156 C 
BRANCH   7   8
HETATM    8  N1  UNL     1      25.494   2.974  52.536  1.00  0.00    -0.405 N 
HETATM    9  H7  UNL     1      25.933   3.678  53.179  1.00  0.00     0.154 HD
BRANCH   8  10
HETATM   10  C6  UNL     1      24.630   3.536  51.567  1.00  0.00     0.149 A 
HETATM   11  C4  UNL     1      25.404   4.190  50.444  1.00  0.00    -0.022 A 
HETATM   12  C3  UNL     1      25.085   5.415  49.982  1.00  0.00     0.038 A 
HETATM   13  C2  UNL     1      23.956   6.131  50.573  1.00  0.00     0.047 A 
HETATM   14  C1  UNL     1      23.669   7.327  50.098  1.00  0.00     0.045 C 
HETATM   15  N2  UNL     1      23.198   5.546  51.624  1.00  0.00    -0.264 NA
HETATM   16  C15 UNL     1      23.533   4.388  52.036  1.00  0.00     0.119 A 
BRANCH  11  17
HETATM   17  C5  UNL     1      26.553   3.449  49.848  1.00  0.00     0.259 C 
HETATM   18  F1  UNL     1      27.071   4.080  48.742  1.00  0.00    -0.251 F 
ENDBRANCH  11  17
ENDBRANCH   8  10
ENDBRANCH   7   8
ENDBRANCH   1   7
BRANCH   6  19
HETATM   19  O2  UNL     1      27.809   2.100  54.287  1.00  0.00    -0.167 OA
BRANCH  19  20
HETATM   20  O3  UNL     1      28.934   2.733  54.010  1.00  0.00    -0.064 OA
BRANCH  20  21
HETATM   21  O4  UNL     1      29.816   2.481  54.934  1.00  0.00    -0.220 OA
HETATM   22  H16 UNL     1      30.620   2.043  54.549  1.00  0.00     0.256 HD
ENDBRANCH  20  21
ENDBRANCH  19  20
ENDBRANCH   6  19
BRANCH   4  23
HETATM   23  C12 UNL     1      29.152  -2.373  53.200  1.00  0.00     0.203 C 
BRANCH  23  24
HETATM   24  O1  UNL     1      28.588  -3.640  53.353  1.00  0.00    -0.396 OA
HETATM   25  H14 UNL     1      28.909  -4.180  52.582  1.00  0.00     0.209 HD
ENDBRANCH  23  24
ENDBRANCH   4  23
TORSDOF 9
ENDMDL
MODEL 3
REMARK VINA RESULT:      -7.4      4.206      7.094
REMARK  9 active torsions:
REMARK  status: ('A' for Active; 'I' for Inactive)
REMARK    1  A    between atoms: C4_4  and  C5_5 
REMARK    2  A    between atoms: C6_7  and  N1_8 
REMARK    3  A    between atoms: N1_8  and  C7_9 
REMARK    4  A    between atoms: C7_9  and  C8_10 
REMARK    5  A    between atoms: C11_13  and  C12_14 
REMARK    6  A    between atoms: C12_14  and  O1_15 
REMARK    7  A    between atoms: C14_17  and  O2_18 
REMARK    8  A    between atoms: O2_18  and  O3_19 
REMARK    9  A    between atoms: O3_19  and  O4_20 
ROOT
HETATM    1  C8  UNL     1      21.833   0.857  52.765  1.00  0.00    -0.004 A 
HETATM    2  C9  UNL     1      20.839   1.100  51.826  1.00  0.00     0.012 A 
HETATM    3  C10 UNL     1      19.601   0.498  51.835  1.00  0.00     0.010 A 
HETATM    4  C11 UNL     1      19.291  -0.424  52.843  1.00  0.00    -0.032 A 
HETATM    5  C13 UNL     1      20.272  -0.682  53.793  1.00  0.00     0.050 A 
HETATM    6  C14 UNL     1      21.530  -0.065  53.776  1.00  0.00     0.118 A 
ENDROOT
BRANCH   1   7
HETATM    7  C7  UNL     1      23.166   1.420  52.907  1.00  0.00     0.156 C 
BRANCH   7   8
HETATM    8  N1  UNL     1      24.280   0.560  52.837  1.00  0.00    -0.405 N 
HETATM    9  H7  UNL     1      24.040  -0.462  52.818  1.00  0.00     0.154 HD
BRANCH   8  10
HETATM   10  C6  UNL     1      25.445   0.866  53.578  1.00  0.00     0.149 A 
HETATM   11  C4  UNL     1      26.565   1.344  52.680  1.00  0.00    -0.022 A 
HETATM   12  C3  UNL     1      27.822   0.874  52.803  1.00  0.00     0.038 A 
HETATM   13  C2  UNL     1      28.118  -0.117  53.835  1.00  0.00     0.047 A 
HETATM   14  C1  UNL     1      29.357  -0.556  53.929  1.00  0.00     0.045 C 
HETATM   15  N2  UNL     1      27.094  -0.584  54.705  1.00  0.00    -0.264 NA
HETATM   16  C15 UNL     1      25.918  -0.119  54.555  1.00  0.00     0.119 A 
BRANCH  11  17
HETATM   17  C5  UNL     1      26.250   2.357  51.632  1.00  0.00     0.259 C 
HETATM   18  F1  UNL     1      26.798   2.041  50.412  1.00  0.00    -0.251 F 
ENDBRANCH  11  17
ENDBRANCH   8  10
ENDBRANCH   7   8
ENDBRANCH   1   7
BRANCH   6  19
HETATM   19  O2  UNL     1      22.251  -0.544  54.854  1.00  0.00    -0.167 OA
BRANCH  19  20
HETATM   20  O3  UNL     1      22.221  -1.764  55.359  1.00  0.00    -0.064 OA
BRANCH  20  21
HETATM   21  O4  UNL     1      23.287  -1.965  56.079  1.00  0.00    -0.220 OA
HETATM   22  H16 UNL     1      23.644  -1.108  56.431  1.00  0.00     0.256 HD
ENDBRANCH  20  21
ENDBRANCH  19  20
ENDBRANCH   6  19
BRANCH   4  23
HETATM   23  C12 UNL     1      17.956  -1.010  52.773  1.00  0.00     0.203 C 
BRANCH  23  24
HETATM   24  O1  UNL     1      17.423  -1.329  54.023  1.00  0.00    -0.396 OA
HETATM   25  H14 UNL     1      17.533  -2.312  54.128  1.00  0.00     0.209 HD
ENDBRANCH  23  24
ENDBRANCH   4  23
TORSDOF 9
ENDMDL
MODEL 4
REMARK VINA RESULT:      -7.3      1.794      2.120
REMARK  9 active torsions:
REMARK  status: ('A' for Active; 'I' for Inactive)
REMARK    1  A    between atoms: C4_4  and  C5_5 
REMARK    2  A    between atoms: C6_7  and  N1_8 
REMARK    3  A    between atoms: N1_8  and  C7_9 
REMARK    4  A    between atoms: C7_9  and  C8_10 
REMARK    5  A    between atoms: C11_13  and  C12_14 
REMARK    6  A    between atoms: C12_14  and  O1_15 
REMARK    7  A    between atoms: C14_17  and  O2_18 
REMARK    8  A    between atoms: O2_18  and  O3_19 
REMARK    9  A    between atoms: O3_19  and  O4_20 
ROOT
HETATM    1  C8  UNL     1      25.927   0.470  53.043  1.00  0.00    -0.004 A 
HETATM    2  C9  UNL     1      25.895  -0.828  52.552  1.00  0.00     0.012 A 
HETATM    3  C10 UNL     1      26.955  -1.705  52.613  1.00  0.00     0.010 A 
HETATM    4  C11 UNL     1      28.157  -1.293  53.204  1.00  0.00    -0.032 A 
HETATM    5  C13 UNL     1      28.209   0.003  53.701  1.00  0.00     0.050 A 
HETATM    6  C14 UNL     1      27.126   0.890  53.634  1.00  0.00     0.118 A 
ENDROOT
BRANCH   1   7
HETATM    7  C7  UNL     1      24.901   1.500  53.076  1.00  0.00     0.156 C 
BRANCH   7   8
HETATM    8  N1  UNL     1      23.792   1.385  52.215  1.00  0.00    -0.405 N 
HETATM    9  H7  UNL     1      23.928   1.820  51.269  1.00  0.00     0.154 HD
BRANCH   8  10
HETATM   10  C6  UNL     1      22.485   1.533  52.737  1.00  0.00     0.149 A 
HETATM   11  C4  UNL     1      21.721   0.228  52.702  1.00  0.00    -0.022 A 
HETATM   12  C3  UNL     1      20.453   0.161  52.250  1.00  0.00     0.038 A 
HETATM   13  C2  UNL     1      19.791   1.379  51.791  1.00  0.00     0.047 A 
HETATM   14  C1  UNL     1      18.550   1.279  51.357  1.00  0.00     0.045 C 
HETATM   15  N2  UNL     1      20.472   2.627  51.817  1.00  0.00    -0.264 NA
HETATM   16  C15 UNL     1      21.671   2.650  52.246  1.00  0.00     0.119 A 
BRANCH  11  17
HETATM   17  C5  UNL     1      22.408  -1.009  53.175  1.00  0.00     0.259 C 
HETATM   18  F1  UNL     1      22.645  -0.994  54.529  1.00  0.00    -0.251 F 
ENDBRANCH  11  17
ENDBRANCH   8  10
ENDBRANCH   7   8
ENDBRANCH   1   7
BRANCH   6  19
HETATM   19  O2  UNL     1      27.517   2.081  54.217  1.00  0.00    -0.167 OA
BRANCH  19  20
HETATM   20  O3  UNL     1      28.688   2.681  54.106  1.00  0.00    -0.064 OA
BRANCH  20  21
HETATM   21  O4  UNL     1      28.872   3.051  52.871  1.00  0.00    -0.220 OA
HETATM   22  H16 UNL     1      28.950   2.264  52.271  1.00  0.00     0.256 HD
ENDBRANCH  20  21
ENDBRANCH  19  20
ENDBRANCH   6  19
BRANCH   4  23
HETATM   23  C12 UNL     1      29.223  -2.289  53.226  1.00  0.00     0.203 C 
BRANCH  23  24
HETATM   24  O1  UNL     1      28.769  -3.585  53.474  1.00  0.00    -0.396 OA
HETATM   25  H14 UNL     1      29.411  -4.194  53.020  1.00  0.00     0.209 HD
ENDBRANCH  23  24
ENDBRANCH   4  23
TORSDOF 9
ENDMDL
MODEL 5
REMARK VINA RESULT:      -7.1      3.985      6.813
REMARK  9 active torsions:
REMARK  status: ('A' for Active; 'I' for Inactive)
REMARK    1  A    between atoms: C4_4  and  C5_5 
REMARK    2  A    between atoms: C6_7  and  N1_8 
REMARK    3  A    between atoms: N1_8  and  C7_9 
REMARK    4  A    between atoms: C7_9  and  C8_10 
REMARK    5  A    between atoms: C11_13  and  C12_14 
REMARK    6  A    between atoms: C12_14  and  O1_15 
REMARK    7  A    between atoms: C14_17  and  O2_18 
REMARK    8  A    between atoms: O2_18  and  O3_19 
REMARK    9  A    between atoms: O3_19  and  O4_20 
ROOT
HETATM    1  C8  UNL     1      22.877  -0.543  53.390  1.00  0.00    -0.004 A 
HETATM    2  C9  UNL     1      22.157  -1.358  54.253  1.00  0.00     0.012 A 
HETATM    3  C10 UNL     1      20.786  -1.482  54.239  1.00  0.00     0.010 A 
HETATM    4  C11 UNL     1      20.038  -0.754  53.305  1.00  0.00    -0.032 A 
HETATM    5  C13 UNL     1      20.739   0.068  52.431  1.00  0.00     0.050 A 
HETATM    6  C14 UNL     1      22.135   0.189  52.453  1.00  0.00     0.118 A 
ENDROOT
BRANCH   1   7
HETATM    7  C7  UNL     1      24.308  -0.320  53.262  1.00  0.00     0.156 C 
BRANCH   7   8
HETATM    8  N1  UNL     1      24.807   0.991  53.386  1.00  0.00    -0.405 N 
HETATM    9  H7  UNL     1      24.580   1.621  52.578  1.00  0.00     0.154 HD
BRANCH   8  10
HETATM   10  C6  UNL     1      26.093   1.199  53.938  1.00  0.00     0.149 A 
HETATM   11  C4  UNL     1      27.125   1.457  52.861  1.00  0.00    -0.022 A 
HETATM   12  C3  UNL     1      28.321   0.837  52.863  1.00  0.00     0.038 A 
HETATM   13  C2  UNL     1      28.639  -0.102  53.935  1.00  0.00     0.047 A 
HETATM   14  C1  UNL     1      29.819  -0.691  53.909  1.00  0.00     0.045 C 
HETATM   15  N2  UNL     1      27.700  -0.365  54.971  1.00  0.00    -0.264 NA
HETATM   16  C15 UNL     1      26.578   0.238  54.933  1.00  0.00     0.119 A 
BRANCH  11  17
HETATM   17  C5  UNL     1      26.789   2.419  51.773  1.00  0.00     0.259 C 
HETATM   18  F1  UNL     1      26.746   1.822  50.535  1.00  0.00    -0.251 F 
ENDBRANCH  11  17
ENDBRANCH   8  10
ENDBRANCH   7   8
ENDBRANCH   1   7
BRANCH   6  19
HETATM   19  O2  UNL     1      22.498   1.078  51.459  1.00  0.00    -0.167 OA
BRANCH  19  20
HETATM   20  O3  UNL     1      22.454   2.397  51.509  1.00  0.00    -0.064 OA
BRANCH  20  21
HETATM   21  O4  UNL     1      23.615   2.886  51.181  1.00  0.00    -0.220 OA
HETATM   22  H16 UNL     1      23.800   3.727  51.676  1.00  0.00     0.256 HD
ENDBRANCH  20  21
ENDBRANCH  19  20
ENDBRANCH   6  19
BRANCH   4  23
HETATM   23  C12 UNL     1      18.593  -0.950  53.362  1.00  0.00     0.203 C 
BRANCH  23  24
HETATM   24  O1  UNL     1      18.216  -2.114  54.033  1.00  0.00    -0.396 OA
HETATM   25  H14 UNL     1      18.628  -2.059  54.936  1.00  0.00     0.209 HD
ENDBRANCH  23  24
ENDBRANCH   4  23
TORSDOF 9
ENDMDL
MODEL 6
REMARK VINA RESULT:      -6.9      2.159      2.665
REMARK  9 active torsions:
REMARK  status: ('A' for Active; 'I' for Inactive)
REMARK    1  A    between atoms: C4_4  and  C5_5 
REMARK    2  A    between atoms: C6_7  and  N1_8 
REMARK    3  A    between atoms: N1_8  and  C7_9 
REMARK    4  A    between atoms: C7_9  and  C8_10 
REMARK    5  A    between atoms: C11_13  and  C12_14 
REMARK    6  A    between atoms: C12_14  and  O1_15 
REMARK    7  A    between atoms: C14_17  and  O2_18 
REMARK    8  A    between atoms: O2_18  and  O3_19 
REMARK    9  A    between atoms: O3_19  and  O4_20 
ROOT
HETATM    1  C8  UNL     1      26.047   0.776  53.203  1.00  0.00    -0.004 A 
HETATM    2  C9  UNL     1      25.858  -0.509  52.714  1.00  0.00     0.012 A 
HETATM    3  C10 UNL     1      26.834  -1.479  52.685  1.00  0.00     0.010 A 
HETATM    4  C11 UNL     1      28.113  -1.183  53.174  1.00  0.00    -0.032 A 
HETATM    5  C13 UNL     1      28.324   0.098  53.669  1.00  0.00     0.050 A 
HETATM    6  C14 UNL     1      27.324   1.080  53.693  1.00  0.00     0.118 A 
ENDROOT
BRANCH   1   7
HETATM    7  C7  UNL     1      25.125   1.894  53.323  1.00  0.00     0.156 C 
BRANCH   7   8
HETATM    8  N1  UNL     1      25.089   2.861  52.299  1.00  0.00    -0.405 N 
HETATM    9  H7  UNL     1      25.476   3.797  52.571  1.00  0.00     0.154 HD
BRANCH   8  10
HETATM   10  C6  UNL     1      23.967   2.925  51.440  1.00  0.00     0.149 A 
HETATM   11  C4  UNL     1      23.389   4.322  51.385  1.00  0.00    -0.022 A 
HETATM   12  C3  UNL     1      22.064   4.546  51.490  1.00  0.00     0.038 A 
HETATM   13  C2  UNL     1      21.157   3.412  51.651  1.00  0.00     0.047 A 
HETATM   14  C1  UNL     1      19.867   3.664  51.749  1.00  0.00     0.045 C 
HETATM   15  N2  UNL     1      21.661   2.083  51.697  1.00  0.00    -0.264 NA
HETATM   16  C15 UNL     1      22.920   1.912  51.599  1.00  0.00     0.119 A 
BRANCH  11  17
HETATM   17  C5  UNL     1      24.325   5.472  51.219  1.00  0.00     0.259 C 
HETATM   18  F1  UNL     1      23.729   6.680  51.493  1.00  0.00    -0.251 F 
ENDBRANCH  11  17
ENDBRANCH   8  10
ENDBRANCH   7   8
ENDBRANCH   1   7
BRANCH   6  19
HETATM   19  O2  UNL     1      27.868   2.225  54.245  1.00  0.00    -0.167 OA
BRANCH  19  20
HETATM   20  O3  UNL     1      29.054   2.749  53.994  1.00  0.00    -0.064 OA
BRANCH  20  21
HETATM   21  O4  UNL     1      29.862   2.492  54.982  1.00  0.00    -0.220 OA
HETATM   22  H16 UNL     1      29.569   2.954  55.811  1.00  0.00     0.256 HD
ENDBRANCH  20  21
ENDBRANCH  19  20
ENDBRANCH   6  19
BRANCH   4  23
HETATM   23  C12 UNL     1      29.083  -2.271  53.106  1.00  0.00     0.203 C 
BRANCH  23  24
HETATM   24  O1  UNL     1      28.540  -3.520  53.409  1.00  0.00    -0.396 OA
HETATM   25  H14 UNL     1      28.075  -3.415  54.282  1.00  0.00     0.209 HD
ENDBRANCH  23  24
ENDBRANCH   4  23
TORSDOF 9
ENDMDL
MODEL 7
REMARK VINA RESULT:      -6.9      3.892      6.531
REMARK  9 active torsions:
REMARK  status: ('A' for Active; 'I' for Inactive)
REMARK    1  A    between atoms: C4_4  and  C5_5 
REMARK    2  A    between atoms: C6_7  and  N1_8 
REMARK    3  A    between atoms: N1_8  and  C7_9 
REMARK    4  A    between atoms: C7_9  and  C8_10 
REMARK    5  A    between atoms: C11_13  and  C12_14 
REMARK    6  A    between atoms: C12_14  and  O1_15 
REMARK    7  A    between atoms: C14_17  and  O2_18 
REMARK    8  A    between atoms: O2_18  and  O3_19 
REMARK    9  A    between atoms: O3_19  and  O4_20 
ROOT
HETATM    1  C8  UNL     1      23.058   0.095  53.399  1.00  0.00    -0.004 A 
HETATM    2  C9  UNL     1      22.478  -0.888  54.190  1.00  0.00     0.012 A 
HETATM    3  C10 UNL     1      21.138  -1.203  54.177  1.00  0.00     0.010 A 
HETATM    4  C11 UNL     1      20.275  -0.506  53.321  1.00  0.00    -0.032 A 
HETATM    5  C13 UNL     1      20.835   0.482  52.521  1.00  0.00     0.050 A 
HETATM    6  C14 UNL     1      22.201   0.797  52.541  1.00  0.00     0.118 A 
ENDROOT
BRANCH   1   7
HETATM    7  C7  UNL     1      24.441   0.527  53.279  1.00  0.00     0.156 C 
BRANCH   7   8
HETATM    8  N1  UNL     1      25.084   0.417  52.031  1.00  0.00    -0.405 N 
HETATM    9  H7  UNL     1      24.717  -0.353  51.419  1.00  0.00     0.154 HD
BRANCH   8  10
HETATM   10  C6  UNL     1      26.483   0.604  51.948  1.00  0.00     0.149 A 
HETATM   11  C4  UNL     1      27.226  -0.337  52.871  1.00  0.00    -0.022 A 
HETATM   12  C3  UNL     1      28.224   0.093  53.668  1.00  0.00     0.038 A 
HETATM   13  C2  UNL     1      28.609   1.502  53.637  1.00  0.00     0.047 A 
HETATM   14  C1  UNL     1      29.589   1.890  54.428  1.00  0.00     0.045 C 
HETATM   15  N2  UNL     1      27.941   2.416  52.776  1.00  0.00    -0.264 NA
HETATM   16  C15 UNL     1      27.000   1.973  52.040  1.00  0.00     0.119 A 
BRANCH  11  17
HETATM   17  C5  UNL     1      26.824  -1.773  52.892  1.00  0.00     0.259 C 
HETATM   18  F1  UNL     1      26.697  -2.304  51.630  1.00  0.00    -0.251 F 
ENDBRANCH  11  17
ENDBRANCH   8  10
ENDBRANCH   7   8
ENDBRANCH   1   7
BRANCH   6  19
HETATM   19  O2  UNL     1      22.414   1.815  51.630  1.00  0.00    -0.167 OA
BRANCH  19  20
HETATM   20  O3  UNL     1      22.881   1.704  50.400  1.00  0.00    -0.064 OA
BRANCH  20  21
HETATM   21  O4  UNL     1      23.855   2.550  50.225  1.00  0.00    -0.220 OA
HETATM   22  H16 UNL     1      24.449   2.261  49.483  1.00  0.00     0.256 HD
ENDBRANCH  20  21
ENDBRANCH  19  20
ENDBRANCH   6  19
BRANCH   4  23
HETATM   23  C12 UNL     1      18.874  -0.908  53.373  1.00  0.00     0.203 C 
BRANCH  23  24
HETATM   24  O1  UNL     1      18.662  -2.098  54.071  1.00  0.00    -0.396 OA
HETATM   25  H14 UNL     1      17.677  -2.238  54.087  1.00  0.00     0.209 HD
ENDBRANCH  23  24
ENDBRANCH   4  23
TORSDOF 9
ENDMDL
MODEL 8
REMARK VINA RESULT:      -6.9      2.941      3.969
REMARK  9 active torsions:
REMARK  status: ('A' for Active; 'I' for Inactive)
REMARK    1  A    between atoms: C4_4  and  C5_5 
REMARK    2  A    between atoms: C6_7  and  N1_8 
REMARK    3  A    between atoms: N1_8  and  C7_9 
REMARK    4  A    between atoms: C7_9  and  C8_10 
REMARK    5  A    between atoms: C11_13  and  C12_14 
REMARK    6  A    between atoms: C12_14  and  O1_15 
REMARK    7  A    between atoms: C14_17  and  O2_18 
REMARK    8  A    between atoms: O2_18  and  O3_19 
REMARK    9  A    between atoms: O3_19  and  O4_20 
ROOT
HETATM    1  C8  UNL     1      25.284   0.401  52.996  1.00  0.00    -0.004 A 
HETATM    2  C9  UNL     1      26.141   1.303  52.381  1.00  0.00     0.012 A 
HETATM    3  C10 UNL     1      27.441   1.528  52.774  1.00  0.00     0.010 A 
HETATM    4  C11 UNL     1      27.965   0.816  53.862  1.00  0.00    -0.032 A 
HETATM    5  C13 UNL     1      27.123  -0.093  54.492  1.00  0.00     0.050 A 
HETATM    6  C14 UNL     1      25.800  -0.315  54.085  1.00  0.00     0.118 A 
ENDROOT
BRANCH   1   7
HETATM    7  C7  UNL     1      23.910   0.035  52.693  1.00  0.00     0.156 C 
BRANCH   7   8
HETATM    8  N1  UNL     1      22.938   0.136  53.707  1.00  0.00    -0.405 N 
HETATM    9  H7  UNL     1      22.863  -0.710  54.324  1.00  0.00     0.154 HD
BRANCH   8  10
HETATM   10  C6  UNL     1      21.698   0.757  53.426  1.00  0.00     0.149 A 
HETATM   11  C4  UNL     1      20.611  -0.262  53.168  1.00  0.00    -0.022 A 
HETATM   12  C3  UNL     1      19.766  -0.148  52.124  1.00  0.00     0.038 A 
HETATM   13  C2  UNL     1      19.893   0.994  51.222  1.00  0.00     0.047 A 
HETATM   14  C1  UNL     1      19.050   1.077  50.212  1.00  0.00     0.045 C 
HETATM   15  N2  UNL     1      20.896   1.979  51.437  1.00  0.00    -0.264 NA
HETATM   16  C15 UNL     1      21.679   1.834  52.432  1.00  0.00     0.119 A 
BRANCH  11  17
HETATM   17  C5  UNL     1      20.490  -1.422  54.097  1.00  0.00     0.259 C 
HETATM   18  F1  UNL     1      19.319  -2.119  53.921  1.00  0.00    -0.251 F 
ENDBRANCH  11  17
ENDBRANCH   8  10
ENDBRANCH   7   8
ENDBRANCH   1   7
BRANCH   6  19
HETATM   19  O2  UNL     1      25.256  -1.273  54.920  1.00  0.00    -0.167 OA
BRANCH  19  20
HETATM   20  O3  UNL     1      24.581  -1.072  56.037  1.00  0.00    -0.064 OA
BRANCH  20  21
HETATM   21  O4  UNL     1      23.455  -1.724  55.989  1.00  0.00    -0.220 OA
HETATM   22  H16 UNL     1      22.687  -1.101  55.895  1.00  0.00     0.256 HD
ENDBRANCH  20  21
ENDBRANCH  19  20
ENDBRANCH   6  19
BRANCH   4  23
HETATM   23  C12 UNL     1      29.350   1.118  54.206  1.00  0.00     0.203 C 
BRANCH  23  24
HETATM   24  O1  UNL     1      29.559   2.453  54.555  1.00  0.00    -0.396 OA
HETATM   25  H14 UNL     1      28.855   2.975  54.084  1.00  0.00     0.209 HD
ENDBRANCH  23  24
ENDBRANCH   4  23
TORSDOF 9
ENDMDL
MODEL 9
REMARK VINA RESULT:      -6.9      3.686      6.453
REMARK  9 active torsions:
REMARK  status: ('A' for Active; 'I' for Inactive)
REMARK    1  A    between atoms: C4_4  and  C5_5 
REMARK    2  A    between atoms: C6_7  and  N1_8 
REMARK    3  A    between atoms: N1_8  and  C7_9 
REMARK    4  A    between atoms: C7_9  and  C8_10 
REMARK    5  A    between atoms: C11_13  and  C12_14 
REMARK    6  A    between atoms: C12_14  and  O1_15 
REMARK    7  A    between atoms: C14_17  and  O2_18 
REMARK    8  A    between atoms: O2_18  and  O3_19 
REMARK    9  A    between atoms: O3_19  and  O4_20 
ROOT
HETATM    1  C8  UNL     1      25.489   2.644  50.873  1.00  0.00    -0.004 A 
HETATM    2  C9  UNL     1      26.592   2.821  50.048  1.00  0.00     0.012 A 
HETATM    3  C10 UNL     1      26.866   3.980  49.358  1.00  0.00     0.010 A 
HETATM    4  C11 UNL     1      25.997   5.073  49.475  1.00  0.00    -0.032 A 
HETATM    5  C13 UNL     1      24.886   4.917  50.296  1.00  0.00     0.050 A 
HETATM    6  C14 UNL     1      24.615   3.733  50.994  1.00  0.00     0.118 A 
ENDROOT
BRANCH   1   7
HETATM    7  C7  UNL     1      25.075   1.507  51.678  1.00  0.00     0.156 C 
BRANCH   7   8
HETATM    8  N1  UNL     1      25.126   1.611  53.082  1.00  0.00    -0.405 N 
HETATM    9  H7  UNL     1      25.080   2.593  53.448  1.00  0.00     0.154 HD
BRANCH   8  10
HETATM   10  C6  UNL     1      25.989   0.761  53.814  1.00  0.00     0.149 A 
HETATM   11  C4  UNL     1      27.438   1.161  53.643  1.00  0.00    -0.022 A 
HETATM   12  C3  UNL     1      28.398   0.252  53.384  1.00  0.00     0.038 A 
HETATM   13  C2  UNL     1      28.037  -1.159  53.273  1.00  0.00     0.047 A 
HETATM   14  C1  UNL     1      29.000  -2.023  53.020  1.00  0.00     0.045 C 
HETATM   15  N2  UNL     1      26.687  -1.576  53.436  1.00  0.00    -0.264 NA
HETATM   16  C15 UNL     1      25.807  -0.687  53.677  1.00  0.00     0.119 A 
BRANCH  11  17
HETATM   17  C5  UNL     1      27.794   2.605  53.761  1.00  0.00     0.259 C 
HETATM   18  F1  UNL     1      29.150   2.820  53.695  1.00  0.00    -0.251 F 
ENDBRANCH  11  17
ENDBRANCH   8  10
ENDBRANCH   7   8
ENDBRANCH   1   7
BRANCH   6  19
HETATM   19  O2  UNL     1      23.446   3.921  51.708  1.00  0.00    -0.167 OA
BRANCH  19  20
HETATM   20  O3  UNL     1      23.288   4.623  52.815  1.00  0.00    -0.064 OA
BRANCH  20  21
HETATM   21  O4  UNL     1      24.285   4.398  53.620  1.00  0.00    -0.220 OA
HETATM   22  H16 UNL     1      24.553   5.227  54.096  1.00  0.00     0.256 HD
ENDBRANCH  20  21
ENDBRANCH  19  20
ENDBRANCH   6  19
BRANCH   4  23
HETATM   23  C12 UNL     1      26.368   6.259  48.710  1.00  0.00     0.203 C 
BRANCH  23  24
HETATM   24  O1  UNL     1      27.424   6.976  49.273  1.00  0.00    -0.396 OA
HETATM   25  H14 UNL     1      28.041   7.195  48.524  1.00  0.00     0.209 HD
ENDBRANCH  23  24
ENDBRANCH   4  23
TORSDOF 9
ENDMDL
