MODEL 1
REMARK VINA RESULT:      -8.4      0.000      0.000
REMARK  5 active torsions:
REMARK  status: ('A' for Active; 'I' for Inactive)
REMARK    1  A    between atoms: C4_5  and  N2_6 
REMARK    2  A    between atoms: N2_6  and  C5_7 
REMARK    3  A    between atoms: C12_14  and  O1_15 
REMARK    4  A    between atoms: O1_15  and  C13_16 
REMARK    5  A    between atoms: C13_16  and  C14_17 
ROOT
HETATM    1  N1  UNL     1      25.240  -1.312  55.912  1.00  0.00    -0.191 NA
HETATM    2  C1  UNL     1      24.428  -0.981  55.157  1.00  0.00     0.102 C 
HETATM    3  C2  UNL     1      23.416  -0.560  54.202  1.00  0.00     0.080 A 
HETATM    4  C3  UNL     1      22.143  -1.079  54.454  1.00  0.00     0.055 A 
HETATM    5  C4  UNL     1      21.125  -0.735  53.597  1.00  0.00     0.034 A 
HETATM    6  C10 UNL     1      21.319   0.092  52.513  1.00  0.00     0.032 A 
HETATM    7  C11 UNL     1      22.588   0.566  52.321  1.00  0.00     0.040 A 
HETATM    8  C12 UNL     1      23.679   0.288  53.114  1.00  0.00     0.090 A 
ENDROOT
BRANCH   8   9
HETATM    9  O1  UNL     1      24.971   0.649  53.087  1.00  0.00    -0.345 OA
BRANCH   9  10
HETATM   10  C13 UNL     1      25.999   0.479  52.193  1.00  0.00     0.214 C 
BRANCH  10  11
HETATM   11  C14 UNL     1      27.024  -0.528  52.547  1.00  0.00    -0.034 A 
HETATM   12  C15 UNL     1      28.209   0.013  53.069  1.00  0.00     0.009 A 
HETATM   13  C16 UNL     1      29.299  -0.712  53.474  1.00  0.00     0.001 A 
HETATM   14  C17 UNL     1      29.247  -2.086  53.370  1.00  0.00     0.000 A 
HETATM   15  C18 UNL     1      28.096  -2.668  52.859  1.00  0.00     0.001 A 
HETATM   16  C19 UNL     1      27.032  -1.900  52.466  1.00  0.00     0.009 A 
ENDBRANCH  10  11
ENDBRANCH   9  10
ENDBRANCH   8   9
BRANCH   5  17
HETATM   17  N2  UNL     1      19.839  -1.274  53.880  1.00  0.00    -0.356 N 
HETATM   18  H2  UNL     1      19.771  -1.809  54.774  1.00  0.00     0.166 HD
BRANCH  17  19
HETATM   19  C5  UNL     1      18.608  -1.238  53.196  1.00  0.00     0.028 A 
HETATM   20  C6  UNL     1      17.575  -2.005  53.505  1.00  0.00     0.006 A 
HETATM   21  C7  UNL     1      16.450  -1.711  52.590  1.00  0.00     0.056 A 
HETATM   22  C8  UNL     1      16.983  -0.653  51.696  1.00  0.00    -0.021 A 
HETATM   23  C9  UNL     1      18.213  -0.398  52.057  1.00  0.00     0.025 A 
ENDBRANCH  17  19
ENDBRANCH   5  17
TORSDOF 5
ENDMDL
MODEL 2
REMARK VINA RESULT:      -8.3      1.486      8.219
REMARK  5 active torsions:
REMARK  status: ('A' for Active; 'I' for Inactive)
REMARK    1  A    between atoms: C4_5  and  N2_6 
REMARK    2  A    between atoms: N2_6  and  C5_7 
REMARK    3  A    between atoms: C12_14  and  O1_15 
REMARK    4  A    between atoms: O1_15  and  C13_16 
REMARK    5  A    between atoms: C13_16  and  C14_17 
ROOT
HETATM    1  N1  UNL     1      21.608  -1.962  54.877  1.00  0.00    -0.191 NA
HETATM    2  C1  UNL     1      22.246  -1.235  54.242  1.00  0.00     0.102 C 
HETATM    3  C2  UNL     1      23.038  -0.318  53.438  1.00  0.00     0.080 A 
HETATM    4  C3  UNL     1      24.346  -0.141  53.898  1.00  0.00     0.055 A 
HETATM    5  C4  UNL     1      25.165   0.713  53.199  1.00  0.00     0.034 A 
HETATM    6  C10 UNL     1      24.742   1.390  52.077  1.00  0.00     0.032 A 
HETATM    7  C11 UNL     1      23.450   1.173  51.678  1.00  0.00     0.040 A 
HETATM    8  C12 UNL     1      22.546   0.342  52.300  1.00  0.00     0.090 A 
ENDROOT
BRANCH   8   9
HETATM    9  O1  UNL     1      21.268   0.008  52.066  1.00  0.00    -0.345 OA
BRANCH   9  10
HETATM   10  C13 UNL     1      20.175   0.674  51.568  1.00  0.00     0.214 C 
BRANCH  10  11
HETATM   11  C14 UNL     1      18.862   0.012  51.740  1.00  0.00    -0.034 A 
HETATM   12  C15 UNL     1      18.754  -0.760  52.907  1.00  0.00     0.009 A 
HETATM   13  C16 UNL     1      17.641  -1.462  53.291  1.00  0.00     0.001 A 
HETATM   14  C17 UNL     1      16.528  -1.419  52.480  1.00  0.00     0.000 A 
HETATM   15  C18 UNL     1      16.587  -0.669  51.314  1.00  0.00     0.001 A 
HETATM   16  C19 UNL     1      17.722   0.016  50.972  1.00  0.00     0.009 A 
ENDBRANCH  10  11
ENDBRANCH   9  10
ENDBRANCH   8   9
BRANCH   5  17
HETATM   17  N2  UNL     1      26.492   0.872  53.687  1.00  0.00    -0.356 N 
HETATM   18  H2  UNL     1      26.661   1.746  54.232  1.00  0.00     0.166 HD
BRANCH  17  19
HETATM   19  C5  UNL     1      27.654   0.082  53.589  1.00  0.00     0.028 A 
HETATM   20  C6  UNL     1      27.671  -1.136  53.074  1.00  0.00     0.006 A 
HETATM   21  C7  UNL     1      29.048  -1.676  53.126  1.00  0.00     0.056 A 
HETATM   22  C8  UNL     1      29.836  -0.586  53.752  1.00  0.00    -0.021 A 
HETATM   23  C9  UNL     1      29.024   0.407  54.008  1.00  0.00     0.025 A 
ENDBRANCH  17  19
ENDBRANCH   5  17
TORSDOF 5
ENDMDL
MODEL 3
REMARK VINA RESULT:      -8.3      1.683      2.565
REMARK  5 active torsions:
REMARK  status: ('A' for Active; 'I' for Inactive)
REMARK    1  A    between atoms: C4_5  and  N2_6 
REMARK    2  A    between atoms: N2_6  and  C5_7 
REMARK    3  A    between atoms: C12_14  and  O1_15 
REMARK    4  A    between atoms: O1_15  and  C13_16 
REMARK    5  A    between atoms: C13_16  and  C14_17 
ROOT
HETATM    1  N1  UNL     1      23.560   1.897  50.882  1.00  0.00    -0.191 NA
HETATM    2  C1  UNL     1      23.090   1.223  51.696  1.00  0.00     0.102 C 
HETATM    3  C2  UNL     1      22.510   0.374  52.725  1.00  0.00     0.080 A 
HETATM    4  C3  UNL     1      21.114   0.323  52.703  1.00  0.00     0.055 A 
HETATM    5  C4  UNL     1      20.481  -0.453  53.643  1.00  0.00     0.034 A 
HETATM    6  C10 UNL     1      21.171  -1.172  54.594  1.00  0.00     0.032 A 
HETATM    7  C11 UNL     1      22.537  -1.080  54.563  1.00  0.00     0.040 A 
HETATM    8  C12 UNL     1      23.273  -0.335  53.668  1.00  0.00     0.090 A 
ENDROOT
BRANCH   8   9
HETATM    9  O1  UNL     1      24.584  -0.124  53.483  1.00  0.00    -0.345 OA
BRANCH   9  10
HETATM   10  C13 UNL     1      25.633  -0.900  53.053  1.00  0.00     0.214 C 
BRANCH  10  11
HETATM   11  C14 UNL     1      26.993  -0.384  53.328  1.00  0.00    -0.034 A 
HETATM   12  C15 UNL     1      28.013  -1.333  53.164  1.00  0.00     0.009 A 
HETATM   13  C16 UNL     1      29.351  -1.098  53.354  1.00  0.00     0.001 A 
HETATM   14  C17 UNL     1      29.746   0.166  53.735  1.00  0.00     0.000 A 
HETATM   15  C18 UNL     1      28.772   1.139  53.910  1.00  0.00     0.001 A 
HETATM   16  C19 UNL     1      27.447   0.856  53.709  1.00  0.00     0.009 A 
ENDBRANCH  10  11
ENDBRANCH   9  10
ENDBRANCH   8   9
BRANCH   5  17
HETATM   17  N2  UNL     1      19.060  -0.489  53.595  1.00  0.00    -0.356 N 
HETATM   18  H2  UNL     1      18.589   0.433  53.729  1.00  0.00     0.166 HD
BRANCH  17  19
HETATM   19  C5  UNL     1      18.129  -1.528  53.398  1.00  0.00     0.028 A 
HETATM   20  C6  UNL     1      17.028  -1.399  52.676  1.00  0.00     0.006 A 
HETATM   21  C7  UNL     1      16.282  -2.676  52.678  1.00  0.00     0.056 A 
HETATM   22  C8  UNL     1      17.116  -3.576  53.514  1.00  0.00    -0.021 A 
HETATM   23  C9  UNL     1      18.164  -2.903  53.914  1.00  0.00     0.025 A 
ENDBRANCH  17  19
ENDBRANCH   5  17
TORSDOF 5
ENDMDL
MODEL 4
REMARK VINA RESULT:      -8.3      1.555      2.389
REMARK  5 active torsions:
REMARK  status: ('A' for Active; 'I' for Inactive)
REMARK    1  A    between atoms: C4_5  and  N2_6 
REMARK    2  A    between atoms: N2_6  and  C5_7 
REMARK    3  A    between atoms: C12_14  and  O1_15 
REMARK    4  A    between atoms: O1_15  and  C13_16 
REMARK    5  A    between atoms: C13_16  and  C14_17 
ROOT
HETATM    1  N1  UNL     1      22.903   3.725  51.846  1.00  0.00    -0.191 NA
HETATM    2  C1  UNL     1      22.830   2.675  52.325  1.00  0.00     0.102 C 
HETATM    3  C2  UNL     1      22.749   1.354  52.929  1.00  0.00     0.080 A 
HETATM    4  C3  UNL     1      21.445   0.927  53.195  1.00  0.00     0.055 A 
HETATM    5  C4  UNL     1      21.276  -0.310  53.769  1.00  0.00     0.034 A 
HETATM    6  C10 UNL     1      22.337  -1.129  54.087  1.00  0.00     0.032 A 
HETATM    7  C11 UNL     1      23.588  -0.652  53.801  1.00  0.00     0.040 A 
HETATM    8  C12 UNL     1      23.873   0.567  53.228  1.00  0.00     0.090 A 
ENDROOT
BRANCH   8   9
HETATM    9  O1  UNL     1      25.006   1.194  52.881  1.00  0.00    -0.345 OA
BRANCH   9  10
HETATM   10  C13 UNL     1      26.055   0.896  52.045  1.00  0.00     0.214 C 
BRANCH  10  11
HETATM   11  C14 UNL     1      27.311   0.456  52.691  1.00  0.00    -0.034 A 
HETATM   12  C15 UNL     1      27.497  -0.935  52.704  1.00  0.00     0.009 A 
HETATM   13  C16 UNL     1      28.580  -1.584  53.238  1.00  0.00     0.001 A 
HETATM   14  C17 UNL     1      29.579  -0.827  53.812  1.00  0.00     0.000 A 
HETATM   15  C18 UNL     1      29.440   0.553  53.824  1.00  0.00     0.001 A 
HETATM   16  C19 UNL     1      28.338   1.156  53.278  1.00  0.00     0.009 A 
ENDBRANCH  10  11
ENDBRANCH   9  10
ENDBRANCH   8   9
BRANCH   5  17
HETATM   17  N2  UNL     1      19.938  -0.720  54.025  1.00  0.00    -0.356 N 
HETATM   18  H2  UNL     1      19.742  -0.997  55.012  1.00  0.00     0.166 HD
BRANCH  17  19
HETATM   19  C5  UNL     1      18.794  -0.835  53.211  1.00  0.00     0.028 A 
HETATM   20  C6  UNL     1      17.780  -1.641  53.482  1.00  0.00     0.006 A 
HETATM   21  C7  UNL     1      16.752  -1.514  52.426  1.00  0.00     0.056 A 
HETATM   22  C8  UNL     1      17.319  -0.508  51.493  1.00  0.00    -0.021 A 
HETATM   23  C9  UNL     1      18.483  -0.134  51.958  1.00  0.00     0.025 A 
ENDBRANCH  17  19
ENDBRANCH   5  17
TORSDOF 5
ENDMDL
MODEL 5
REMARK VINA RESULT:      -7.9      2.167      8.324
REMARK  5 active torsions:
REMARK  status: ('A' for Active; 'I' for Inactive)
REMARK    1  A    between atoms: C4_5  and  N2_6 
REMARK    2  A    between atoms: N2_6  and  C5_7 
REMARK    3  A    between atoms: C12_14  and  O1_15 
REMARK    4  A    between atoms: O1_15  and  C13_16 
REMARK    5  A    between atoms: C13_16  and  C14_17 
ROOT
HETATM    1  N1  UNL     1      22.653   4.505  51.822  1.00  0.00    -0.191 NA
HETATM    2  C1  UNL     1      23.032   3.487  52.217  1.00  0.00     0.102 C 
HETATM    3  C2  UNL     1      23.499   2.201  52.709  1.00  0.00     0.080 A 
HETATM    4  C3  UNL     1      24.842   2.193  53.100  1.00  0.00     0.055 A 
HETATM    5  C4  UNL     1      25.368   1.016  53.575  1.00  0.00     0.034 A 
HETATM    6  C10 UNL     1      24.624  -0.139  53.677  1.00  0.00     0.032 A 
HETATM    7  C11 UNL     1      23.316  -0.065  53.279  1.00  0.00     0.040 A 
HETATM    8  C12 UNL     1      22.687   1.057  52.789  1.00  0.00     0.090 A 
ENDROOT
BRANCH   8   9
HETATM    9  O1  UNL     1      21.445   1.319  52.357  1.00  0.00    -0.345 OA
BRANCH   9  10
HETATM   10  C13 UNL     1      20.599   0.733  51.447  1.00  0.00     0.214 C 
BRANCH  10  11
HETATM   11  C14 UNL     1      19.455  -0.025  52.000  1.00  0.00    -0.034 A 
HETATM   12  C15 UNL     1      18.272   0.090  51.254  1.00  0.00     0.009 A 
HETATM   13  C16 UNL     1      17.082  -0.520  51.557  1.00  0.00     0.001 A 
HETATM   14  C17 UNL     1      17.022  -1.315  52.682  1.00  0.00     0.000 A 
HETATM   15  C18 UNL     1      18.167  -1.459  53.452  1.00  0.00     0.001 A 
HETATM   16  C19 UNL     1      19.333  -0.829  53.108  1.00  0.00     0.009 A 
ENDBRANCH  10  11
ENDBRANCH   9  10
ENDBRANCH   8   9
BRANCH   5  17
HETATM   17  N2  UNL     1      26.735   1.037  53.969  1.00  0.00    -0.356 N 
HETATM   18  H2  UNL     1      27.023   1.875  54.522  1.00  0.00     0.166 HD
BRANCH  17  19
HETATM   19  C5  UNL     1      27.809   0.148  53.768  1.00  0.00     0.028 A 
HETATM   20  C6  UNL     1      29.033   0.365  54.220  1.00  0.00     0.006 A 
HETATM   21  C7  UNL     1      29.909  -0.763  53.833  1.00  0.00     0.056 A 
HETATM   22  C8  UNL     1      29.009  -1.676  53.085  1.00  0.00    -0.021 A 
HETATM   23  C9  UNL     1      27.817  -1.139  53.059  1.00  0.00     0.025 A 
ENDBRANCH  17  19
ENDBRANCH   5  17
TORSDOF 5
ENDMDL
MODEL 6
REMARK VINA RESULT:      -7.8      1.951      8.267
REMARK  5 active torsions:
REMARK  status: ('A' for Active; 'I' for Inactive)
REMARK    1  A    between atoms: C4_5  and  N2_6 
REMARK    2  A    between atoms: N2_6  and  C5_7 
REMARK    3  A    between atoms: C12_14  and  O1_15 
REMARK    4  A    between atoms: O1_15  and  C13_16 
REMARK    5  A    between atoms: C13_16  and  C14_17 
ROOT
HETATM    1  N1  UNL     1      22.560   1.873  51.100  1.00  0.00    -0.191 NA
HETATM    2  C1  UNL     1      22.812   1.190  51.998  1.00  0.00     0.102 C 
HETATM    3  C2  UNL     1      23.118   0.326  53.128  1.00  0.00     0.080 A 
HETATM    4  C3  UNL     1      24.484   0.194  53.391  1.00  0.00     0.055 A 
HETATM    5  C4  UNL     1      24.864  -0.608  54.441  1.00  0.00     0.034 A 
HETATM    6  C10 UNL     1      23.953  -1.275  55.229  1.00  0.00     0.032 A 
HETATM    7  C11 UNL     1      22.630  -1.104  54.919  1.00  0.00     0.040 A 
HETATM    8  C12 UNL     1      22.138  -0.327  53.894  1.00  0.00     0.090 A 
ENDROOT
BRANCH   8   9
HETATM    9  O1  UNL     1      20.907  -0.042  53.445  1.00  0.00    -0.345 OA
BRANCH   9  10
HETATM   10  C13 UNL     1      19.673  -0.631  53.579  1.00  0.00     0.214 C 
BRANCH  10  11
HETATM   11  C14 UNL     1      18.724  -0.441  52.459  1.00  0.00    -0.034 A 
HETATM   12  C15 UNL     1      19.226   0.335  51.403  1.00  0.00     0.009 A 
HETATM   13  C16 UNL     1      18.543   0.647  50.256  1.00  0.00     0.001 A 
HETATM   14  C17 UNL     1      17.259   0.168  50.108  1.00  0.00     0.000 A 
HETATM   15  C18 UNL     1      16.719  -0.605  51.127  1.00  0.00     0.001 A 
HETATM   16  C19 UNL     1      17.441  -0.889  52.255  1.00  0.00     0.009 A 
ENDBRANCH  10  11
ENDBRANCH   9  10
ENDBRANCH   8   9
BRANCH   5  17
HETATM   17  N2  UNL     1      26.260  -0.721  54.688  1.00  0.00    -0.356 N 
HETATM   18  H2  UNL     1      26.537  -1.519  55.301  1.00  0.00     0.166 HD
BRANCH  17  19
HETATM   19  C5  UNL     1      27.376   0.032  54.271  1.00  0.00     0.028 A 
HETATM   20  C6  UNL     1      28.539  -0.505  53.941  1.00  0.00     0.006 A 
HETATM   21  C7  UNL     1      29.485   0.565  53.554  1.00  0.00     0.056 A 
HETATM   22  C8  UNL     1      28.696   1.813  53.709  1.00  0.00    -0.021 A 
HETATM   23  C9  UNL     1      27.498   1.487  54.118  1.00  0.00     0.025 A 
ENDBRANCH  17  19
ENDBRANCH   5  17
TORSDOF 5
ENDMDL
MODEL 7
REMARK VINA RESULT:      -7.8      1.834      3.199
REMARK  5 active torsions:
REMARK  status: ('A' for Active; 'I' for Inactive)
REMARK    1  A    between atoms: C4_5  and  N2_6 
REMARK    2  A    between atoms: N2_6  and  C5_7 
REMARK    3  A    between atoms: C12_14  and  O1_15 
REMARK    4  A    between atoms: O1_15  and  C13_16 
REMARK    5  A    between atoms: C13_16  and  C14_17 
ROOT
HETATM    1  N1  UNL     1      22.579  -1.696  55.442  1.00  0.00    -0.191 NA
HETATM    2  C1  UNL     1      21.790  -1.330  54.679  1.00  0.00     0.102 C 
HETATM    3  C2  UNL     1      20.807  -0.866  53.713  1.00  0.00     0.080 A 
HETATM    4  C3  UNL     1      19.518  -1.362  53.928  1.00  0.00     0.055 A 
HETATM    5  C4  UNL     1      18.526  -0.977  53.059  1.00  0.00     0.034 A 
HETATM    6  C10 UNL     1      18.760  -0.130  51.998  1.00  0.00     0.032 A 
HETATM    7  C11 UNL     1      20.043   0.321  51.843  1.00  0.00     0.040 A 
HETATM    8  C12 UNL     1      21.111   0.001  52.651  1.00  0.00     0.090 A 
ENDROOT
BRANCH   8   9
HETATM    9  O1  UNL     1      22.410   0.334  52.659  1.00  0.00    -0.345 OA
BRANCH   9  10
HETATM   10  C13 UNL     1      23.109   1.478  52.959  1.00  0.00     0.214 C 
BRANCH  10  11
HETATM   11  C14 UNL     1      24.578   1.344  53.080  1.00  0.00    -0.034 A 
HETATM   12  C15 UNL     1      25.059   0.045  52.853  1.00  0.00     0.009 A 
HETATM   13  C16 UNL     1      26.376  -0.331  52.902  1.00  0.00     0.001 A 
HETATM   14  C17 UNL     1      27.320   0.630  53.195  1.00  0.00     0.000 A 
HETATM   15  C18 UNL     1      26.893   1.929  53.428  1.00  0.00     0.001 A 
HETATM   16  C19 UNL     1      25.565   2.256  53.369  1.00  0.00     0.009 A 
ENDBRANCH  10  11
ENDBRANCH   9  10
ENDBRANCH   8   9
BRANCH   5  17
HETATM   17  N2  UNL     1      17.224  -1.494  53.303  1.00  0.00    -0.356 N 
HETATM   18  H2  UNL     1      16.531  -0.798  53.658  1.00  0.00     0.166 HD
BRANCH  17  19
HETATM   19  C5  UNL     1      16.655  -2.776  53.164  1.00  0.00     0.028 A 
HETATM   20  C6  UNL     1      15.583  -3.026  52.430  1.00  0.00     0.006 A 
HETATM   21  C7  UNL     1      15.257  -4.467  52.506  1.00  0.00     0.056 A 
HETATM   22  C8  UNL     1      16.304  -5.024  53.398  1.00  0.00    -0.021 A 
HETATM   23  C9  UNL     1      17.090  -4.045  53.762  1.00  0.00     0.025 A 
ENDBRANCH  17  19
ENDBRANCH   5  17
TORSDOF 5
ENDMDL
MODEL 8
REMARK VINA RESULT:      -7.7      4.194      7.269
REMARK  5 active torsions:
REMARK  status: ('A' for Active; 'I' for Inactive)
REMARK    1  A    between atoms: C4_5  and  N2_6 
REMARK    2  A    between atoms: N2_6  and  C5_7 
REMARK    3  A    between atoms: C12_14  and  O1_15 
REMARK    4  A    between atoms: O1_15  and  C13_16 
REMARK    5  A    between atoms: C13_16  and  C14_17 
ROOT
HETATM    1  N1  UNL     1      20.926   2.137  52.227  1.00  0.00    -0.191 NA
HETATM    2  C1  UNL     1      22.039   2.243  51.929  1.00  0.00     0.102 C 
HETATM    3  C2  UNL     1      23.440   2.367  51.560  1.00  0.00     0.080 A 
HETATM    4  C3  UNL     1      23.699   3.382  50.635  1.00  0.00     0.055 A 
HETATM    5  C4  UNL     1      24.998   3.567  50.226  1.00  0.00     0.034 A 
HETATM    6  C10 UNL     1      26.037   2.794  50.694  1.00  0.00     0.032 A 
HETATM    7  C11 UNL     1      25.718   1.816  51.598  1.00  0.00     0.040 A 
HETATM    8  C12 UNL     1      24.455   1.544  52.075  1.00  0.00     0.090 A 
ENDROOT
BRANCH   8   9
HETATM    9  O1  UNL     1      23.955   0.650  52.941  1.00  0.00    -0.345 OA
BRANCH   9  10
HETATM   10  C13 UNL     1      24.488  -0.386  53.671  1.00  0.00     0.214 C 
BRANCH  10  11
HETATM   11  C14 UNL     1      25.963  -0.506  53.668  1.00  0.00    -0.034 A 
HETATM   12  C15 UNL     1      26.601   0.198  54.701  1.00  0.00     0.009 A 
HETATM   13  C16 UNL     1      27.955   0.238  54.914  1.00  0.00     0.001 A 
HETATM   14  C17 UNL     1      28.773  -0.464  54.055  1.00  0.00     0.000 A 
HETATM   15  C18 UNL     1      28.188  -1.175  53.018  1.00  0.00     0.001 A 
HETATM   16  C19 UNL     1      26.830  -1.184  52.845  1.00  0.00     0.009 A 
ENDBRANCH  10  11
ENDBRANCH   9  10
ENDBRANCH   8   9
BRANCH   5  17
HETATM   17  N2  UNL     1      25.233   4.609  49.288  1.00  0.00    -0.356 N 
HETATM   18  H2  UNL     1      24.383   4.954  48.788  1.00  0.00     0.166 HD
BRANCH  17  19
HETATM   19  C5  UNL     1      26.395   5.293  48.879  1.00  0.00     0.028 A 
HETATM   20  C6  UNL     1      26.430   6.591  48.625  1.00  0.00     0.006 A 
HETATM   21  C7  UNL     1      27.799   6.980  48.222  1.00  0.00     0.056 A 
HETATM   22  C8  UNL     1      28.563   5.709  48.280  1.00  0.00    -0.021 A 
HETATM   23  C9  UNL     1      27.745   4.760  48.656  1.00  0.00     0.025 A 
ENDBRANCH  17  19
ENDBRANCH   5  17
TORSDOF 5
ENDMDL
MODEL 9
REMARK VINA RESULT:      -7.6      4.873      6.659
REMARK  5 active torsions:
REMARK  status: ('A' for Active; 'I' for Inactive)
REMARK    1  A    between atoms: C4_5  and  N2_6 
REMARK    2  A    between atoms: N2_6  and  C5_7 
REMARK    3  A    between atoms: C12_14  and  O1_15 
REMARK    4  A    between atoms: O1_15  and  C13_16 
REMARK    5  A    between atoms: C13_16  and  C14_17 
ROOT
HETATM    1  N1  UNL     1      22.098   5.162  51.604  1.00  0.00    -0.191 NA
HETATM    2  C1  UNL     1      22.978   4.413  51.570  1.00  0.00     0.102 C 
HETATM    3  C2  UNL     1      24.091   3.478  51.522  1.00  0.00     0.080 A 
HETATM    4  C3  UNL     1      23.853   2.271  52.185  1.00  0.00     0.055 A 
HETATM    5  C4  UNL     1      24.854   1.331  52.193  1.00  0.00     0.034 A 
HETATM    6  C10 UNL     1      26.068   1.538  51.576  1.00  0.00     0.032 A 
HETATM    7  C11 UNL     1      26.239   2.740  50.943  1.00  0.00     0.040 A 
HETATM    8  C12 UNL     1      25.307   3.751  50.873  1.00  0.00     0.090 A 
ENDROOT
BRANCH   8   9
HETATM    9  O1  UNL     1      25.291   4.970  50.313  1.00  0.00    -0.345 OA
BRANCH   9  10
HETATM   10  C13 UNL     1      25.419   5.442  49.030  1.00  0.00     0.214 C 
BRANCH  10  11
HETATM   11  C14 UNL     1      26.792   5.753  48.573  1.00  0.00    -0.034 A 
HETATM   12  C15 UNL     1      26.931   7.021  47.988  1.00  0.00     0.009 A 
HETATM   13  C16 UNL     1      28.100   7.541  47.495  1.00  0.00     0.001 A 
HETATM   14  C17 UNL     1      29.241   6.773  47.571  1.00  0.00     0.000 A 
HETATM   15  C18 UNL     1      29.153   5.511  48.141  1.00  0.00     0.001 A 
HETATM   16  C19 UNL     1      27.962   5.034  48.620  1.00  0.00     0.009 A 
ENDBRANCH  10  11
ENDBRANCH   9  10
ENDBRANCH   8   9
BRANCH   5  17
HETATM   17  N2  UNL     1      24.583   0.111  52.873  1.00  0.00    -0.356 N 
HETATM   18  H2  UNL     1      25.400  -0.532  52.972  1.00  0.00     0.166 HD
BRANCH  17  19
HETATM   19  C5  UNL     1      23.418  -0.428  53.455  1.00  0.00     0.028 A 
HETATM   20  C6  UNL     1      22.283  -0.601  52.798  1.00  0.00     0.006 A 
HETATM   21  C7  UNL     1      21.271  -1.185  53.705  1.00  0.00     0.056 A 
HETATM   22  C8  UNL     1      21.989  -1.329  54.997  1.00  0.00    -0.021 A 
HETATM   23  C9  UNL     1      23.210  -0.893  54.833  1.00  0.00     0.025 A 
ENDBRANCH  17  19
ENDBRANCH   5  17
TORSDOF 5
ENDMDL
