MODEL 1
REMARK VINA RESULT:      -7.9      0.000      0.000
REMARK  3 active torsions:
REMARK  status: ('A' for Active; 'I' for Inactive)
REMARK    1  A    between atoms: C1_2  and  C2_3 
REMARK    2  A    between atoms: C7_10  and  N3_11 
REMARK    3  A    between atoms: N3_11  and  C8_12 
ROOT
HETATM    1  C2  UNL     1      19.743   0.483  51.431  1.00  0.00     0.015 A 
HETATM    2  C3  UNL     1      19.025  -0.232  52.476  1.00  0.00     0.074 A 
HETATM    3  C4  UNL     1      19.803  -0.777  53.577  1.00  0.00     0.011 A 
HETATM    4  C5  UNL     1      21.085  -0.741  53.807  1.00  0.00     0.070 A 
HETATM    5  N1  UNL     1      21.523  -1.352  54.941  1.00  0.00    -0.241 NA
HETATM    6  C6  UNL     1      22.822  -1.376  55.278  1.00  0.00     0.236 A 
HETATM    7  N2  UNL     1      23.826  -0.810  54.551  1.00  0.00    -0.223 NA
HETATM    8  C7  UNL     1      23.408  -0.195  53.414  1.00  0.00     0.143 A 
HETATM    9  C13 UNL     1      22.076  -0.156  53.045  1.00  0.00     0.053 A 
HETATM   10  P2  UNL     1      21.559   0.597  51.652  1.00  0.00    -0.005 P 
ENDROOT
BRANCH   8  11
HETATM   11  N3  UNL     1      24.379   0.427  52.583  1.00  0.00    -0.339 N 
HETATM   12  H5  UNL     1      24.087   1.041  51.794  1.00  0.00     0.167 HD
BRANCH  11  13
HETATM   13  C8  UNL     1      25.770   0.173  52.875  1.00  0.00     0.048 A 
HETATM   14  C9  UNL     1      26.431  -1.010  52.647  1.00  0.00     0.034 A 
HETATM   15  C10 UNL     1      27.752  -1.177  52.951  1.00  0.00     0.046 A 
HETATM   16  C11 UNL     1      28.641  -0.307  53.492  1.00  0.00     0.139 A 
HETATM   17  F1  UNL     1      29.945  -0.685  53.718  1.00  0.00    -0.204 F 
HETATM   18  C12 UNL     1      28.365   0.998  53.868  1.00  0.00     0.087 A 
HETATM   19 CL1  UNL     1      29.540   2.093  54.566  1.00  0.00    -0.079 Cl
HETATM   20  P1  UNL     1      26.705   1.477  53.580  1.00  0.00     0.024 P 
ENDBRANCH  11  13
ENDBRANCH   8  11
BRANCH   1  21
HETATM   21  C1  UNL     1      19.021   0.960  50.459  1.00  0.00     0.230 C 
HETATM   22  O1  UNL     1      18.105   1.439  49.761  1.00  0.00    -0.283 OA
ENDBRANCH   1  21
TORSDOF 3
ENDMDL
MODEL 2
REMARK VINA RESULT:      -7.5      2.637      3.812
REMARK  3 active torsions:
REMARK  status: ('A' for Active; 'I' for Inactive)
REMARK    1  A    between atoms: C1_2  and  C2_3 
REMARK    2  A    between atoms: C7_10  and  N3_11 
REMARK    3  A    between atoms: N3_11  and  C8_12 
ROOT
HETATM    1  C2  UNL     1      21.170   0.485  52.203  1.00  0.00     0.015 A 
HETATM    2  C3  UNL     1      20.885   0.849  50.823  1.00  0.00     0.074 A 
HETATM    3  C4  UNL     1      21.891   1.619  50.107  1.00  0.00     0.011 A 
HETATM    4  C5  UNL     1      23.053   2.061  50.496  1.00  0.00     0.070 A 
HETATM    5  N1  UNL     1      23.779   2.763  49.584  1.00  0.00    -0.241 NA
HETATM    6  C6  UNL     1      24.989   3.266  49.876  1.00  0.00     0.236 A 
HETATM    7  N2  UNL     1      25.616   3.139  51.079  1.00  0.00    -0.223 NA
HETATM    8  C7  UNL     1      24.905   2.441  52.003  1.00  0.00     0.143 A 
HETATM    9  C13 UNL     1      23.657   1.913  51.728  1.00  0.00     0.053 A 
HETATM   10  P2  UNL     1      22.783   1.058  52.858  1.00  0.00    -0.005 P 
ENDROOT
BRANCH   8  11
HETATM   11  N3  UNL     1      25.472   2.253  53.294  1.00  0.00    -0.339 N 
HETATM   12  H5  UNL     1      24.991   2.617  54.143  1.00  0.00     0.167 HD
BRANCH  11  13
HETATM   13  C8  UNL     1      26.727   1.544  53.376  1.00  0.00     0.048 A 
HETATM   14  C9  UNL     1      27.948   2.111  53.655  1.00  0.00     0.034 A 
HETATM   15  C10 UNL     1      29.096   1.375  53.716  1.00  0.00     0.046 A 
HETATM   16  C11 UNL     1      29.292   0.045  53.535  1.00  0.00     0.139 A 
HETATM   17  F1  UNL     1      30.551  -0.501  53.643  1.00  0.00    -0.204 F 
HETATM   18  C12 UNL     1      28.307  -0.882  53.234  1.00  0.00     0.087 A 
HETATM   19 CL1  UNL     1      28.598  -2.594  53.006  1.00  0.00    -0.079 Cl
HETATM   20  P1  UNL     1      26.705  -0.186  53.096  1.00  0.00     0.024 P 
ENDBRANCH  11  13
ENDBRANCH   8  11
BRANCH   1  21
HETATM   21  C1  UNL     1      20.252  -0.203  52.818  1.00  0.00     0.230 C 
HETATM   22  O1  UNL     1      19.235  -0.570  53.441  1.00  0.00    -0.283 OA
ENDBRANCH   1  21
TORSDOF 3
ENDMDL
MODEL 3
REMARK VINA RESULT:      -7.3      4.911      6.262
REMARK  3 active torsions:
REMARK  status: ('A' for Active; 'I' for Inactive)
REMARK    1  A    between atoms: C1_2  and  C2_3 
REMARK    2  A    between atoms: C7_10  and  N3_11 
REMARK    3  A    between atoms: N3_11  and  C8_12 
ROOT
HETATM    1  C2  UNL     1      23.714  -0.625  54.255  1.00  0.00     0.015 A 
HETATM    2  C3  UNL     1      24.757  -0.812  55.252  1.00  0.00     0.074 A 
HETATM    3  C4  UNL     1      26.017  -0.113  55.048  1.00  0.00     0.011 A 
HETATM    4  C5  UNL     1      26.397   0.684  54.091  1.00  0.00     0.070 A 
HETATM    5  N1  UNL     1      27.656   1.191  54.178  1.00  0.00    -0.241 NA
HETATM    6  C6  UNL     1      28.152   2.023  53.249  1.00  0.00     0.236 A 
HETATM    7  N2  UNL     1      27.478   2.447  52.143  1.00  0.00    -0.223 NA
HETATM    8  C7  UNL     1      26.218   1.950  52.039  1.00  0.00     0.143 A 
HETATM    9  C13 UNL     1      25.684   1.093  52.982  1.00  0.00     0.053 A 
HETATM   10  P2  UNL     1      24.139   0.482  52.858  1.00  0.00    -0.005 P 
ENDROOT
BRANCH   8  11
HETATM   11  N3  UNL     1      25.429   2.332  50.919  1.00  0.00    -0.339 N 
HETATM   12  H5  UNL     1      24.659   1.718  50.578  1.00  0.00     0.167 HD
BRANCH  11  13
HETATM   13  C8  UNL     1      25.738   3.590  50.281  1.00  0.00     0.048 A 
HETATM   14  C9  UNL     1      26.756   3.803  49.384  1.00  0.00     0.034 A 
HETATM   15  C10 UNL     1      26.987   5.025  48.821  1.00  0.00     0.046 A 
HETATM   16  C11 UNL     1      26.337   6.203  48.991  1.00  0.00     0.139 A 
HETATM   17  F1  UNL     1      26.741   7.333  48.316  1.00  0.00    -0.204 F 
HETATM   18  C12 UNL     1      25.246   6.410  49.820  1.00  0.00     0.087 A 
HETATM   19 CL1  UNL     1      24.432   7.947  50.016  1.00  0.00    -0.079 Cl
HETATM   20  P1  UNL     1      24.734   4.971  50.680  1.00  0.00     0.024 P 
ENDBRANCH  11  13
ENDBRANCH   8  11
BRANCH   1  21
HETATM   21  C1  UNL     1      22.598  -1.263  54.463  1.00  0.00     0.230 C 
HETATM   22  O1  UNL     1      21.523  -1.691  54.931  1.00  0.00    -0.283 OA
ENDBRANCH   1  21
TORSDOF 3
ENDMDL
MODEL 4
REMARK VINA RESULT:      -7.1      5.054      6.467
REMARK  3 active torsions:
REMARK  status: ('A' for Active; 'I' for Inactive)
REMARK    1  A    between atoms: C1_2  and  C2_3 
REMARK    2  A    between atoms: C7_10  and  N3_11 
REMARK    3  A    between atoms: N3_11  and  C8_12 
ROOT
HETATM    1  C2  UNL     1      26.595   5.115  49.239  1.00  0.00     0.015 A 
HETATM    2  C3  UNL     1      26.058   6.418  49.601  1.00  0.00     0.074 A 
HETATM    3  C4  UNL     1      24.811   6.451  50.349  1.00  0.00     0.011 A 
HETATM    4  C5  UNL     1      24.054   5.480  50.773  1.00  0.00     0.070 A 
HETATM    5  N1  UNL     1      22.931   5.830  51.457  1.00  0.00    -0.241 NA
HETATM    6  C6  UNL     1      22.078   4.913  51.939  1.00  0.00     0.236 A 
HETATM    7  N2  UNL     1      22.228   3.565  51.809  1.00  0.00    -0.223 NA
HETATM    8  C7  UNL     1      23.344   3.195  51.128  1.00  0.00     0.143 A 
HETATM    9  C13 UNL     1      24.238   4.120  50.621  1.00  0.00     0.053 A 
HETATM   10  P2  UNL     1      25.607   3.671  49.786  1.00  0.00    -0.005 P 
ENDROOT
BRANCH   8  11
HETATM   11  N3  UNL     1      23.593   1.809  50.936  1.00  0.00    -0.339 N 
HETATM   12  H5  UNL     1      23.540   1.387  49.985  1.00  0.00     0.167 HD
BRANCH  11  13
HETATM   13  C8  UNL     1      23.916   1.020  52.102  1.00  0.00     0.048 A 
HETATM   14  C9  UNL     1      23.050   0.186  52.767  1.00  0.00     0.034 A 
HETATM   15  C10 UNL     1      23.429  -0.531  53.866  1.00  0.00     0.046 A 
HETATM   16  C11 UNL     1      24.625  -0.589  54.502  1.00  0.00     0.139 A 
HETATM   17  F1  UNL     1      24.795  -1.389  55.609  1.00  0.00    -0.204 F 
HETATM   18  C12 UNL     1      25.766   0.110  54.139  1.00  0.00     0.087 A 
HETATM   19 CL1  UNL     1      27.296   0.010  54.986  1.00  0.00    -0.079 Cl
HETATM   20  P1  UNL     1      25.549   1.128  52.730  1.00  0.00     0.024 P 
ENDBRANCH  11  13
ENDBRANCH   8  11
BRANCH   1  21
HETATM   21  C1  UNL     1      27.711   5.117  48.570  1.00  0.00     0.230 C 
HETATM   22  O1  UNL     1      28.888   4.959  48.188  1.00  0.00    -0.283 OA
ENDBRANCH   1  21
TORSDOF 3
ENDMDL
MODEL 5
REMARK VINA RESULT:      -7.1      5.568      7.069
REMARK  3 active torsions:
REMARK  status: ('A' for Active; 'I' for Inactive)
REMARK    1  A    between atoms: C1_2  and  C2_3 
REMARK    2  A    between atoms: C7_10  and  N3_11 
REMARK    3  A    between atoms: N3_11  and  C8_12 
ROOT
HETATM    1  C2  UNL     1      26.443   5.162  49.198  1.00  0.00     0.015 A 
HETATM    2  C3  UNL     1      26.003   6.496  49.578  1.00  0.00     0.074 A 
HETATM    3  C4  UNL     1      24.710   6.618  50.234  1.00  0.00     0.011 A 
HETATM    4  C5  UNL     1      23.836   5.708  50.557  1.00  0.00     0.070 A 
HETATM    5  N1  UNL     1      22.701   6.137  51.172  1.00  0.00    -0.241 NA
HETATM    6  C6  UNL     1      21.733   5.287  51.548  1.00  0.00     0.236 A 
HETATM    7  N2  UNL     1      21.768   3.937  51.368  1.00  0.00    -0.223 NA
HETATM    8  C7  UNL     1      22.895   3.489  50.754  1.00  0.00     0.143 A 
HETATM    9  C13 UNL     1      23.906   4.344  50.357  1.00  0.00     0.053 A 
HETATM   10  P2  UNL     1      25.288   3.799  49.604  1.00  0.00    -0.005 P 
ENDROOT
BRANCH   8  11
HETATM   11  N3  UNL     1      23.029   2.094  50.518  1.00  0.00    -0.339 N 
HETATM   12  H5  UNL     1      22.981   1.712  49.549  1.00  0.00     0.167 HD
BRANCH  11  13
HETATM   13  C8  UNL     1      23.231   1.238  51.663  1.00  0.00     0.048 A 
HETATM   14  C9  UNL     1      24.414   1.080  52.343  1.00  0.00     0.034 A 
HETATM   15  C10 UNL     1      24.530   0.250  53.421  1.00  0.00     0.046 A 
HETATM   16  C11 UNL     1      23.603  -0.538  54.020  1.00  0.00     0.139 A 
HETATM   17  F1  UNL     1      23.935  -1.309  55.112  1.00  0.00    -0.204 F 
HETATM   18  C12 UNL     1      22.279  -0.664  53.632  1.00  0.00     0.087 A 
HETATM   19 CL1  UNL     1      21.109  -1.694  54.431  1.00  0.00    -0.079 Cl
HETATM   20  P1  UNL     1      21.857   0.317  52.243  1.00  0.00     0.024 P 
ENDBRANCH  11  13
ENDBRANCH   8  11
BRANCH   1  21
HETATM   21  C1  UNL     1      27.604   5.085  48.613  1.00  0.00     0.230 C 
HETATM   22  O1  UNL     1      28.802   4.877  48.334  1.00  0.00    -0.283 OA
ENDBRANCH   1  21
TORSDOF 3
ENDMDL
MODEL 6
REMARK VINA RESULT:      -7.0      4.238      5.046
REMARK  3 active torsions:
REMARK  status: ('A' for Active; 'I' for Inactive)
REMARK    1  A    between atoms: C1_2  and  C2_3 
REMARK    2  A    between atoms: C7_10  and  N3_11 
REMARK    3  A    between atoms: N3_11  and  C8_12 
ROOT
HETATM    1  C2  UNL     1      20.479  -0.669  53.483  1.00  0.00     0.015 A 
HETATM    2  C3  UNL     1      21.202  -1.343  54.551  1.00  0.00     0.074 A 
HETATM    3  C4  UNL     1      22.641  -1.144  54.621  1.00  0.00     0.011 A 
HETATM    4  C5  UNL     1      23.435  -0.440  53.866  1.00  0.00     0.070 A 
HETATM    5  N1  UNL     1      24.758  -0.451  54.187  1.00  0.00    -0.241 NA
HETATM    6  C6  UNL     1      25.666   0.237  53.478  1.00  0.00     0.236 A 
HETATM    7  N2  UNL     1      25.385   1.006  52.388  1.00  0.00    -0.223 NA
HETATM    8  C7  UNL     1      24.068   1.028  52.052  1.00  0.00     0.143 A 
HETATM    9  C13 UNL     1      23.114   0.328  52.765  1.00  0.00     0.053 A 
HETATM   10  P2  UNL     1      21.499   0.353  52.355  1.00  0.00    -0.005 P 
ENDROOT
BRANCH   8  11
HETATM   11  N3  UNL     1      23.670   1.801  50.927  1.00  0.00    -0.339 N 
HETATM   12  H5  UNL     1      23.294   1.339  50.072  1.00  0.00     0.167 HD
BRANCH  11  13
HETATM   13  C8  UNL     1      23.807   3.235  51.018  1.00  0.00     0.048 A 
HETATM   14  C9  UNL     1      23.086   4.056  51.852  1.00  0.00     0.034 A 
HETATM   15  C10 UNL     1      23.272   5.408  51.883  1.00  0.00     0.046 A 
HETATM   16  C11 UNL     1      24.124   6.190  51.174  1.00  0.00     0.139 A 
HETATM   17  F1  UNL     1      24.150   7.553  51.363  1.00  0.00    -0.204 F 
HETATM   18  C12 UNL     1      25.026   5.742  50.222  1.00  0.00     0.087 A 
HETATM   19 CL1  UNL     1      26.112   6.782  49.325  1.00  0.00    -0.079 Cl
HETATM   20  P1  UNL     1      24.993   4.007  49.982  1.00  0.00     0.024 P 
ENDBRANCH  11  13
ENDBRANCH   8  11
BRANCH   1  21
HETATM   21  C1  UNL     1      19.192  -0.865  53.446  1.00  0.00     0.230 C 
HETATM   22  O1  UNL     1      18.048  -1.326  53.258  1.00  0.00    -0.283 OA
ENDBRANCH   1  21
TORSDOF 3
ENDMDL
MODEL 7
REMARK VINA RESULT:      -7.0      3.507      4.240
REMARK  3 active torsions:
REMARK  status: ('A' for Active; 'I' for Inactive)
REMARK    1  A    between atoms: C1_2  and  C2_3 
REMARK    2  A    between atoms: C7_10  and  N3_11 
REMARK    3  A    between atoms: N3_11  and  C8_12 
ROOT
HETATM    1  C2  UNL     1      24.595   3.989  49.629  1.00  0.00     0.015 A 
HETATM    2  C3  UNL     1      23.376   3.639  48.916  1.00  0.00     0.074 A 
HETATM    3  C4  UNL     1      22.551   2.577  49.470  1.00  0.00     0.011 A 
HETATM    4  C5  UNL     1      22.714   1.850  50.538  1.00  0.00     0.070 A 
HETATM    5  N1  UNL     1      21.756   0.920  50.800  1.00  0.00    -0.241 NA
HETATM    6  C6  UNL     1      21.822   0.116  51.873  1.00  0.00     0.236 A 
HETATM    7  N2  UNL     1      22.821   0.132  52.799  1.00  0.00    -0.223 NA
HETATM    8  C7  UNL     1      23.788   1.055  52.554  1.00  0.00     0.143 A 
HETATM    9  C13 UNL     1      23.743   1.895  51.457  1.00  0.00     0.053 A 
HETATM   10  P2  UNL     1      24.927   3.027  51.153  1.00  0.00    -0.005 P 
ENDROOT
BRANCH   8  11
HETATM   11  N3  UNL     1      24.877   1.152  53.462  1.00  0.00    -0.339 N 
HETATM   12  H5  UNL     1      24.882   1.880  54.208  1.00  0.00     0.167 HD
BRANCH  11  13
HETATM   13  C8  UNL     1      25.962   0.213  53.309  1.00  0.00     0.048 A 
HETATM   14  C9  UNL     1      25.842  -1.080  52.858  1.00  0.00     0.034 A 
HETATM   15  C10 UNL     1      26.918  -1.912  52.739  1.00  0.00     0.046 A 
HETATM   16  C11 UNL     1      28.229  -1.691  53.008  1.00  0.00     0.139 A 
HETATM   17  F1  UNL     1      29.163  -2.683  52.814  1.00  0.00    -0.204 F 
HETATM   18  C12 UNL     1      28.765  -0.506  53.485  1.00  0.00     0.087 A 
HETATM   19 CL1  UNL     1      30.465  -0.257  53.822  1.00  0.00    -0.079 Cl
HETATM   20  P1  UNL     1      27.575   0.756  53.731  1.00  0.00     0.024 P 
ENDBRANCH  11  13
ENDBRANCH   8  11
BRANCH   1  21
HETATM   21  C1  UNL     1      25.313   4.943  49.109  1.00  0.00     0.230 C 
HETATM   22  O1  UNL     1      26.231   5.729  48.801  1.00  0.00    -0.283 OA
ENDBRANCH   1  21
TORSDOF 3
ENDMDL
MODEL 8
REMARK VINA RESULT:      -6.9      5.787      7.062
REMARK  3 active torsions:
REMARK  status: ('A' for Active; 'I' for Inactive)
REMARK    1  A    between atoms: C1_2  and  C2_3 
REMARK    2  A    between atoms: C7_10  and  N3_11 
REMARK    3  A    between atoms: N3_11  and  C8_12 
ROOT
HETATM    1  C2  UNL     1      26.393   0.465  54.034  1.00  0.00     0.015 A 
HETATM    2  C3  UNL     1      25.485  -0.658  53.855  1.00  0.00     0.074 A 
HETATM    3  C4  UNL     1      24.178  -0.383  53.280  1.00  0.00     0.011 A 
HETATM    4  C5  UNL     1      23.649   0.737  52.879  1.00  0.00     0.070 A 
HETATM    5  N1  UNL     1      22.385   0.675  52.379  1.00  0.00    -0.241 NA
HETATM    6  C6  UNL     1      21.742   1.767  51.936  1.00  0.00     0.236 A 
HETATM    7  N2  UNL     1      22.259   3.029  51.934  1.00  0.00    -0.223 NA
HETATM    8  C7  UNL     1      23.521   3.110  52.431  1.00  0.00     0.143 A 
HETATM    9  C13 UNL     1      24.204   2.000  52.892  1.00  0.00     0.053 A 
HETATM   10  P2  UNL     1      25.751   2.097  53.502  1.00  0.00    -0.005 P 
ENDROOT
BRANCH   8  11
HETATM   11  N3  UNL     1      24.151   4.384  52.473  1.00  0.00    -0.339 N 
HETATM   12  H5  UNL     1      24.434   4.806  53.382  1.00  0.00     0.167 HD
BRANCH  11  13
HETATM   13  C8  UNL     1      24.379   5.059  51.217  1.00  0.00     0.048 A 
HETATM   14  C9  UNL     1      25.176   4.600  50.196  1.00  0.00     0.034 A 
HETATM   15  C10 UNL     1      25.344   5.295  49.034  1.00  0.00     0.046 A 
HETATM   16  C11 UNL     1      24.821   6.485  48.643  1.00  0.00     0.139 A 
HETATM   17  F1  UNL     1      25.125   7.016  47.410  1.00  0.00    -0.204 F 
HETATM   18  C12 UNL     1      23.964   7.274  49.394  1.00  0.00     0.087 A 
HETATM   19 CL1  UNL     1      23.308   8.806  48.856  1.00  0.00    -0.079 Cl
HETATM   20  P1  UNL     1      23.577   6.597  50.963  1.00  0.00     0.024 P 
ENDBRANCH  11  13
ENDBRANCH   8  11
BRANCH   1  21
HETATM   21  C1  UNL     1      27.556   0.189  54.551  1.00  0.00     0.230 C 
HETATM   22  O1  UNL     1      28.557  -0.379  55.032  1.00  0.00    -0.283 OA
ENDBRANCH   1  21
TORSDOF 3
ENDMDL
MODEL 9
REMARK VINA RESULT:      -6.8      5.232      7.129
REMARK  3 active torsions:
REMARK  status: ('A' for Active; 'I' for Inactive)
REMARK    1  A    between atoms: C1_2  and  C2_3 
REMARK    2  A    between atoms: C7_10  and  N3_11 
REMARK    3  A    between atoms: N3_11  and  C8_12 
ROOT
HETATM    1  C2  UNL     1      23.272  -0.367  53.893  1.00  0.00     0.015 A 
HETATM    2  C3  UNL     1      24.655  -0.801  54.019  1.00  0.00     0.074 A 
HETATM    3  C4  UNL     1      25.660  -0.080  53.253  1.00  0.00     0.011 A 
HETATM    4  C5  UNL     1      25.540   0.929  52.438  1.00  0.00     0.070 A 
HETATM    5  N1  UNL     1      26.682   1.393  51.861  1.00  0.00    -0.241 NA
HETATM    6  C6  UNL     1      26.676   2.427  51.007  1.00  0.00     0.236 A 
HETATM    7  N2  UNL     1      25.564   3.116  50.625  1.00  0.00    -0.223 NA
HETATM    8  C7  UNL     1      24.413   2.667  51.190  1.00  0.00     0.143 A 
HETATM    9  C13 UNL     1      24.392   1.604  52.074  1.00  0.00     0.053 A 
HETATM   10  P2  UNL     1      22.983   1.051  52.769  1.00  0.00    -0.005 P 
ENDROOT
BRANCH   8  11
HETATM   11  N3  UNL     1      23.194   3.319  50.856  1.00  0.00    -0.339 N 
HETATM   12  H5  UNL     1      22.602   3.750  51.598  1.00  0.00     0.167 HD
BRANCH  11  13
HETATM   13  C8  UNL     1      22.817   3.359  49.463  1.00  0.00     0.048 A 
HETATM   14  C9  UNL     1      22.513   2.267  48.686  1.00  0.00     0.034 A 
HETATM   15  C10 UNL     1      22.163   2.383  47.372  1.00  0.00     0.046 A 
HETATM   16  C11 UNL     1      22.043   3.487  46.593  1.00  0.00     0.139 A 
HETATM   17  F1  UNL     1      21.673   3.379  45.272  1.00  0.00    -0.204 F 
HETATM   18  C12 UNL     1      22.266   4.792  47.005  1.00  0.00     0.087 A 
HETATM   19 CL1  UNL     1      22.101   6.195  45.969  1.00  0.00    -0.079 Cl
HETATM   20  P1  UNL     1      22.737   4.928  48.687  1.00  0.00     0.024 P 
ENDBRANCH  11  13
ENDBRANCH   8  11
BRANCH   1  21
HETATM   21  C1  UNL     1      22.395  -1.031  54.590  1.00  0.00     0.230 C 
HETATM   22  O1  UNL     1      21.629  -1.903  55.047  1.00  0.00    -0.283 OA
ENDBRANCH   1  21
TORSDOF 3
ENDMDL
