MODEL 1
REMARK VINA RESULT:      -6.6      0.000      0.000
REMARK  9 active torsions:
REMARK  status: ('A' for Active; 'I' for Inactive)
REMARK    1  A    between atoms: C3_3  and  N1_4 
REMARK    2  A    between atoms: N1_4  and  C4_5 
REMARK    3  A    between atoms: C6_7  and  O1_8 
REMARK    4  A    between atoms: C9_11  and  O2_12 
REMARK    5  A    between atoms: C13_18  and  C14_19 
REMARK    6  A    between atoms: C14_19  and  C15_20 
REMARK    7  A    between atoms: C15_20  and  C16_21 
REMARK    8  A    between atoms: C15_20  and  O4_24 
REMARK    9  A    between atoms: C16_21  and  O3_22 
ROOT
HETATM    1  C1  UNL     1      24.912   3.265  49.755  1.00  0.00     0.049 C 
HETATM    2  C2  UNL     1      23.938   3.828  50.454  1.00  0.00     0.017 A 
HETATM    3  C3  UNL     1      23.925   3.825  51.824  1.00  0.00     0.138 A 
HETATM    4  N2  UNL     1      22.872   4.437  52.379  1.00  0.00    -0.224 NA
HETATM    5  C12 UNL     1      21.883   5.021  51.690  1.00  0.00     0.235 A 
HETATM    6  N3  UNL     1      21.943   4.996  50.348  1.00  0.00    -0.241 NA
HETATM    7  C13 UNL     1      22.958   4.407  49.685  1.00  0.00     0.071 A 
ENDROOT
BRANCH   3   8
HETATM    8  N1  UNL     1      24.980   3.203  52.544  1.00  0.00    -0.340 N 
HETATM    9  H3  UNL     1      25.867   3.779  52.662  1.00  0.00     0.167 HD
BRANCH   8  10
HETATM   10  C4  UNL     1      25.032   1.918  53.137  1.00  0.00     0.038 A 
HETATM   11  C5  UNL     1      23.953   1.051  53.082  1.00  0.00     0.066 A 
HETATM   12  C6  UNL     1      23.975  -0.197  53.647  1.00  0.00     0.073 A 
HETATM   13  C8  UNL     1      25.085  -0.652  54.302  1.00  0.00     0.073 A 
HETATM   14  C9  UNL     1      26.205   0.173  54.392  1.00  0.00     0.073 A 
HETATM   15  C11 UNL     1      26.119   1.411  53.805  1.00  0.00     0.066 A 
BRANCH  12  16
HETATM   16  O1  UNL     1      22.844  -0.983  53.535  1.00  0.00    -0.356 OA
HETATM   17  C7  UNL     1      22.119  -1.326  54.675  1.00  0.00     0.210 C 
ENDBRANCH  12  16
BRANCH  14  18
HETATM   18  O2  UNL     1      27.331  -0.289  55.057  1.00  0.00    -0.356 OA
HETATM   19  C10 UNL     1      28.551   0.390  54.824  1.00  0.00     0.210 C 
ENDBRANCH  14  18
ENDBRANCH   8  10
ENDBRANCH   3   8
BRANCH   7  20
HETATM   20  C14 UNL     1      23.021   4.378  48.382  1.00  0.00     0.071 C 
BRANCH  20  21
HETATM   21  C15 UNL     1      22.014   3.620  47.669  1.00  0.00     0.092 C 
BRANCH  21  22
HETATM   22  C16 UNL     1      21.964   3.630  46.357  1.00  0.00     0.170 C 
BRANCH  22  23
HETATM   23  O3  UNL     1      21.964   3.582  44.978  1.00  0.00    -0.365 OA
HETATM   24  C17 UNL     1      20.773   3.914  44.257  1.00  0.00     0.209 C 
ENDBRANCH  22  23
ENDBRANCH  21  22
BRANCH  21  25
HETATM   25  O4  UNL     1      20.938   2.786  47.549  1.00  0.00    -0.354 OA
HETATM   26  C18 UNL     1      19.621   3.026  47.936  1.00  0.00     0.210 C 
ENDBRANCH  21  25
ENDBRANCH  20  21
ENDBRANCH   7  20
TORSDOF 9
ENDMDL
MODEL 2
REMARK VINA RESULT:      -6.5      0.902      3.053
REMARK  9 active torsions:
REMARK  status: ('A' for Active; 'I' for Inactive)
REMARK    1  A    between atoms: C3_3  and  N1_4 
REMARK    2  A    between atoms: N1_4  and  C4_5 
REMARK    3  A    between atoms: C6_7  and  O1_8 
REMARK    4  A    between atoms: C9_11  and  O2_12 
REMARK    5  A    between atoms: C13_18  and  C14_19 
REMARK    6  A    between atoms: C14_19  and  C15_20 
REMARK    7  A    between atoms: C15_20  and  C16_21 
REMARK    8  A    between atoms: C15_20  and  O4_24 
REMARK    9  A    between atoms: C16_21  and  O3_22 
ROOT
HETATM    1  C1  UNL     1      25.033   3.330  49.852  1.00  0.00     0.049 C 
HETATM    2  C2  UNL     1      24.006   3.852  50.505  1.00  0.00     0.017 A 
HETATM    3  C3  UNL     1      23.903   3.796  51.871  1.00  0.00     0.138 A 
HETATM    4  N2  UNL     1      22.806   4.372  52.376  1.00  0.00    -0.224 NA
HETATM    5  C12 UNL     1      21.854   4.967  51.645  1.00  0.00     0.235 A 
HETATM    6  N3  UNL     1      22.003   4.993  50.310  1.00  0.00    -0.241 NA
HETATM    7  C13 UNL     1      23.068   4.445  49.694  1.00  0.00     0.071 A 
ENDROOT
BRANCH   3   8
HETATM    8  N1  UNL     1      24.919   3.164  52.636  1.00  0.00    -0.340 N 
HETATM    9  H3  UNL     1      25.794   3.741  52.817  1.00  0.00     0.167 HD
BRANCH   8  10
HETATM   10  C4  UNL     1      24.945   1.866  53.202  1.00  0.00     0.038 A 
HETATM   11  C5  UNL     1      26.047   1.404  53.903  1.00  0.00     0.066 A 
HETATM   12  C6  UNL     1      26.099   0.153  54.459  1.00  0.00     0.073 A 
HETATM   13  C8  UNL     1      25.047  -0.712  54.347  1.00  0.00     0.073 A 
HETATM   14  C9  UNL     1      23.908  -0.306  53.654  1.00  0.00     0.073 A 
HETATM   15  C11 UNL     1      23.918   0.958  53.120  1.00  0.00     0.066 A 
BRANCH  12  16
HETATM   16  O1  UNL     1      27.247  -0.210  55.139  1.00  0.00    -0.356 OA
HETATM   17  C7  UNL     1      28.495   0.185  54.659  1.00  0.00     0.210 C 
ENDBRANCH  12  16
BRANCH  14  18
HETATM   18  O2  UNL     1      22.839  -1.183  53.539  1.00  0.00    -0.356 OA
HETATM   19  C10 UNL     1      21.978  -1.312  54.654  1.00  0.00     0.210 C 
ENDBRANCH  14  18
ENDBRANCH   8  10
ENDBRANCH   3   8
BRANCH   7  20
HETATM   20  C14 UNL     1      23.218   4.466  48.398  1.00  0.00     0.071 C 
BRANCH  20  21
HETATM   21  C15 UNL     1      22.316   3.664  47.597  1.00  0.00     0.092 C 
BRANCH  21  22
HETATM   22  C16 UNL     1      21.968   2.456  47.976  1.00  0.00     0.170 C 
BRANCH  22  23
HETATM   23  O3  UNL     1      21.565   1.220  48.435  1.00  0.00    -0.365 OA
HETATM   24  C17 UNL     1      21.536   0.961  49.844  1.00  0.00     0.209 C 
ENDBRANCH  22  23
ENDBRANCH  21  22
BRANCH  21  25
HETATM   25  O4  UNL     1      21.505   3.395  46.530  1.00  0.00    -0.354 OA
HETATM   26  C18 UNL     1      21.569   3.937  45.247  1.00  0.00     0.210 C 
ENDBRANCH  21  25
ENDBRANCH  20  21
ENDBRANCH   7  20
TORSDOF 9
ENDMDL
MODEL 3
REMARK VINA RESULT:      -6.5      3.888      8.330
REMARK  9 active torsions:
REMARK  status: ('A' for Active; 'I' for Inactive)
REMARK    1  A    between atoms: C3_3  and  N1_4 
REMARK    2  A    between atoms: N1_4  and  C4_5 
REMARK    3  A    between atoms: C6_7  and  O1_8 
REMARK    4  A    between atoms: C9_11  and  O2_12 
REMARK    5  A    between atoms: C13_18  and  C14_19 
REMARK    6  A    between atoms: C14_19  and  C15_20 
REMARK    7  A    between atoms: C15_20  and  C16_21 
REMARK    8  A    between atoms: C15_20  and  O4_24 
REMARK    9  A    between atoms: C16_21  and  O3_22 
ROOT
HETATM    1  C1  UNL     1      26.183   2.120  50.628  1.00  0.00     0.049 C 
HETATM    2  C2  UNL     1      25.331   2.911  51.261  1.00  0.00     0.017 A 
HETATM    3  C3  UNL     1      24.847   4.064  50.699  1.00  0.00     0.138 A 
HETATM    4  N2  UNL     1      23.993   4.750  51.469  1.00  0.00    -0.224 NA
HETATM    5  C12 UNL     1      23.613   4.379  52.698  1.00  0.00     0.235 A 
HETATM    6  N3  UNL     1      24.116   3.241  53.203  1.00  0.00    -0.241 NA
HETATM    7  C13 UNL     1      24.983   2.472  52.516  1.00  0.00     0.071 A 
ENDROOT
BRANCH   3   8
HETATM    8  N1  UNL     1      25.257   4.447  49.395  1.00  0.00    -0.340 N 
HETATM    9  H3  UNL     1      24.681   4.054  48.590  1.00  0.00     0.167 HD
BRANCH   8  10
HETATM   10  C4  UNL     1      26.330   5.282  48.995  1.00  0.00     0.038 A 
HETATM   11  C5  UNL     1      27.578   4.762  48.694  1.00  0.00     0.066 A 
HETATM   12  C6  UNL     1      28.633   5.546  48.306  1.00  0.00     0.073 A 
HETATM   13  C8  UNL     1      28.498   6.901  48.196  1.00  0.00     0.073 A 
HETATM   14  C9  UNL     1      27.266   7.486  48.485  1.00  0.00     0.073 A 
HETATM   15  C11 UNL     1      26.250   6.646  48.868  1.00  0.00     0.066 A 
BRANCH  12  16
HETATM   16  O1  UNL     1      29.837   4.927  48.028  1.00  0.00    -0.356 OA
HETATM   17  C7  UNL     1      31.032   5.627  48.185  1.00  0.00     0.210 C 
ENDBRANCH  12  16
BRANCH  14  18
HETATM   18  O2  UNL     1      27.129   8.862  48.374  1.00  0.00    -0.356 OA
HETATM   19  C10 UNL     1      26.701   9.569  49.523  1.00  0.00     0.210 C 
ENDBRANCH  14  18
ENDBRANCH   8  10
ENDBRANCH   3   8
BRANCH   7  20
HETATM   20  C14 UNL     1      25.478   1.366  53.001  1.00  0.00     0.071 C 
BRANCH  20  21
HETATM   21  C15 UNL     1      26.746   1.436  53.697  1.00  0.00     0.092 C 
BRANCH  21  22
HETATM   22  C16 UNL     1      27.411   0.345  54.000  1.00  0.00     0.170 C 
BRANCH  22  23
HETATM   23  O3  UNL     1      28.138  -0.763  54.381  1.00  0.00    -0.365 OA
HETATM   24  C17 UNL     1      29.109  -1.317  53.486  1.00  0.00     0.209 C 
ENDBRANCH  22  23
ENDBRANCH  21  22
BRANCH  21  25
HETATM   25  O4  UNL     1      27.798   2.061  54.306  1.00  0.00    -0.354 OA
HETATM   26  C18 UNL     1      28.964   2.546  53.715  1.00  0.00     0.210 C 
ENDBRANCH  21  25
ENDBRANCH  20  21
ENDBRANCH   7  20
TORSDOF 9
ENDMDL
MODEL 4
REMARK VINA RESULT:      -6.5      4.638      8.531
REMARK  9 active torsions:
REMARK  status: ('A' for Active; 'I' for Inactive)
REMARK    1  A    between atoms: C3_3  and  N1_4 
REMARK    2  A    between atoms: N1_4  and  C4_5 
REMARK    3  A    between atoms: C6_7  and  O1_8 
REMARK    4  A    between atoms: C9_11  and  O2_12 
REMARK    5  A    between atoms: C13_18  and  C14_19 
REMARK    6  A    between atoms: C14_19  and  C15_20 
REMARK    7  A    between atoms: C15_20  and  C16_21 
REMARK    8  A    between atoms: C15_20  and  O4_24 
REMARK    9  A    between atoms: C16_21  and  O3_22 
ROOT
HETATM    1  C1  UNL     1      21.848  -0.949  54.951  1.00  0.00     0.049 C 
HETATM    2  C2  UNL     1      21.673  -0.433  53.744  1.00  0.00     0.017 A 
HETATM    3  C3  UNL     1      20.430  -0.290  53.184  1.00  0.00     0.138 A 
HETATM    4  N2  UNL     1      20.424   0.250  51.959  1.00  0.00    -0.224 NA
HETATM    5  C12 UNL     1      21.521   0.634  51.293  1.00  0.00     0.235 A 
HETATM    6  N3  UNL     1      22.714   0.472  51.887  1.00  0.00    -0.241 NA
HETATM    7  C13 UNL     1      22.838  -0.060  53.118  1.00  0.00     0.071 A 
ENDROOT
BRANCH   3   8
HETATM    8  N1  UNL     1      19.275  -0.700  53.900  1.00  0.00    -0.340 N 
HETATM    9  H3  UNL     1      19.228  -0.402  54.921  1.00  0.00     0.167 HD
BRANCH   8  10
HETATM   10  C4  UNL     1      18.160  -1.454  53.458  1.00  0.00     0.038 A 
HETATM   11  C5  UNL     1      18.007  -2.788  53.801  1.00  0.00     0.066 A 
HETATM   12  C6  UNL     1      16.940  -3.541  53.386  1.00  0.00     0.073 A 
HETATM   13  C8  UNL     1      15.960  -3.001  52.602  1.00  0.00     0.073 A 
HETATM   14  C9  UNL     1      16.056  -1.663  52.223  1.00  0.00     0.073 A 
HETATM   15  C11 UNL     1      17.148  -0.963  52.671  1.00  0.00     0.066 A 
BRANCH  12  16
HETATM   16  O1  UNL     1      16.883  -4.864  53.784  1.00  0.00    -0.356 OA
HETATM   17  C7  UNL     1      15.664  -5.425  54.161  1.00  0.00     0.210 C 
ENDBRANCH  12  16
BRANCH  14  18
HETATM   18  O2  UNL     1      15.061  -1.114  51.427  1.00  0.00    -0.356 OA
HETATM   19  C10 UNL     1      14.679  -1.835  50.271  1.00  0.00     0.210 C 
ENDBRANCH  14  18
ENDBRANCH   8  10
ENDBRANCH   3   8
BRANCH   7  20
HETATM   20  C14 UNL     1      23.994  -0.223  53.700  1.00  0.00     0.071 C 
BRANCH  20  21
HETATM   21  C15 UNL     1      25.189  -0.018  52.908  1.00  0.00     0.092 C 
BRANCH  21  22
HETATM   22  C16 UNL     1      26.326  -0.584  53.242  1.00  0.00     0.170 C 
BRANCH  22  23
HETATM   23  O3  UNL     1      27.484  -1.249  53.586  1.00  0.00    -0.365 OA
HETATM   24  C17 UNL     1      28.669  -0.502  53.884  1.00  0.00     0.209 C 
ENDBRANCH  22  23
ENDBRANCH  21  22
BRANCH  21  25
HETATM   25  O4  UNL     1      25.924   0.490  51.874  1.00  0.00    -0.354 OA
HETATM   26  C18 UNL     1      26.491   1.759  51.769  1.00  0.00     0.210 C 
ENDBRANCH  21  25
ENDBRANCH  20  21
ENDBRANCH   7  20
TORSDOF 9
ENDMDL
MODEL 5
REMARK VINA RESULT:      -6.4      3.388      4.895
REMARK  9 active torsions:
REMARK  status: ('A' for Active; 'I' for Inactive)
REMARK    1  A    between atoms: C3_3  and  N1_4 
REMARK    2  A    between atoms: N1_4  and  C4_5 
REMARK    3  A    between atoms: C6_7  and  O1_8 
REMARK    4  A    between atoms: C9_11  and  O2_12 
REMARK    5  A    between atoms: C13_18  and  C14_19 
REMARK    6  A    between atoms: C14_19  and  C15_20 
REMARK    7  A    between atoms: C15_20  and  C16_21 
REMARK    8  A    between atoms: C15_20  and  O4_24 
REMARK    9  A    between atoms: C16_21  and  O3_22 
ROOT
HETATM    1  C1  UNL     1      26.468   3.153  49.648  1.00  0.00     0.049 C 
HETATM    2  C2  UNL     1      25.499   3.784  50.292  1.00  0.00     0.017 A 
HETATM    3  C3  UNL     1      24.675   3.144  51.181  1.00  0.00     0.138 A 
HETATM    4  N2  UNL     1      23.747   3.924  51.750  1.00  0.00    -0.224 NA
HETATM    5  C12 UNL     1      23.597   5.231  51.500  1.00  0.00     0.235 A 
HETATM    6  N3  UNL     1      24.431   5.810  50.621  1.00  0.00    -0.241 NA
HETATM    7  C13 UNL     1      25.401   5.121  49.990  1.00  0.00     0.071 A 
ENDROOT
BRANCH   3   8
HETATM    8  N1  UNL     1      24.844   1.758  51.438  1.00  0.00    -0.340 N 
HETATM    9  H3  UNL     1      24.633   1.104  50.625  1.00  0.00     0.167 HD
BRANCH   8  10
HETATM   10  C4  UNL     1      25.256   1.105  52.625  1.00  0.00     0.038 A 
HETATM   11  C5  UNL     1      26.520   1.303  53.159  1.00  0.00     0.066 A 
HETATM   12  C6  UNL     1      26.945   0.683  54.305  1.00  0.00     0.073 A 
HETATM   13  C8  UNL     1      26.126  -0.173  54.986  1.00  0.00     0.073 A 
HETATM   14  C9  UNL     1      24.842  -0.414  54.501  1.00  0.00     0.073 A 
HETATM   15  C11 UNL     1      24.477   0.237  53.349  1.00  0.00     0.066 A 
BRANCH  12  16
HETATM   16  O1  UNL     1      28.225   0.949  54.752  1.00  0.00    -0.356 OA
HETATM   17  C7  UNL     1      29.317   0.712  53.920  1.00  0.00     0.210 C 
ENDBRANCH  12  16
BRANCH  14  18
HETATM   18  O2  UNL     1      24.011  -1.283  55.192  1.00  0.00    -0.356 OA
HETATM   19  C10 UNL     1      22.625  -1.223  54.911  1.00  0.00     0.210 C 
ENDBRANCH  14  18
ENDBRANCH   8  10
ENDBRANCH   3   8
BRANCH   7  20
HETATM   20  C14 UNL     1      26.214   5.676  49.132  1.00  0.00     0.071 C 
BRANCH  20  21
HETATM   21  C15 UNL     1      26.015   7.076  48.816  1.00  0.00     0.092 C 
BRANCH  21  22
HETATM   22  C16 UNL     1      26.734   8.008  49.397  1.00  0.00     0.170 C 
BRANCH  22  23
HETATM   23  O3  UNL     1      27.492   8.942  50.072  1.00  0.00    -0.365 OA
HETATM   24  C17 UNL     1      28.731   9.390  49.511  1.00  0.00     0.209 C 
ENDBRANCH  22  23
ENDBRANCH  21  22
BRANCH  21  25
HETATM   25  O4  UNL     1      25.438   8.137  48.177  1.00  0.00    -0.354 OA
HETATM   26  C18 UNL     1      24.320   8.871  48.574  1.00  0.00     0.210 C 
ENDBRANCH  21  25
ENDBRANCH  20  21
ENDBRANCH   7  20
TORSDOF 9
ENDMDL
MODEL 6
REMARK VINA RESULT:      -6.4      3.609      8.051
REMARK  9 active torsions:
REMARK  status: ('A' for Active; 'I' for Inactive)
REMARK    1  A    between atoms: C3_3  and  N1_4 
REMARK    2  A    between atoms: N1_4  and  C4_5 
REMARK    3  A    between atoms: C6_7  and  O1_8 
REMARK    4  A    between atoms: C9_11  and  O2_12 
REMARK    5  A    between atoms: C13_18  and  C14_19 
REMARK    6  A    between atoms: C14_19  and  C15_20 
REMARK    7  A    between atoms: C15_20  and  C16_21 
REMARK    8  A    between atoms: C15_20  and  O4_24 
REMARK    9  A    between atoms: C16_21  and  O3_22 
ROOT
HETATM    1  C1  UNL     1      27.236   2.474  51.941  1.00  0.00     0.049 C 
HETATM    2  C2  UNL     1      25.913   2.449  51.902  1.00  0.00     0.017 A 
HETATM    3  C3  UNL     1      25.208   2.819  50.786  1.00  0.00     0.138 A 
HETATM    4  N2  UNL     1      23.877   2.737  50.909  1.00  0.00    -0.224 NA
HETATM    5  C12 UNL     1      23.240   2.331  52.014  1.00  0.00     0.235 A 
HETATM    6  N3  UNL     1      23.978   1.980  53.080  1.00  0.00    -0.241 NA
HETATM    7  C13 UNL     1      25.324   2.024  53.068  1.00  0.00     0.071 A 
ENDROOT
BRANCH   3   8
HETATM    8  N1  UNL     1      25.894   3.247  49.619  1.00  0.00    -0.340 N 
HETATM    9  H3  UNL     1      26.050   2.506  48.871  1.00  0.00     0.167 HD
BRANCH   8  10
HETATM   10  C4  UNL     1      26.411   4.526  49.295  1.00  0.00     0.038 A 
HETATM   11  C5  UNL     1      25.723   5.685  49.611  1.00  0.00     0.066 A 
HETATM   12  C6  UNL     1      26.198   6.934  49.308  1.00  0.00     0.073 A 
HETATM   13  C8  UNL     1      27.395   7.096  48.669  1.00  0.00     0.073 A 
HETATM   14  C9  UNL     1      28.136   5.966  48.324  1.00  0.00     0.073 A 
HETATM   15  C11 UNL     1      27.605   4.745  48.655  1.00  0.00     0.066 A 
BRANCH  12  16
HETATM   16  O1  UNL     1      25.433   8.028  49.668  1.00  0.00    -0.356 OA
HETATM   17  C7  UNL     1      25.866   9.315  49.354  1.00  0.00     0.210 C 
ENDBRANCH  12  16
BRANCH  14  18
HETATM   18  O2  UNL     1      29.351   6.129  47.674  1.00  0.00    -0.356 OA
HETATM   19  C10 UNL     1      30.529   5.941  48.437  1.00  0.00     0.210 C 
ENDBRANCH  14  18
ENDBRANCH   8  10
ENDBRANCH   3   8
BRANCH   7  20
HETATM   20  C14 UNL     1      26.047   1.686  54.101  1.00  0.00     0.071 C 
BRANCH  20  21
HETATM   21  C15 UNL     1      26.150   0.279  54.428  1.00  0.00     0.092 C 
BRANCH  21  22
HETATM   22  C16 UNL     1      27.297  -0.353  54.342  1.00  0.00     0.170 C 
BRANCH  22  23
HETATM   23  O3  UNL     1      28.524  -0.965  54.196  1.00  0.00    -0.365 OA
HETATM   24  C17 UNL     1      29.622  -0.232  53.641  1.00  0.00     0.209 C 
ENDBRANCH  22  23
ENDBRANCH  21  22
BRANCH  21  25
HETATM   25  O4  UNL     1      25.684  -0.941  54.831  1.00  0.00    -0.354 OA
HETATM   26  C18 UNL     1      24.460  -1.237  55.429  1.00  0.00     0.210 C 
ENDBRANCH  21  25
ENDBRANCH  20  21
ENDBRANCH   7  20
TORSDOF 9
ENDMDL
MODEL 7
REMARK VINA RESULT:      -6.3      3.491      4.226
REMARK  9 active torsions:
REMARK  status: ('A' for Active; 'I' for Inactive)
REMARK    1  A    between atoms: C3_3  and  N1_4 
REMARK    2  A    between atoms: N1_4  and  C4_5 
REMARK    3  A    between atoms: C6_7  and  O1_8 
REMARK    4  A    between atoms: C9_11  and  O2_12 
REMARK    5  A    between atoms: C13_18  and  C14_19 
REMARK    6  A    between atoms: C14_19  and  C15_20 
REMARK    7  A    between atoms: C15_20  and  C16_21 
REMARK    8  A    between atoms: C15_20  and  O4_24 
REMARK    9  A    between atoms: C16_21  and  O3_22 
ROOT
HETATM    1  C1  UNL     1      26.476   3.262  49.386  1.00  0.00     0.049 C 
HETATM    2  C2  UNL     1      25.652   4.114  49.976  1.00  0.00     0.017 A 
HETATM    3  C3  UNL     1      24.670   3.703  50.839  1.00  0.00     0.138 A 
HETATM    4  N2  UNL     1      23.923   4.689  51.352  1.00  0.00    -0.224 NA
HETATM    5  C12 UNL     1      24.085   5.988  51.073  1.00  0.00     0.235 A 
HETATM    6  N3  UNL     1      25.061   6.338  50.220  1.00  0.00    -0.241 NA
HETATM    7  C13 UNL     1      25.873   5.429  49.645  1.00  0.00     0.071 A 
ENDROOT
BRANCH   3   8
HETATM    8  N1  UNL     1      24.509   2.322  51.129  1.00  0.00    -0.340 N 
HETATM    9  H3  UNL     1      23.982   1.751  50.401  1.00  0.00     0.167 HD
BRANCH   8  10
HETATM   10  C4  UNL     1      24.948   1.579  52.252  1.00  0.00     0.038 A 
HETATM   11  C5  UNL     1      24.151   0.606  52.832  1.00  0.00     0.066 A 
HETATM   12  C6  UNL     1      24.550  -0.127  53.919  1.00  0.00     0.073 A 
HETATM   13  C8  UNL     1      25.776   0.072  54.490  1.00  0.00     0.073 A 
HETATM   14  C9  UNL     1      26.625   1.038  53.952  1.00  0.00     0.073 A 
HETATM   15  C11 UNL     1      26.167   1.737  52.864  1.00  0.00     0.066 A 
BRANCH  12  16
HETATM   16  O1  UNL     1      23.678  -1.074  54.422  1.00  0.00    -0.356 OA
HETATM   17  C7  UNL     1      22.312  -0.804  54.475  1.00  0.00     0.210 C 
ENDBRANCH  12  16
BRANCH  14  18
HETATM   18  O2  UNL     1      27.869   1.240  54.531  1.00  0.00    -0.356 OA
HETATM   19  C10 UNL     1      28.655   0.096  54.807  1.00  0.00     0.210 C 
ENDBRANCH  14  18
ENDBRANCH   8  10
ENDBRANCH   3   8
BRANCH   7  20
HETATM   20  C14 UNL     1      26.822   5.762  48.813  1.00  0.00     0.071 C 
BRANCH  20  21
HETATM   21  C15 UNL     1      27.240   7.148  48.777  1.00  0.00     0.092 C 
BRANCH  21  22
HETATM   22  C16 UNL     1      27.057   7.880  47.702  1.00  0.00     0.170 C 
BRANCH  22  23
HETATM   23  O3  UNL     1      26.835   8.705  46.620  1.00  0.00    -0.365 OA
HETATM   24  C17 UNL     1      25.639   9.490  46.559  1.00  0.00     0.209 C 
ENDBRANCH  22  23
ENDBRANCH  21  22
BRANCH  21  25
HETATM   25  O4  UNL     1      27.787   8.296  49.277  1.00  0.00    -0.354 OA
HETATM   26  C18 UNL     1      27.208   9.208  50.159  1.00  0.00     0.210 C 
ENDBRANCH  21  25
ENDBRANCH  20  21
ENDBRANCH   7  20
TORSDOF 9
ENDMDL
MODEL 8
REMARK VINA RESULT:      -6.3      4.401      8.385
REMARK  9 active torsions:
REMARK  status: ('A' for Active; 'I' for Inactive)
REMARK    1  A    between atoms: C3_3  and  N1_4 
REMARK    2  A    between atoms: N1_4  and  C4_5 
REMARK    3  A    between atoms: C6_7  and  O1_8 
REMARK    4  A    between atoms: C9_11  and  O2_12 
REMARK    5  A    between atoms: C13_18  and  C14_19 
REMARK    6  A    between atoms: C14_19  and  C15_20 
REMARK    7  A    between atoms: C15_20  and  C16_21 
REMARK    8  A    between atoms: C15_20  and  O4_24 
REMARK    9  A    between atoms: C16_21  and  O3_22 
ROOT
HETATM    1  C1  UNL     1      22.272  -1.228  54.892  1.00  0.00     0.049 C 
HETATM    2  C2  UNL     1      22.115  -0.509  53.791  1.00  0.00     0.017 A 
HETATM    3  C3  UNL     1      20.877  -0.167  53.312  1.00  0.00     0.138 A 
HETATM    4  N2  UNL     1      20.891   0.563  52.190  1.00  0.00    -0.224 NA
HETATM    5  C12 UNL     1      22.001   0.952  51.550  1.00  0.00     0.235 A 
HETATM    6  N3  UNL     1      23.189   0.590  52.061  1.00  0.00    -0.241 NA
HETATM    7  C13 UNL     1      23.293  -0.144  53.186  1.00  0.00     0.071 A 
ENDROOT
BRANCH   3   8
HETATM    8  N1  UNL     1      19.707  -0.584  54.000  1.00  0.00    -0.340 N 
HETATM    9  H3  UNL     1      19.690  -0.395  55.047  1.00  0.00     0.167 HD
BRANCH   8  10
HETATM   10  C4  UNL     1      18.546  -1.222  53.499  1.00  0.00     0.038 A 
HETATM   11  C5  UNL     1      17.686  -0.576  52.625  1.00  0.00     0.066 A 
HETATM   12  C6  UNL     1      16.556  -1.168  52.126  1.00  0.00     0.073 A 
HETATM   13  C8  UNL     1      16.219  -2.446  52.474  1.00  0.00     0.073 A 
HETATM   14  C9  UNL     1      17.044  -3.150  53.350  1.00  0.00     0.073 A 
HETATM   15  C11 UNL     1      18.161  -2.501  53.814  1.00  0.00     0.066 A 
BRANCH  12  16
HETATM   16  O1  UNL     1      15.765  -0.437  51.260  1.00  0.00    -0.356 OA
HETATM   17  C7  UNL     1      14.376  -0.512  51.353  1.00  0.00     0.210 C 
ENDBRANCH  12  16
BRANCH  14  18
HETATM   18  O2  UNL     1      16.703  -4.447  53.703  1.00  0.00    -0.356 OA
HETATM   19  C10 UNL     1      15.552  -5.007  53.098  1.00  0.00     0.210 C 
ENDBRANCH  14  18
ENDBRANCH   8  10
ENDBRANCH   3   8
BRANCH   7  20
HETATM   20  C14 UNL     1      24.444  -0.502  53.687  1.00  0.00     0.071 C 
BRANCH  20  21
HETATM   21  C15 UNL     1      25.637  -0.231  52.911  1.00  0.00     0.092 C 
BRANCH  21  22
HETATM   22  C16 UNL     1      26.810  -0.674  53.300  1.00  0.00     0.170 C 
BRANCH  22  23
HETATM   23  O3  UNL     1      28.009  -1.208  53.725  1.00  0.00    -0.365 OA
HETATM   24  C17 UNL     1      29.195  -0.408  53.687  1.00  0.00     0.209 C 
ENDBRANCH  22  23
ENDBRANCH  21  22
BRANCH  21  25
HETATM   25  O4  UNL     1      26.351   0.286  51.867  1.00  0.00    -0.354 OA
HETATM   26  C18 UNL     1      26.688   1.619  51.637  1.00  0.00     0.210 C 
ENDBRANCH  21  25
ENDBRANCH  20  21
ENDBRANCH   7  20
TORSDOF 9
ENDMDL
MODEL 9
REMARK VINA RESULT:      -6.3      4.671      5.691
REMARK  9 active torsions:
REMARK  status: ('A' for Active; 'I' for Inactive)
REMARK    1  A    between atoms: C3_3  and  N1_4 
REMARK    2  A    between atoms: N1_4  and  C4_5 
REMARK    3  A    between atoms: C6_7  and  O1_8 
REMARK    4  A    between atoms: C9_11  and  O2_12 
REMARK    5  A    between atoms: C13_18  and  C14_19 
REMARK    6  A    between atoms: C14_19  and  C15_20 
REMARK    7  A    between atoms: C15_20  and  C16_21 
REMARK    8  A    between atoms: C15_20  and  O4_24 
REMARK    9  A    between atoms: C16_21  and  O3_22 
ROOT
HETATM    1  C1  UNL     1      28.036   4.762  48.572  1.00  0.00     0.049 C 
HETATM    2  C2  UNL     1      26.878   5.228  49.012  1.00  0.00     0.017 A 
HETATM    3  C3  UNL     1      26.014   4.462  49.750  1.00  0.00     0.138 A 
HETATM    4  N2  UNL     1      24.886   5.082  50.119  1.00  0.00    -0.224 NA
HETATM    5  C12 UNL     1      24.582   6.350  49.815  1.00  0.00     0.235 A 
HETATM    6  N3  UNL     1      25.463   7.058  49.089  1.00  0.00    -0.241 NA
HETATM    7  C13 UNL     1      26.630   6.534  48.664  1.00  0.00     0.071 A 
ENDROOT
BRANCH   3   8
HETATM    8  N1  UNL     1      26.347   3.118  50.067  1.00  0.00    -0.340 N 
HETATM    9  H3  UNL     1      26.782   2.547  49.281  1.00  0.00     0.167 HD
BRANCH   8  10
HETATM   10  C4  UNL     1      26.188   2.413  51.285  1.00  0.00     0.038 A 
HETATM   11  C5  UNL     1      25.009   1.751  51.588  1.00  0.00     0.066 A 
HETATM   12  C6  UNL     1      24.827   1.062  52.759  1.00  0.00     0.073 A 
HETATM   13  C8  UNL     1      25.819   0.995  53.697  1.00  0.00     0.073 A 
HETATM   14  C9  UNL     1      27.030   1.641  53.450  1.00  0.00     0.073 A 
HETATM   15  C11 UNL     1      27.149   2.313  52.260  1.00  0.00     0.066 A 
BRANCH  12  16
HETATM   16  O1  UNL     1      23.612   0.436  52.965  1.00  0.00    -0.356 OA
HETATM   17  C7  UNL     1      23.515  -0.614  53.877  1.00  0.00     0.210 C 
ENDBRANCH  12  16
BRANCH  14  18
HETATM   18  O2  UNL     1      28.037   1.574  54.403  1.00  0.00    -0.356 OA
HETATM   19  C10 UNL     1      28.644   0.314  54.622  1.00  0.00     0.210 C 
ENDBRANCH  14  18
ENDBRANCH   8  10
ENDBRANCH   3   8
BRANCH   7  20
HETATM   20  C14 UNL     1      27.489   7.215  47.957  1.00  0.00     0.071 C 
BRANCH  20  21
HETATM   21  C15 UNL     1      28.208   8.290  48.610  1.00  0.00     0.092 C 
BRANCH  21  22
HETATM   22  C16 UNL     1      29.516   8.257  48.722  1.00  0.00     0.170 C 
BRANCH  22  23
HETATM   23  O3  UNL     1      30.882   8.252  48.912  1.00  0.00    -0.365 OA
HETATM   24  C17 UNL     1      31.534   7.050  49.339  1.00  0.00     0.209 C 
ENDBRANCH  22  23
ENDBRANCH  21  22
BRANCH  21  25
HETATM   25  O4  UNL     1      28.336   9.481  49.268  1.00  0.00    -0.354 OA
HETATM   26  C18 UNL     1      27.903  10.740  48.853  1.00  0.00     0.210 C 
ENDBRANCH  21  25
ENDBRANCH  20  21
ENDBRANCH   7  20
TORSDOF 9
ENDMDL
