MODEL 1
REMARK VINA RESULT:      -7.2      0.000      0.000
REMARK  6 active torsions:
REMARK  status: ('A' for Active; 'I' for Inactive)
REMARK    1  A    between atoms: C2_2  and  C3_3 
REMARK    2  A    between atoms: C2_2  and  C6_7 
REMARK    3  A    between atoms: C3_3  and  N1_4 
REMARK    4  A    between atoms: C9_10  and  O1_11 
REMARK    5  A    between atoms: O1_11  and  C10_12 
REMARK    6  A    between atoms: C10_12  and  C11_13 
ROOT
HETATM    1  C6  UNL     1      25.224   0.420  52.570  1.00  0.00    -0.052 A 
HETATM    2  C7  UNL     1      24.310   1.304  51.984  1.00  0.00     0.010 A 
HETATM    3  C8  UNL     1      22.970   1.281  52.389  1.00  0.00     0.037 A 
HETATM    4  C9  UNL     1      22.523   0.411  53.352  1.00  0.00     0.069 A 
HETATM    5  C17 UNL     1      23.419  -0.486  53.955  1.00  0.00     0.037 A 
HETATM    6  C18 UNL     1      24.756  -0.443  53.532  1.00  0.00     0.010 A 
ENDROOT
BRANCH   4   7
HETATM    7  O1  UNL     1      21.263   0.262  53.851  1.00  0.00    -0.347 OA
BRANCH   7   8
HETATM    8  C10 UNL     1      20.481  -0.883  53.921  1.00  0.00     0.214 C 
BRANCH   8   9
HETATM    9  C11 UNL     1      19.322  -0.683  52.979  1.00  0.00    -0.034 A 
HETATM   10  C12 UNL     1      19.364   0.097  51.842  1.00  0.00     0.009 A 
HETATM   11  C13 UNL     1      18.241   0.223  51.052  1.00  0.00     0.001 A 
HETATM   12  C14 UNL     1      17.064  -0.435  51.396  1.00  0.00     0.000 A 
HETATM   13  C15 UNL     1      17.009  -1.216  52.527  1.00  0.00     0.001 A 
HETATM   14  C16 UNL     1      18.134  -1.345  53.322  1.00  0.00     0.009 A 
ENDBRANCH   8   9
ENDBRANCH   7   8
ENDBRANCH   4   7
BRANCH   1  15
HETATM   15  C2  UNL     1      26.643   0.468  52.107  1.00  0.00     0.043 C 
HETATM   16  C1  UNL     1      27.068   1.873  51.946  1.00  0.00     0.016 C 
BRANCH  15  17
HETATM   17  C3  UNL     1      27.513  -0.474  52.843  1.00  0.00     0.280 C 
BRANCH  17  18
HETATM   18  N1  UNL     1      28.688   0.007  53.472  1.00  0.00     0.080 N 
HETATM   19  C4  UNL     1      28.383   0.187  54.919  1.00  0.00     0.309 C 
HETATM   20  C5  UNL     1      29.714  -1.042  53.490  1.00  0.00     0.309 C 
ENDBRANCH  17  18
ENDBRANCH  15  17
ENDBRANCH   1  15
TORSDOF 6
ENDMDL
MODEL 2
REMARK VINA RESULT:      -7.0      0.974      1.761
REMARK  6 active torsions:
REMARK  status: ('A' for Active; 'I' for Inactive)
REMARK    1  A    between atoms: C2_2  and  C3_3 
REMARK    2  A    between atoms: C2_2  and  C6_7 
REMARK    3  A    between atoms: C3_3  and  N1_4 
REMARK    4  A    between atoms: C9_10  and  O1_11 
REMARK    5  A    between atoms: O1_11  and  C10_12 
REMARK    6  A    between atoms: C10_12  and  C11_13 
ROOT
HETATM    1  C6  UNL     1      25.119  -0.127  53.171  1.00  0.00    -0.052 A 
HETATM    2  C7  UNL     1      24.642   0.880  52.324  1.00  0.00     0.010 A 
HETATM    3  C8  UNL     1      23.278   1.196  52.326  1.00  0.00     0.037 A 
HETATM    4  C9  UNL     1      22.388   0.541  53.140  1.00  0.00     0.069 A 
HETATM    5  C17 UNL     1      22.842  -0.474  53.999  1.00  0.00     0.037 A 
HETATM    6  C18 UNL     1      24.212  -0.771  53.979  1.00  0.00     0.010 A 
ENDROOT
BRANCH   4   7
HETATM    7  O1  UNL     1      21.042   0.724  53.259  1.00  0.00    -0.347 OA
BRANCH   7   8
HETATM    8  C10 UNL     1      20.057  -0.206  53.558  1.00  0.00     0.214 C 
BRANCH   8   9
HETATM    9  C11 UNL     1      19.046  -0.152  52.442  1.00  0.00    -0.034 A 
HETATM   10  C12 UNL     1      17.805  -0.755  52.484  1.00  0.00     0.009 A 
HETATM   11  C13 UNL     1      16.955  -0.655  51.403  1.00  0.00     0.001 A 
HETATM   12  C14 UNL     1      17.344   0.053  50.268  1.00  0.00     0.000 A 
HETATM   13  C15 UNL     1      18.578   0.658  50.215  1.00  0.00     0.001 A 
HETATM   14  C16 UNL     1      19.433   0.559  51.298  1.00  0.00     0.009 A 
ENDBRANCH   8   9
ENDBRANCH   7   8
ENDBRANCH   4   7
BRANCH   1  15
HETATM   15  C2  UNL     1      26.579  -0.441  53.135  1.00  0.00     0.043 C 
HETATM   16  C1  UNL     1      26.794  -1.738  52.462  1.00  0.00     0.016 C 
BRANCH  15  17
HETATM   17  C3  UNL     1      27.401   0.724  52.745  1.00  0.00     0.280 C 
BRANCH  17  18
HETATM   18  N1  UNL     1      28.625   0.971  53.415  1.00  0.00     0.080 N 
HETATM   19  C4  UNL     1      28.708   2.435  53.676  1.00  0.00     0.309 C 
HETATM   20  C5  UNL     1      28.581   0.407  54.769  1.00  0.00     0.309 C 
ENDBRANCH  17  18
ENDBRANCH  15  17
ENDBRANCH   1  15
TORSDOF 6
ENDMDL
MODEL 3
REMARK VINA RESULT:      -6.9      4.158      8.275
REMARK  6 active torsions:
REMARK  status: ('A' for Active; 'I' for Inactive)
REMARK    1  A    between atoms: C2_2  and  C3_3 
REMARK    2  A    between atoms: C2_2  and  C6_7 
REMARK    3  A    between atoms: C3_3  and  N1_4 
REMARK    4  A    between atoms: C9_10  and  O1_11 
REMARK    5  A    between atoms: O1_11  and  C10_12 
REMARK    6  A    between atoms: C10_12  and  C11_13 
ROOT
HETATM    1  C6  UNL     1      24.936   0.712  52.429  1.00  0.00    -0.052 A 
HETATM    2  C7  UNL     1      23.976   1.606  51.940  1.00  0.00     0.010 A 
HETATM    3  C8  UNL     1      24.386   2.729  51.210  1.00  0.00     0.037 A 
HETATM    4  C9  UNL     1      25.712   2.980  50.959  1.00  0.00     0.069 A 
HETATM    5  C17 UNL     1      26.694   2.098  51.438  1.00  0.00     0.037 A 
HETATM    6  C18 UNL     1      26.258   0.981  52.166  1.00  0.00     0.010 A 
ENDROOT
BRANCH   4   7
HETATM    7  O1  UNL     1      26.271   4.018  50.274  1.00  0.00    -0.347 OA
BRANCH   7   8
HETATM    8  C10 UNL     1      25.711   4.814  49.285  1.00  0.00     0.214 C 
BRANCH   8   9
HETATM    9  C11 UNL     1      26.833   5.610  48.670  1.00  0.00    -0.034 A 
HETATM   10  C12 UNL     1      26.700   6.889  48.171  1.00  0.00     0.009 A 
HETATM   11  C13 UNL     1      27.790   7.528  47.617  1.00  0.00     0.001 A 
HETATM   12  C14 UNL     1      29.025   6.887  47.560  1.00  0.00     0.000 A 
HETATM   13  C15 UNL     1      29.169   5.612  48.056  1.00  0.00     0.001 A 
HETATM   14  C16 UNL     1      28.079   4.968  48.612  1.00  0.00     0.009 A 
ENDBRANCH   8   9
ENDBRANCH   7   8
ENDBRANCH   4   7
BRANCH   1  15
HETATM   15  C2  UNL     1      24.461  -0.469  53.209  1.00  0.00     0.043 C 
HETATM   16  C1  UNL     1      25.180  -0.539  54.498  1.00  0.00     0.016 C 
BRANCH  15  17
HETATM   17  C3  UNL     1      22.989  -0.607  53.192  1.00  0.00     0.280 C 
BRANCH  17  18
HETATM   18  N1  UNL     1      22.271  -0.584  54.413  1.00  0.00     0.080 N 
HETATM   19  C4  UNL     1      21.111   0.334  54.236  1.00  0.00     0.309 C 
HETATM   20  C5  UNL     1      21.620  -1.880  54.639  1.00  0.00     0.309 C 
ENDBRANCH  17  18
ENDBRANCH  15  17
ENDBRANCH   1  15
TORSDOF 6
ENDMDL
MODEL 4
REMARK VINA RESULT:      -6.8      2.802      8.300
REMARK  6 active torsions:
REMARK  status: ('A' for Active; 'I' for Inactive)
REMARK    1  A    between atoms: C2_2  and  C3_3 
REMARK    2  A    between atoms: C2_2  and  C6_7 
REMARK    3  A    between atoms: C3_3  and  N1_4 
REMARK    4  A    between atoms: C9_10  and  O1_11 
REMARK    5  A    between atoms: O1_11  and  C10_12 
REMARK    6  A    between atoms: C10_12  and  C11_13 
ROOT
HETATM    1  C6  UNL     1      21.548   0.652  52.752  1.00  0.00    -0.052 A 
HETATM    2  C7  UNL     1      21.685  -0.399  53.667  1.00  0.00     0.010 A 
HETATM    3  C8  UNL     1      22.964  -0.861  54.000  1.00  0.00     0.037 A 
HETATM    4  C9  UNL     1      24.095  -0.310  53.452  1.00  0.00     0.069 A 
HETATM    5  C17 UNL     1      23.984   0.745  52.532  1.00  0.00     0.037 A 
HETATM    6  C18 UNL     1      22.692   1.190  52.215  1.00  0.00     0.010 A 
ENDROOT
BRANCH   4   7
HETATM    7  O1  UNL     1      25.400  -0.643  53.667  1.00  0.00    -0.347 OA
BRANCH   7   8
HETATM    8  C10 UNL     1      26.274  -1.330  52.837  1.00  0.00     0.214 C 
BRANCH   8   9
HETATM    9  C11 UNL     1      27.660  -0.818  53.134  1.00  0.00    -0.034 A 
HETATM   10  C12 UNL     1      28.770  -1.621  53.295  1.00  0.00     0.009 A 
HETATM   11  C13 UNL     1      29.994  -1.053  53.577  1.00  0.00     0.001 A 
HETATM   12  C14 UNL     1      30.115   0.328  53.700  1.00  0.00     0.000 A 
HETATM   13  C15 UNL     1      29.015   1.139  53.542  1.00  0.00     0.001 A 
HETATM   14  C16 UNL     1      27.785   0.573  53.259  1.00  0.00     0.009 A 
ENDBRANCH   8   9
ENDBRANCH   7   8
ENDBRANCH   4   7
BRANCH   1  15
HETATM   15  C2  UNL     1      20.167   1.112  52.415  1.00  0.00     0.043 C 
HETATM   16  C1  UNL     1      20.110   2.588  52.450  1.00  0.00     0.016 C 
BRANCH  15  17
HETATM   17  C3  UNL     1      19.595   0.392  51.257  1.00  0.00     0.280 C 
BRANCH  17  18
HETATM   18  N1  UNL     1      18.302  -0.179  51.359  1.00  0.00     0.080 N 
HETATM   19  C4  UNL     1      18.156  -0.719  52.740  1.00  0.00     0.309 C 
HETATM   20  C5  UNL     1      17.282   0.875  51.318  1.00  0.00     0.309 C 
ENDBRANCH  17  18
ENDBRANCH  15  17
ENDBRANCH   1  15
TORSDOF 6
ENDMDL
MODEL 5
REMARK VINA RESULT:      -6.8      5.149      7.781
REMARK  6 active torsions:
REMARK  status: ('A' for Active; 'I' for Inactive)
REMARK    1  A    between atoms: C2_2  and  C3_3 
REMARK    2  A    between atoms: C2_2  and  C6_7 
REMARK    3  A    between atoms: C3_3  and  N1_4 
REMARK    4  A    between atoms: C9_10  and  O1_11 
REMARK    5  A    between atoms: O1_11  and  C10_12 
REMARK    6  A    between atoms: C10_12  and  C11_13 
ROOT
HETATM    1  C6  UNL     1      27.169   6.116  48.577  1.00  0.00    -0.052 A 
HETATM    2  C7  UNL     1      25.974   6.468  49.216  1.00  0.00     0.010 A 
HETATM    3  C8  UNL     1      25.244   5.491  49.903  1.00  0.00     0.037 A 
HETATM    4  C9  UNL     1      25.669   4.188  49.969  1.00  0.00     0.069 A 
HETATM    5  C17 UNL     1      26.864   3.809  49.337  1.00  0.00     0.037 A 
HETATM    6  C18 UNL     1      27.577   4.806  48.656  1.00  0.00     0.010 A 
ENDROOT
BRANCH   4   7
HETATM    7  O1  UNL     1      25.079   3.126  50.588  1.00  0.00    -0.347 OA
BRANCH   7   8
HETATM    8  C10 UNL     1      24.751   2.968  51.927  1.00  0.00     0.214 C 
BRANCH   8   9
HETATM    9  C11 UNL     1      25.132   1.562  52.313  1.00  0.00    -0.034 A 
HETATM   10  C12 UNL     1      24.340   0.717  53.064  1.00  0.00     0.009 A 
HETATM   11  C13 UNL     1      24.788  -0.550  53.373  1.00  0.00     0.001 A 
HETATM   12  C14 UNL     1      26.035  -0.981  52.930  1.00  0.00     0.000 A 
HETATM   13  C15 UNL     1      26.832  -0.148  52.180  1.00  0.00     0.001 A 
HETATM   14  C16 UNL     1      26.387   1.124  51.868  1.00  0.00     0.009 A 
ENDBRANCH   8   9
ENDBRANCH   7   8
ENDBRANCH   4   7
BRANCH   1  15
HETATM   15  C2  UNL     1      27.916   7.184  47.848  1.00  0.00     0.043 C 
HETATM   16  C1  UNL     1      26.983   7.964  47.011  1.00  0.00     0.016 C 
BRANCH  15  17
HETATM   17  C3  UNL     1      28.882   7.894  48.714  1.00  0.00     0.280 C 
BRANCH  17  18
HETATM   18  N1  UNL     1      30.254   7.914  48.361  1.00  0.00     0.080 N 
HETATM   19  C4  UNL     1      30.937   8.883  49.262  1.00  0.00     0.309 C 
HETATM   20  C5  UNL     1      30.886   6.640  48.723  1.00  0.00     0.309 C 
ENDBRANCH  17  18
ENDBRANCH  15  17
ENDBRANCH   1  15
TORSDOF 6
ENDMDL
MODEL 6
REMARK VINA RESULT:      -6.7      2.985      7.993
REMARK  6 active torsions:
REMARK  status: ('A' for Active; 'I' for Inactive)
REMARK    1  A    between atoms: C2_2  and  C3_3 
REMARK    2  A    between atoms: C2_2  and  C6_7 
REMARK    3  A    between atoms: C3_3  and  N1_4 
REMARK    4  A    between atoms: C9_10  and  O1_11 
REMARK    5  A    between atoms: O1_11  and  C10_12 
REMARK    6  A    between atoms: C10_12  and  C11_13 
ROOT
HETATM    1  C6  UNL     1      22.266   1.178  51.315  1.00  0.00    -0.052 A 
HETATM    2  C7  UNL     1      23.313   1.987  50.858  1.00  0.00     0.010 A 
HETATM    3  C8  UNL     1      24.517   2.025  51.571  1.00  0.00     0.037 A 
HETATM    4  C9  UNL     1      24.702   1.287  52.713  1.00  0.00     0.069 A 
HETATM    5  C17 UNL     1      23.668   0.468  53.192  1.00  0.00     0.037 A 
HETATM    6  C18 UNL     1      22.471   0.447  52.460  1.00  0.00     0.010 A 
ENDROOT
BRANCH   4   7
HETATM    7  O1  UNL     1      25.802   1.216  53.516  1.00  0.00    -0.347 OA
BRANCH   7   8
HETATM    8  C10 UNL     1      27.140   1.363  53.180  1.00  0.00     0.214 C 
BRANCH   8   9
HETATM    9  C11 UNL     1      27.740  -0.019  53.141  1.00  0.00    -0.034 A 
HETATM   10  C12 UNL     1      27.076  -1.147  52.702  1.00  0.00     0.009 A 
HETATM   11  C13 UNL     1      27.713  -2.369  52.718  1.00  0.00     0.001 A 
HETATM   12  C14 UNL     1      29.024  -2.472  53.176  1.00  0.00     0.000 A 
HETATM   13  C15 UNL     1      29.696  -1.355  53.616  1.00  0.00     0.001 A 
HETATM   14  C16 UNL     1      29.060  -0.126  53.602  1.00  0.00     0.009 A 
ENDBRANCH   8   9
ENDBRANCH   7   8
ENDBRANCH   4   7
BRANCH   1  15
HETATM   15  C2  UNL     1      20.993   1.169  50.533  1.00  0.00     0.043 C 
HETATM   16  C1  UNL     1      21.292   1.017  49.094  1.00  0.00     0.016 C 
BRANCH  15  17
HETATM   17  C3  UNL     1      19.952   0.321  51.152  1.00  0.00     0.280 C 
BRANCH  17  18
HETATM   18  N1  UNL     1      18.662   0.859  51.389  1.00  0.00     0.080 N 
HETATM   19  C4  UNL     1      18.779   2.343  51.344  1.00  0.00     0.309 C 
HETATM   20  C5  UNL     1      17.781   0.573  50.251  1.00  0.00     0.309 C 
ENDBRANCH  17  18
ENDBRANCH  15  17
ENDBRANCH   1  15
TORSDOF 6
ENDMDL
MODEL 7
REMARK VINA RESULT:      -6.5      4.724      8.037
REMARK  6 active torsions:
REMARK  status: ('A' for Active; 'I' for Inactive)
REMARK    1  A    between atoms: C2_2  and  C3_3 
REMARK    2  A    between atoms: C2_2  and  C6_7 
REMARK    3  A    between atoms: C3_3  and  N1_4 
REMARK    4  A    between atoms: C9_10  and  O1_11 
REMARK    5  A    between atoms: O1_11  and  C10_12 
REMARK    6  A    between atoms: C10_12  and  C11_13 
ROOT
HETATM    1  C6  UNL     1      25.226   4.189  50.236  1.00  0.00    -0.052 A 
HETATM    2  C7  UNL     1      24.114   3.679  50.918  1.00  0.00     0.010 A 
HETATM    3  C8  UNL     1      24.211   2.445  51.571  1.00  0.00     0.037 A 
HETATM    4  C9  UNL     1      25.373   1.715  51.563  1.00  0.00     0.069 A 
HETATM    5  C17 UNL     1      26.502   2.204  50.887  1.00  0.00     0.037 A 
HETATM    6  C18 UNL     1      26.379   3.442  50.240  1.00  0.00     0.010 A 
ENDROOT
BRANCH   4   7
HETATM    7  O1  UNL     1      25.628   0.507  52.143  1.00  0.00    -0.347 OA
BRANCH   7   8
HETATM    8  C10 UNL     1      25.957   0.223  53.460  1.00  0.00     0.214 C 
BRANCH   8   9
HETATM    9  C11 UNL     1      27.383  -0.265  53.465  1.00  0.00    -0.034 A 
HETATM   10  C12 UNL     1      27.767  -1.556  53.167  1.00  0.00     0.009 A 
HETATM   11  C13 UNL     1      29.100  -1.904  53.211  1.00  0.00     0.001 A 
HETATM   12  C14 UNL     1      30.062  -0.958  53.555  1.00  0.00     0.000 A 
HETATM   13  C15 UNL     1      29.690   0.332  53.854  1.00  0.00     0.001 A 
HETATM   14  C16 UNL     1      28.354   0.686  53.810  1.00  0.00     0.009 A 
ENDBRANCH   8   9
ENDBRANCH   7   8
ENDBRANCH   4   7
BRANCH   1  15
HETATM   15  C2  UNL     1      25.082   5.504  49.543  1.00  0.00     0.043 C 
HETATM   16  C1  UNL     1      23.978   5.435  48.564  1.00  0.00     0.016 C 
BRANCH  15  17
HETATM   17  C3  UNL     1      25.153   6.648  50.478  1.00  0.00     0.280 C 
BRANCH  17  18
HETATM   18  N1  UNL     1      26.066   7.702  50.223  1.00  0.00     0.080 N 
HETATM   19  C4  UNL     1      26.902   7.302  49.056  1.00  0.00     0.309 C 
HETATM   20  C5  UNL     1      25.349   8.877  49.714  1.00  0.00     0.309 C 
ENDBRANCH  17  18
ENDBRANCH  15  17
ENDBRANCH   1  15
TORSDOF 6
ENDMDL
MODEL 8
REMARK VINA RESULT:      -6.5      5.406      8.114
REMARK  6 active torsions:
REMARK  status: ('A' for Active; 'I' for Inactive)
REMARK    1  A    between atoms: C2_2  and  C3_3 
REMARK    2  A    between atoms: C2_2  and  C6_7 
REMARK    3  A    between atoms: C3_3  and  N1_4 
REMARK    4  A    between atoms: C9_10  and  O1_11 
REMARK    5  A    between atoms: O1_11  and  C10_12 
REMARK    6  A    between atoms: C10_12  and  C11_13 
ROOT
HETATM    1  C6  UNL     1      26.992   6.070  48.708  1.00  0.00    -0.052 A 
HETATM    2  C7  UNL     1      27.536   4.780  48.701  1.00  0.00     0.010 A 
HETATM    3  C8  UNL     1      26.835   3.733  49.312  1.00  0.00     0.037 A 
HETATM    4  C9  UNL     1      25.622   3.935  49.920  1.00  0.00     0.069 A 
HETATM    5  C17 UNL     1      25.056   5.220  49.941  1.00  0.00     0.037 A 
HETATM    6  C18 UNL     1      25.777   6.252  49.323  1.00  0.00     0.010 A 
ENDROOT
BRANCH   4   7
HETATM    7  O1  UNL     1      24.822   3.032  50.555  1.00  0.00    -0.347 OA
BRANCH   7   8
HETATM    8  C10 UNL     1      24.622   2.848  51.916  1.00  0.00     0.214 C 
BRANCH   8   9
HETATM    9  C11 UNL     1      25.185   1.495  52.267  1.00  0.00    -0.034 A 
HETATM   10  C12 UNL     1      26.405   1.020  51.828  1.00  0.00     0.009 A 
HETATM   11  C13 UNL     1      26.824  -0.240  52.199  1.00  0.00     0.001 A 
HETATM   12  C14 UNL     1      26.024  -1.036  53.014  1.00  0.00     0.000 A 
HETATM   13  C15 UNL     1      24.807  -0.572  53.457  1.00  0.00     0.001 A 
HETATM   14  C16 UNL     1      24.382   0.691  53.088  1.00  0.00     0.009 A 
ENDBRANCH   8   9
ENDBRANCH   7   8
ENDBRANCH   4   7
BRANCH   1  15
HETATM   15  C2  UNL     1      27.772   7.164  48.055  1.00  0.00     0.043 C 
HETATM   16  C1  UNL     1      29.061   6.634  47.565  1.00  0.00     0.016 C 
BRANCH  15  17
HETATM   17  C3  UNL     1      26.942   7.996  47.158  1.00  0.00     0.280 C 
BRANCH  17  18
HETATM   18  N1  UNL     1      26.782   9.377  47.435  1.00  0.00     0.080 N 
HETATM   19  C4  UNL     1      25.339   9.615  47.719  1.00  0.00     0.309 C 
HETATM   20  C5  UNL     1      27.419   9.710  48.714  1.00  0.00     0.309 C 
ENDBRANCH  17  18
ENDBRANCH  15  17
ENDBRANCH   1  15
TORSDOF 6
ENDMDL
MODEL 9
REMARK VINA RESULT:      -6.5      4.259      6.146
REMARK  6 active torsions:
REMARK  status: ('A' for Active; 'I' for Inactive)
REMARK    1  A    between atoms: C2_2  and  C3_3 
REMARK    2  A    between atoms: C2_2  and  C6_7 
REMARK    3  A    between atoms: C3_3  and  N1_4 
REMARK    4  A    between atoms: C9_10  and  O1_11 
REMARK    5  A    between atoms: O1_11  and  C10_12 
REMARK    6  A    between atoms: C10_12  and  C11_13 
ROOT
HETATM    1  C6  UNL     1      26.307   4.976  49.285  1.00  0.00    -0.052 A 
HETATM    2  C7  UNL     1      25.066   5.303  49.846  1.00  0.00     0.010 A 
HETATM    3  C8  UNL     1      24.336   4.323  50.528  1.00  0.00     0.037 A 
HETATM    4  C9  UNL     1      24.805   3.040  50.665  1.00  0.00     0.069 A 
HETATM    5  C17 UNL     1      26.046   2.686  50.112  1.00  0.00     0.037 A 
HETATM    6  C18 UNL     1      26.758   3.686  49.434  1.00  0.00     0.010 A 
ENDROOT
BRANCH   4   7
HETATM    7  O1  UNL     1      24.221   1.978  51.291  1.00  0.00    -0.347 OA
BRANCH   7   8
HETATM    8  C10 UNL     1      24.759   1.121  52.240  1.00  0.00     0.214 C 
BRANCH   8   9
HETATM    9  C11 UNL     1      23.608   0.578  53.047  1.00  0.00    -0.034 A 
HETATM   10  C12 UNL     1      22.321   1.071  53.001  1.00  0.00     0.009 A 
HETATM   11  C13 UNL     1      21.340   0.509  53.790  1.00  0.00     0.001 A 
HETATM   12  C14 UNL     1      21.644  -0.556  54.634  1.00  0.00     0.000 A 
HETATM   13  C15 UNL     1      22.924  -1.056  54.689  1.00  0.00     0.001 A 
HETATM   14  C16 UNL     1      23.911  -0.495  53.898  1.00  0.00     0.009 A 
ENDBRANCH   8   9
ENDBRANCH   7   8
ENDBRANCH   4   7
BRANCH   1  15
HETATM   15  C2  UNL     1      27.053   6.046  48.558  1.00  0.00     0.043 C 
HETATM   16  C1  UNL     1      26.733   7.364  49.144  1.00  0.00     0.016 C 
BRANCH  15  17
HETATM   17  C3  UNL     1      28.465   5.685  48.310  1.00  0.00     0.280 C 
BRANCH  17  18
HETATM   18  N1  UNL     1      29.466   6.686  48.389  1.00  0.00     0.080 N 
HETATM   19  C4  UNL     1      30.757   6.008  48.691  1.00  0.00     0.309 C 
HETATM   20  C5  UNL     1      29.709   7.260  47.061  1.00  0.00     0.309 C 
ENDBRANCH  17  18
ENDBRANCH  15  17
ENDBRANCH   1  15
TORSDOF 6
ENDMDL
