MODEL 1
REMARK VINA RESULT:      -7.5      0.000      0.000
REMARK  8 active torsions:
REMARK  status: ('A' for Active; 'I' for Inactive)
REMARK    1  A    between atoms: C2_2  and  C3_3 
REMARK    2  A    between atoms: C3_3  and  C4_4 
REMARK    3  A    between atoms: C4_4  and  C5_5 
REMARK    4  A    between atoms: C5_5  and  C6_6 
REMARK       I    between atoms: C6_6  and  N1_8 
REMARK    5  A    between atoms: N1_8  and  C7_9 
REMARK    6  A    between atoms: C10_12  and  N2_13 
REMARK    7  A    between atoms: N2_13  and  C11_14 
REMARK    8  A    between atoms: C14_18  and  C15_19 
ROOT
HETATM    1  N2  UNL     1      22.905   3.078  52.236  1.00  0.00    -0.192 N 
HETATM    2  H15 UNL     1      22.298   3.767  52.749  1.00  0.00     0.184 HD
ENDROOT
BRANCH   1   3
HETATM    3  C10 UNL     1      23.516   3.564  51.042  1.00  0.00     0.032 A 
HETATM    4  C9  UNL     1      23.184   3.149  49.828  1.00  0.00     0.028 A 
HETATM    5  C8  UNL     1      24.042   3.893  48.906  1.00  0.00     0.027 A 
HETATM    6  C7  UNL     1      24.851   4.715  49.546  1.00  0.00     0.017 A 
HETATM    7  C19 UNL     1      24.593   4.586  50.998  1.00  0.00     0.114 A 
BRANCH   6   8
HETATM    8  N1  UNL     1      25.823   5.597  49.009  1.00  0.00    -0.330 N 
HETATM    9  C6  UNL     1      27.135   5.221  48.716  1.00  0.00     0.221 C 
HETATM   10  O1  UNL     1      27.574   4.059  48.904  1.00  0.00    -0.273 OA
HETATM   11  H12 UNL     1      25.624   6.597  48.793  1.00  0.00     0.168 HD
BRANCH   9  12
HETATM   12  C5  UNL     1      28.160   6.190  48.138  1.00  0.00     0.103 C 
BRANCH  12  13
HETATM   13  C4  UNL     1      29.532   5.775  48.490  1.00  0.00     0.009 C 
BRANCH  13  14
HETATM   14  C3  UNL     1      30.550   5.728  47.430  1.00  0.00     0.000 C 
BRANCH  14  15
HETATM   15  C2  UNL     1      31.795   4.943  47.661  1.00  0.00    -0.005 C 
HETATM   16  C1  UNL     1      31.885   3.666  46.875  1.00  0.00     0.005 C 
ENDBRANCH  14  15
ENDBRANCH  13  14
ENDBRANCH  12  13
ENDBRANCH   9  12
ENDBRANCH   6   8
ENDBRANCH   1   3
BRANCH   1  17
HETATM   17  C11 UNL     1      23.098   1.750  52.706  1.00  0.00     0.727 A 
HETATM   18  N3  UNL     1      22.008   0.959  52.799  1.00  0.00    -0.075 NA
HETATM   19  C12 UNL     1      22.165  -0.321  53.248  1.00  0.00     0.139 A 
HETATM   20  C13 UNL     1      23.450  -0.698  53.571  1.00  0.00     0.053 A 
HETATM   21  C14 UNL     1      24.565   0.123  53.473  1.00  0.00     0.085 A 
HETATM   22  N4  UNL     1      24.337   1.363  53.026  1.00  0.00    -0.062 NA
BRANCH  21  23
HETATM   23  C15 UNL     1      25.897  -0.337  53.834  1.00  0.00    -0.003 C 
HETATM   24  C16 UNL     1      26.407  -1.293  53.072  1.00  0.00     0.144 C 
HETATM   25  O2  UNL     1      27.690  -1.809  53.336  1.00  0.00    -0.358 OA
HETATM   26  C17 UNL     1      28.834  -0.940  53.323  1.00  0.00     0.205 C 
HETATM   27  P1  UNL     1      28.376   0.565  54.313  1.00  0.00    -0.099 P 
HETATM   28  C18 UNL     1      26.656   0.210  54.984  1.00  0.00     0.076 C 
HETATM   29  H21 UNL     1      28.244   1.684  53.372  1.00  0.00     0.060 HD
ENDBRANCH  21  23
ENDBRANCH   1  17
TORSDOF 8
ENDMDL
MODEL 2
REMARK VINA RESULT:      -7.3      1.650      2.051
REMARK  8 active torsions:
REMARK  status: ('A' for Active; 'I' for Inactive)
REMARK    1  A    between atoms: C2_2  and  C3_3 
REMARK    2  A    between atoms: C3_3  and  C4_4 
REMARK    3  A    between atoms: C4_4  and  C5_5 
REMARK    4  A    between atoms: C5_5  and  C6_6 
REMARK       I    between atoms: C6_6  and  N1_8 
REMARK    5  A    between atoms: N1_8  and  C7_9 
REMARK    6  A    between atoms: C10_12  and  N2_13 
REMARK    7  A    between atoms: N2_13  and  C11_14 
REMARK    8  A    between atoms: C14_18  and  C15_19 
ROOT
HETATM    1  N2  UNL     1      22.328   2.495  51.871  1.00  0.00    -0.192 N 
HETATM    2  H15 UNL     1      21.348   2.873  51.811  1.00  0.00     0.184 HD
ENDROOT
BRANCH   1   3
HETATM    3  C10 UNL     1      23.320   3.244  51.170  1.00  0.00     0.032 A 
HETATM    4  C9  UNL     1      23.856   2.853  50.022  1.00  0.00     0.028 A 
HETATM    5  C8  UNL     1      24.815   3.897  49.657  1.00  0.00     0.027 A 
HETATM    6  C7  UNL     1      24.848   4.866  50.552  1.00  0.00     0.017 A 
HETATM    7  C19 UNL     1      23.881   4.541  51.626  1.00  0.00     0.114 A 
BRANCH   6   8
HETATM    8  N1  UNL     1      25.640   6.041  50.556  1.00  0.00    -0.330 N 
HETATM    9  C6  UNL     1      25.253   7.241  49.956  1.00  0.00     0.221 C 
HETATM   10  O1  UNL     1      24.159   7.385  49.355  1.00  0.00    -0.273 OA
HETATM   11  H12 UNL     1      26.577   6.093  51.010  1.00  0.00     0.168 HD
BRANCH   9  12
HETATM   12  C5  UNL     1      26.124   8.490  49.975  1.00  0.00     0.103 C 
BRANCH  12  13
HETATM   13  C4  UNL     1      27.441   8.223  49.364  1.00  0.00     0.009 C 
BRANCH  13  14
HETATM   14  C3  UNL     1      27.492   7.533  48.066  1.00  0.00     0.000 C 
BRANCH  14  15
HETATM   15  C2  UNL     1      28.552   6.513  47.834  1.00  0.00    -0.005 C 
HETATM   16  C1  UNL     1      28.265   5.164  48.431  1.00  0.00     0.005 C 
ENDBRANCH  14  15
ENDBRANCH  13  14
ENDBRANCH  12  13
ENDBRANCH   9  12
ENDBRANCH   6   8
ENDBRANCH   1   3
BRANCH   1  17
HETATM   17  C11 UNL     1      22.635   1.315  52.601  1.00  0.00     0.727 A 
HETATM   18  N3  UNL     1      21.602   0.541  52.995  1.00  0.00    -0.075 NA
HETATM   19  C12 UNL     1      21.869  -0.599  53.698  1.00  0.00     0.139 A 
HETATM   20  C13 UNL     1      23.198  -0.862  53.947  1.00  0.00     0.053 A 
HETATM   21  C14 UNL     1      24.255  -0.059  53.538  1.00  0.00     0.085 A 
HETATM   22  N4  UNL     1      23.919   1.041  52.854  1.00  0.00    -0.062 NA
BRANCH  21  23
HETATM   23  C15 UNL     1      25.639  -0.393  53.836  1.00  0.00    -0.003 C 
HETATM   24  C16 UNL     1      26.195  -1.310  53.058  1.00  0.00     0.144 C 
HETATM   25  O2  UNL     1      27.531  -1.705  53.263  1.00  0.00    -0.358 OA
HETATM   26  C17 UNL     1      28.589  -0.737  53.184  1.00  0.00     0.205 C 
HETATM   27  P1  UNL     1      28.047   0.734  54.182  1.00  0.00    -0.099 P 
HETATM   28  C18 UNL     1      26.401   0.236  54.942  1.00  0.00     0.076 C 
HETATM   29  H21 UNL     1      27.769   1.824  53.238  1.00  0.00     0.060 HD
ENDBRANCH  21  23
ENDBRANCH   1  17
TORSDOF 8
ENDMDL
MODEL 3
REMARK VINA RESULT:      -7.1      4.703      7.120
REMARK  8 active torsions:
REMARK  status: ('A' for Active; 'I' for Inactive)
REMARK    1  A    between atoms: C2_2  and  C3_3 
REMARK    2  A    between atoms: C3_3  and  C4_4 
REMARK    3  A    between atoms: C4_4  and  C5_5 
REMARK    4  A    between atoms: C5_5  and  C6_6 
REMARK       I    between atoms: C6_6  and  N1_8 
REMARK    5  A    between atoms: N1_8  and  C7_9 
REMARK    6  A    between atoms: C10_12  and  N2_13 
REMARK    7  A    between atoms: N2_13  and  C11_14 
REMARK    8  A    between atoms: C14_18  and  C15_19 
ROOT
HETATM    1  N2  UNL     1      20.791  -0.580  54.631  1.00  0.00    -0.192 N 
HETATM    2  H15 UNL     1      20.364  -0.877  55.545  1.00  0.00     0.184 HD
ENDROOT
BRANCH   1   3
HETATM    3  C10 UNL     1      22.213  -0.672  54.556  1.00  0.00     0.032 A 
HETATM    4  C9  UNL     1      22.949  -1.351  55.424  1.00  0.00     0.028 A 
HETATM    5  C8  UNL     1      24.335  -1.185  54.984  1.00  0.00     0.027 A 
HETATM    6  C7  UNL     1      24.418  -0.437  53.900  1.00  0.00     0.017 A 
HETATM    7  C19 UNL     1      23.049  -0.027  53.511  1.00  0.00     0.114 A 
BRANCH   6   8
HETATM    8  N1  UNL     1      25.575  -0.050  53.179  1.00  0.00    -0.330 N 
HETATM    9  C6  UNL     1      26.549   0.816  53.680  1.00  0.00     0.221 C 
HETATM   10  O1  UNL     1      26.485   1.333  54.823  1.00  0.00    -0.273 OA
HETATM   11  H12 UNL     1      25.782  -0.387  52.215  1.00  0.00     0.168 HD
BRANCH   9  12
HETATM   12  C5  UNL     1      27.784   1.216  52.882  1.00  0.00     0.103 C 
BRANCH  12  13
HETATM   13  C4  UNL     1      29.007   1.065  53.696  1.00  0.00     0.009 C 
BRANCH  13  14
HETATM   14  C3  UNL     1      29.968   0.011  53.341  1.00  0.00     0.000 C 
BRANCH  14  15
HETATM   15  C2  UNL     1      29.804  -1.343  53.937  1.00  0.00    -0.005 C 
HETATM   16  C1  UNL     1      28.971  -2.290  53.120  1.00  0.00     0.005 C 
ENDBRANCH  14  15
ENDBRANCH  13  14
ENDBRANCH  12  13
ENDBRANCH   9  12
ENDBRANCH   6   8
ENDBRANCH   1   3
BRANCH   1  17
HETATM   17  C11 UNL     1      19.998  -0.116  53.546  1.00  0.00     0.727 A 
HETATM   18  N3  UNL     1      18.991  -0.912  53.128  1.00  0.00    -0.075 NA
HETATM   19  C12 UNL     1      18.212  -0.491  52.088  1.00  0.00     0.139 A 
HETATM   20  C13 UNL     1      18.531   0.736  51.549  1.00  0.00     0.053 A 
HETATM   21  C14 UNL     1      19.570   1.548  51.986  1.00  0.00     0.085 A 
HETATM   22  N4  UNL     1      20.290   1.072  53.007  1.00  0.00    -0.062 NA
BRANCH  21  23
HETATM   23  C15 UNL     1      19.856   2.835  51.369  1.00  0.00    -0.003 C 
HETATM   24  C16 UNL     1      20.663   3.636  52.047  1.00  0.00     0.144 C 
HETATM   25  O2  UNL     1      21.004   4.904  51.537  1.00  0.00    -0.358 OA
HETATM   26  C17 UNL     1      21.664   5.017  50.267  1.00  0.00     0.205 C 
HETATM   27  P1  UNL     1      20.742   3.920  49.084  1.00  0.00    -0.099 P 
HETATM   28  C18 UNL     1      19.286   3.249  50.064  1.00  0.00     0.076 C 
HETATM   29  H21 UNL     1      21.613   2.778  48.778  1.00  0.00     0.060 HD
ENDBRANCH  21  23
ENDBRANCH   1  17
TORSDOF 8
ENDMDL
MODEL 4
REMARK VINA RESULT:      -7.1      2.034      3.023
REMARK  8 active torsions:
REMARK  status: ('A' for Active; 'I' for Inactive)
REMARK    1  A    between atoms: C2_2  and  C3_3 
REMARK    2  A    between atoms: C3_3  and  C4_4 
REMARK    3  A    between atoms: C4_4  and  C5_5 
REMARK    4  A    between atoms: C5_5  and  C6_6 
REMARK       I    between atoms: C6_6  and  N1_8 
REMARK    5  A    between atoms: N1_8  and  C7_9 
REMARK    6  A    between atoms: C10_12  and  N2_13 
REMARK    7  A    between atoms: N2_13  and  C11_14 
REMARK    8  A    between atoms: C14_18  and  C15_19 
ROOT
HETATM    1  N2  UNL     1      25.612   3.493  49.436  1.00  0.00    -0.192 N 
HETATM    2  H15 UNL     1      25.265   2.935  48.614  1.00  0.00     0.184 HD
ENDROOT
BRANCH   1   3
HETATM    3  C10 UNL     1      26.358   4.666  49.114  1.00  0.00     0.032 A 
HETATM    4  C9  UNL     1      25.893   5.897  49.276  1.00  0.00     0.028 A 
HETATM    5  C8  UNL     1      26.965   6.787  48.830  1.00  0.00     0.027 A 
HETATM    6  C7  UNL     1      28.022   6.113  48.418  1.00  0.00     0.017 A 
HETATM    7  C19 UNL     1      27.736   4.667  48.561  1.00  0.00     0.114 A 
BRANCH   6   8
HETATM    8  N1  UNL     1      29.249   6.613  47.916  1.00  0.00    -0.330 N 
HETATM    9  C6  UNL     1      30.501   6.217  48.390  1.00  0.00     0.221 C 
HETATM   10  O1  UNL     1      30.651   5.376  49.311  1.00  0.00    -0.273 OA
HETATM   11  H12 UNL     1      29.304   7.318  47.150  1.00  0.00     0.168 HD
BRANCH   9  12
HETATM   12  C5  UNL     1      31.806   6.769  47.831  1.00  0.00     0.103 C 
BRANCH  12  13
HETATM   13  C4  UNL     1      31.996   6.353  46.427  1.00  0.00     0.009 C 
BRANCH  13  14
HETATM   14  C3  UNL     1      33.053   5.380  46.114  1.00  0.00     0.000 C 
BRANCH  14  15
HETATM   15  C2  UNL     1      32.667   3.992  45.739  1.00  0.00    -0.005 C 
HETATM   16  C1  UNL     1      32.288   3.112  46.897  1.00  0.00     0.005 C 
ENDBRANCH  14  15
ENDBRANCH  13  14
ENDBRANCH  12  13
ENDBRANCH   9  12
ENDBRANCH   6   8
ENDBRANCH   1   3
BRANCH   1  17
HETATM   17  C11 UNL     1      25.353   3.096  50.776  1.00  0.00     0.727 A 
HETATM   18  N3  UNL     1      24.387   3.761  51.445  1.00  0.00    -0.075 NA
HETATM   19  C12 UNL     1      24.117   3.400  52.735  1.00  0.00     0.139 A 
HETATM   20  C13 UNL     1      24.871   2.366  53.246  1.00  0.00     0.053 A 
HETATM   21  C14 UNL     1      25.863   1.688  52.549  1.00  0.00     0.085 A 
HETATM   22  N4  UNL     1      26.072   2.095  51.293  1.00  0.00    -0.062 NA
BRANCH  21  23
HETATM   23  C15 UNL     1      26.625   0.605  53.151  1.00  0.00    -0.003 C 
HETATM   24  C16 UNL     1      26.736  -0.499  52.426  1.00  0.00     0.144 C 
HETATM   25  O2  UNL     1      27.454  -1.606  52.917  1.00  0.00    -0.358 OA
HETATM   26  C17 UNL     1      28.843  -1.473  53.254  1.00  0.00     0.205 C 
HETATM   27  P1  UNL     1      29.003   0.076  54.269  1.00  0.00    -0.099 P 
HETATM   28  C18 UNL     1      27.245   0.703  54.494  1.00  0.00     0.076 C 
HETATM   29  H21 UNL     1      29.708   1.067  53.447  1.00  0.00     0.060 HD
ENDBRANCH  21  23
ENDBRANCH   1  17
TORSDOF 8
ENDMDL
MODEL 5
REMARK VINA RESULT:      -6.9      1.699      2.043
REMARK  8 active torsions:
REMARK  status: ('A' for Active; 'I' for Inactive)
REMARK    1  A    between atoms: C2_2  and  C3_3 
REMARK    2  A    between atoms: C3_3  and  C4_4 
REMARK    3  A    between atoms: C4_4  and  C5_5 
REMARK    4  A    between atoms: C5_5  and  C6_6 
REMARK       I    between atoms: C6_6  and  N1_8 
REMARK    5  A    between atoms: N1_8  and  C7_9 
REMARK    6  A    between atoms: C10_12  and  N2_13 
REMARK    7  A    between atoms: N2_13  and  C11_14 
REMARK    8  A    between atoms: C14_18  and  C15_19 
ROOT
HETATM    1  N2  UNL     1      23.368   3.521  50.286  1.00  0.00    -0.192 N 
HETATM    2  H15 UNL     1      22.472   3.532  49.733  1.00  0.00     0.184 HD
ENDROOT
BRANCH   1   3
HETATM    3  C10 UNL     1      24.217   4.653  50.107  1.00  0.00     0.032 A 
HETATM    4  C9  UNL     1      24.132   5.755  50.840  1.00  0.00     0.028 A 
HETATM    5  C8  UNL     1      25.173   6.650  50.331  1.00  0.00     0.027 A 
HETATM    6  C7  UNL     1      25.846   6.102  49.337  1.00  0.00     0.017 A 
HETATM    7  C19 UNL     1      25.294   4.750  49.089  1.00  0.00     0.114 A 
BRANCH   6   8
HETATM    8  N1  UNL     1      26.919   6.648  48.588  1.00  0.00    -0.330 N 
HETATM    9  C6  UNL     1      28.120   5.978  48.351  1.00  0.00     0.221 C 
HETATM   10  O1  UNL     1      28.358   4.823  48.783  1.00  0.00    -0.273 OA
HETATM   11  H12 UNL     1      26.886   7.597  48.159  1.00  0.00     0.168 HD
BRANCH   9  12
HETATM   12  C5  UNL     1      29.258   6.588  47.542  1.00  0.00     0.103 C 
BRANCH  12  13
HETATM   13  C4  UNL     1      30.567   6.148  48.061  1.00  0.00     0.009 C 
BRANCH  13  14
HETATM   14  C3  UNL     1      31.538   5.559  47.126  1.00  0.00     0.000 C 
BRANCH  14  15
HETATM   15  C2  UNL     1      31.663   4.077  47.057  1.00  0.00    -0.005 C 
HETATM   16  C1  UNL     1      32.874   3.517  47.750  1.00  0.00     0.005 C 
ENDBRANCH  14  15
ENDBRANCH  13  14
ENDBRANCH  12  13
ENDBRANCH   9  12
ENDBRANCH   6   8
ENDBRANCH   1   3
BRANCH   1  17
HETATM   17  C11 UNL     1      23.702   2.444  51.151  1.00  0.00     0.727 A 
HETATM   18  N3  UNL     1      22.694   1.660  51.588  1.00  0.00    -0.075 NA
HETATM   19  C12 UNL     1      22.987   0.618  52.420  1.00  0.00     0.139 A 
HETATM   20  C13 UNL     1      24.316   0.457  52.746  1.00  0.00     0.053 A 
HETATM   21  C14 UNL     1      25.348   1.269  52.292  1.00  0.00     0.085 A 
HETATM   22  N4  UNL     1      24.986   2.269  51.481  1.00  0.00    -0.062 NA
BRANCH  21  23
HETATM   23  C15 UNL     1      26.733   1.045  52.677  1.00  0.00    -0.003 C 
HETATM   24  C16 UNL     1      27.526   2.105  52.632  1.00  0.00     0.144 C 
HETATM   25  O2  UNL     1      28.885   1.995  52.986  1.00  0.00    -0.358 OA
HETATM   26  C17 UNL     1      29.254   1.549  54.300  1.00  0.00     0.205 C 
HETATM   27  P1  UNL     1      28.227   0.044  54.665  1.00  0.00    -0.099 P 
HETATM   28  C18 UNL     1      27.251  -0.282  53.091  1.00  0.00     0.076 C 
HETATM   29  H21 UNL     1      27.255   0.418  55.700  1.00  0.00     0.060 HD
ENDBRANCH  21  23
ENDBRANCH   1  17
TORSDOF 8
ENDMDL
MODEL 6
REMARK VINA RESULT:      -6.9      2.982      3.852
REMARK  8 active torsions:
REMARK  status: ('A' for Active; 'I' for Inactive)
REMARK    1  A    between atoms: C2_2  and  C3_3 
REMARK    2  A    between atoms: C3_3  and  C4_4 
REMARK    3  A    between atoms: C4_4  and  C5_5 
REMARK    4  A    between atoms: C5_5  and  C6_6 
REMARK       I    between atoms: C6_6  and  N1_8 
REMARK    5  A    between atoms: N1_8  and  C7_9 
REMARK    6  A    between atoms: C10_12  and  N2_13 
REMARK    7  A    between atoms: N2_13  and  C11_14 
REMARK    8  A    between atoms: C14_18  and  C15_19 
ROOT
HETATM    1  N2  UNL     1      25.440   3.001  49.684  1.00  0.00    -0.192 N 
HETATM    2  H15 UNL     1      25.105   2.347  48.930  1.00  0.00     0.184 HD
ENDROOT
BRANCH   1   3
HETATM    3  C10 UNL     1      25.948   4.255  49.231  1.00  0.00     0.032 A 
HETATM    4  C9  UNL     1      25.187   5.320  49.021  1.00  0.00     0.028 A 
HETATM    5  C8  UNL     1      26.097   6.374  48.569  1.00  0.00     0.027 A 
HETATM    6  C7  UNL     1      27.346   5.951  48.512  1.00  0.00     0.017 A 
HETATM    7  C19 UNL     1      27.377   4.532  48.936  1.00  0.00     0.114 A 
BRANCH   6   8
HETATM    8  N1  UNL     1      28.506   6.668  48.125  1.00  0.00    -0.330 N 
HETATM    9  C6  UNL     1      28.827   7.940  48.600  1.00  0.00     0.221 C 
HETATM   10  O1  UNL     1      28.111   8.567  49.420  1.00  0.00    -0.273 OA
HETATM   11  H12 UNL     1      29.206   6.291  47.451  1.00  0.00     0.168 HD
BRANCH   9  12
HETATM   12  C5  UNL     1      30.082   8.689  48.167  1.00  0.00     0.103 C 
BRANCH  12  13
HETATM   13  C4  UNL     1      29.859  10.148  48.191  1.00  0.00     0.009 C 
BRANCH  13  14
HETATM   14  C3  UNL     1      30.616  10.964  49.151  1.00  0.00     0.000 C 
BRANCH  14  15
HETATM   15  C2  UNL     1      30.741  12.428  48.911  1.00  0.00    -0.005 C 
HETATM   16  C1  UNL     1      29.514  13.075  48.331  1.00  0.00     0.005 C 
ENDBRANCH  14  15
ENDBRANCH  13  14
ENDBRANCH  12  13
ENDBRANCH   9  12
ENDBRANCH   6   8
ENDBRANCH   1   3
BRANCH   1  17
HETATM   17  C11 UNL     1      25.387   2.650  51.060  1.00  0.00     0.727 A 
HETATM   18  N3  UNL     1      24.549   3.354  51.849  1.00  0.00    -0.075 NA
HETATM   19  C12 UNL     1      24.478   3.037  53.176  1.00  0.00     0.139 A 
HETATM   20  C13 UNL     1      25.287   2.005  53.598  1.00  0.00     0.053 A 
HETATM   21  C14 UNL     1      26.147   1.287  52.778  1.00  0.00     0.085 A 
HETATM   22  N4  UNL     1      26.164   1.651  51.491  1.00  0.00    -0.062 NA
BRANCH  21  23
HETATM   23  C15 UNL     1      26.979   0.207  53.289  1.00  0.00    -0.003 C 
HETATM   24  C16 UNL     1      26.801  -0.978  52.725  1.00  0.00     0.144 C 
HETATM   25  O2  UNL     1      27.556  -2.089  53.146  1.00  0.00    -0.358 OA
HETATM   26  C17 UNL     1      28.989  -2.063  53.059  1.00  0.00     0.205 C 
HETATM   27  P1  UNL     1      29.539  -0.432  53.762  1.00  0.00    -0.099 P 
HETATM   28  C18 UNL     1      27.967   0.395  54.378  1.00  0.00     0.076 C 
HETATM   29  H21 UNL     1      30.038   0.379  52.644  1.00  0.00     0.060 HD
ENDBRANCH  21  23
ENDBRANCH   1  17
TORSDOF 8
ENDMDL
MODEL 7
REMARK VINA RESULT:      -6.8      3.258      8.597
REMARK  8 active torsions:
REMARK  status: ('A' for Active; 'I' for Inactive)
REMARK    1  A    between atoms: C2_2  and  C3_3 
REMARK    2  A    between atoms: C3_3  and  C4_4 
REMARK    3  A    between atoms: C4_4  and  C5_5 
REMARK    4  A    between atoms: C5_5  and  C6_6 
REMARK       I    between atoms: C6_6  and  N1_8 
REMARK    5  A    between atoms: N1_8  and  C7_9 
REMARK    6  A    between atoms: C10_12  and  N2_13 
REMARK    7  A    between atoms: N2_13  and  C11_14 
REMARK    8  A    between atoms: C14_18  and  C15_19 
ROOT
HETATM    1  N2  UNL     1      25.866   6.412  48.566  1.00  0.00    -0.192 N 
HETATM    2  H15 UNL     1      25.136   6.600  47.832  1.00  0.00     0.184 HD
ENDROOT
BRANCH   1   3
HETATM    3  C10 UNL     1      25.819   5.119  49.166  1.00  0.00     0.032 A 
HETATM    4  C9  UNL     1      26.858   4.296  49.214  1.00  0.00     0.028 A 
HETATM    5  C8  UNL     1      26.381   3.097  49.904  1.00  0.00     0.027 A 
HETATM    6  C7  UNL     1      25.112   3.202  50.250  1.00  0.00     0.017 A 
HETATM    7  C19 UNL     1      24.617   4.526  49.806  1.00  0.00     0.114 A 
BRANCH   6   8
HETATM    8  N1  UNL     1      24.299   2.260  50.927  1.00  0.00    -0.330 N 
HETATM    9  C6  UNL     1      24.005   2.326  52.290  1.00  0.00     0.221 C 
HETATM   10  O1  UNL     1      24.439   3.233  53.043  1.00  0.00    -0.273 OA
HETATM   11  H12 UNL     1      23.859   1.444  50.451  1.00  0.00     0.168 HD
BRANCH   9  12
HETATM   12  C5  UNL     1      23.126   1.299  52.994  1.00  0.00     0.103 C 
BRANCH  12  13
HETATM   13  C4  UNL     1      23.778  -0.025  53.015  1.00  0.00     0.009 C 
BRANCH  13  14
HETATM   14  C3  UNL     1      25.176  -0.119  53.458  1.00  0.00     0.000 C 
BRANCH  14  15
HETATM   15  C2  UNL     1      26.231  -0.428  52.454  1.00  0.00    -0.005 C 
HETATM   16  C1  UNL     1      27.332  -1.319  52.955  1.00  0.00     0.005 C 
ENDBRANCH  14  15
ENDBRANCH  13  14
ENDBRANCH  12  13
ENDBRANCH   9  12
ENDBRANCH   6   8
ENDBRANCH   1   3
BRANCH   1  17
HETATM   17  C11 UNL     1      26.830   7.390  48.934  1.00  0.00     0.727 A 
HETATM   18  N3  UNL     1      26.436   8.366  49.778  1.00  0.00    -0.075 NA
HETATM   19  C12 UNL     1      27.343   9.318  50.148  1.00  0.00     0.139 A 
HETATM   20  C13 UNL     1      28.607   9.192  49.614  1.00  0.00     0.053 A 
HETATM   21  C14 UNL     1      29.003   8.184  48.745  1.00  0.00     0.085 A 
HETATM   22  N4  UNL     1      28.063   7.287  48.427  1.00  0.00    -0.062 NA
BRANCH  21  23
HETATM   23  C15 UNL     1      30.356   8.110  48.214  1.00  0.00    -0.003 C 
HETATM   24  C16 UNL     1      31.334   8.305  49.087  1.00  0.00     0.144 C 
HETATM   25  O2  UNL     1      32.679   8.253  48.675  1.00  0.00    -0.358 OA
HETATM   26  C17 UNL     1      33.206   7.058  48.079  1.00  0.00     0.205 C 
HETATM   27  P1  UNL     1      31.975   6.508  46.800  1.00  0.00    -0.099 P 
HETATM   28  C18 UNL     1      30.649   7.840  46.785  1.00  0.00     0.076 C 
HETATM   29  H21 UNL     1      31.343   5.281  47.301  1.00  0.00     0.060 HD
ENDBRANCH  21  23
ENDBRANCH   1  17
TORSDOF 8
ENDMDL
MODEL 8
REMARK VINA RESULT:      -6.8      2.396      3.210
REMARK  8 active torsions:
REMARK  status: ('A' for Active; 'I' for Inactive)
REMARK    1  A    between atoms: C2_2  and  C3_3 
REMARK    2  A    between atoms: C3_3  and  C4_4 
REMARK    3  A    between atoms: C4_4  and  C5_5 
REMARK    4  A    between atoms: C5_5  and  C6_6 
REMARK       I    between atoms: C6_6  and  N1_8 
REMARK    5  A    between atoms: N1_8  and  C7_9 
REMARK    6  A    between atoms: C10_12  and  N2_13 
REMARK    7  A    between atoms: N2_13  and  C11_14 
REMARK    8  A    between atoms: C14_18  and  C15_19 
ROOT
HETATM    1  N2  UNL     1      23.786   5.985  52.408  1.00  0.00    -0.192 N 
HETATM    2  H15 UNL     1      23.995   6.443  53.332  1.00  0.00     0.184 HD
ENDROOT
BRANCH   1   3
HETATM    3  C10 UNL     1      24.096   6.760  51.251  1.00  0.00     0.032 A 
HETATM    4  C9  UNL     1      23.303   7.708  50.772  1.00  0.00     0.028 A 
HETATM    5  C8  UNL     1      23.991   8.242  49.596  1.00  0.00     0.027 A 
HETATM    6  C7  UNL     1      25.144   7.636  49.385  1.00  0.00     0.017 A 
HETATM    7  C19 UNL     1      25.330   6.612  50.439  1.00  0.00     0.114 A 
BRANCH   6   8
HETATM    8  N1  UNL     1      26.091   7.868  48.356  1.00  0.00    -0.330 N 
HETATM    9  C6  UNL     1      27.223   8.669  48.509  1.00  0.00     0.221 C 
HETATM   10  O1  UNL     1      27.505   9.261  49.581  1.00  0.00    -0.273 OA
HETATM   11  H12 UNL     1      26.007   7.452  47.404  1.00  0.00     0.168 HD
BRANCH   9  12
HETATM   12  C5  UNL     1      28.226   8.901  47.386  1.00  0.00     0.103 C 
BRANCH  12  13
HETATM   13  C4  UNL     1      28.618   7.624  46.758  1.00  0.00     0.009 C 
BRANCH  13  14
HETATM   14  C3  UNL     1      29.833   6.945  47.232  1.00  0.00     0.000 C 
BRANCH  14  15
HETATM   15  C2  UNL     1      29.712   5.918  48.304  1.00  0.00    -0.005 C 
HETATM   16  C1  UNL     1      28.387   5.211  48.348  1.00  0.00     0.005 C 
ENDBRANCH  14  15
ENDBRANCH  13  14
ENDBRANCH  12  13
ENDBRANCH   9  12
ENDBRANCH   6   8
ENDBRANCH   1   3
BRANCH   1  17
HETATM   17  C11 UNL     1      23.230   4.680  52.326  1.00  0.00     0.727 A 
HETATM   18  N3  UNL     1      21.895   4.583  52.156  1.00  0.00    -0.075 NA
HETATM   19  C12 UNL     1      21.333   3.340  52.074  1.00  0.00     0.139 A 
HETATM   20  C13 UNL     1      22.201   2.275  52.174  1.00  0.00     0.053 A 
HETATM   21  C14 UNL     1      23.574   2.384  52.349  1.00  0.00     0.085 A 
HETATM   22  N4  UNL     1      24.053   3.631  52.421  1.00  0.00    -0.062 NA
BRANCH  21  23
HETATM   23  C15 UNL     1      24.435   1.215  52.450  1.00  0.00    -0.003 C 
HETATM   24  C16 UNL     1      25.584   1.283  51.794  1.00  0.00     0.144 C 
HETATM   25  O2  UNL     1      26.489   0.206  51.828  1.00  0.00    -0.358 OA
HETATM   26  C17 UNL     1      27.024  -0.249  53.081  1.00  0.00     0.205 C 
HETATM   27  P1  UNL     1      25.591  -0.395  54.255  1.00  0.00    -0.099 P 
HETATM   28  C18 UNL     1      24.068   0.008  53.228  1.00  0.00     0.076 C 
HETATM   29  H21 UNL     1      25.730   0.676  55.250  1.00  0.00     0.060 HD
ENDBRANCH  21  23
ENDBRANCH   1  17
TORSDOF 8
ENDMDL
MODEL 9
REMARK VINA RESULT:      -6.7      3.577      7.253
REMARK  8 active torsions:
REMARK  status: ('A' for Active; 'I' for Inactive)
REMARK    1  A    between atoms: C2_2  and  C3_3 
REMARK    2  A    between atoms: C3_3  and  C4_4 
REMARK    3  A    between atoms: C4_4  and  C5_5 
REMARK    4  A    between atoms: C5_5  and  C6_6 
REMARK       I    between atoms: C6_6  and  N1_8 
REMARK    5  A    between atoms: N1_8  and  C7_9 
REMARK    6  A    between atoms: C10_12  and  N2_13 
REMARK    7  A    between atoms: N2_13  and  C11_14 
REMARK    8  A    between atoms: C14_18  and  C15_19 
ROOT
HETATM    1  N2  UNL     1      23.851  -1.103  54.047  1.00  0.00    -0.192 N 
HETATM    2  H15 UNL     1      23.952  -1.971  54.634  1.00  0.00     0.184 HD
ENDROOT
BRANCH   1   3
HETATM    3  C10 UNL     1      22.522  -0.603  53.908  1.00  0.00     0.032 A 
HETATM    4  C9  UNL     1      21.645  -0.569  54.902  1.00  0.00     0.028 A 
HETATM    5  C8  UNL     1      20.426   0.008  54.335  1.00  0.00     0.027 A 
HETATM    6  C7  UNL     1      20.572   0.303  53.058  1.00  0.00     0.017 A 
HETATM    7  C19 UNL     1      21.948  -0.064  52.649  1.00  0.00     0.114 A 
BRANCH   6   8
HETATM    8  N1  UNL     1      19.628   0.872  52.167  1.00  0.00    -0.330 N 
HETATM    9  C6  UNL     1      19.426   2.245  52.023  1.00  0.00     0.221 C 
HETATM   10  O1  UNL     1      20.068   3.105  52.675  1.00  0.00    -0.273 OA
HETATM   11  H12 UNL     1      19.011   0.299  51.552  1.00  0.00     0.168 HD
BRANCH   9  12
HETATM   12  C5  UNL     1      18.403   2.831  51.056  1.00  0.00     0.103 C 
BRANCH  12  13
HETATM   13  C4  UNL     1      19.066   3.374  49.855  1.00  0.00     0.009 C 
BRANCH  13  14
HETATM   14  C3  UNL     1      19.359   2.467  48.736  1.00  0.00     0.000 C 
BRANCH  14  15
HETATM   15  C2  UNL     1      20.778   2.224  48.357  1.00  0.00    -0.005 C 
HETATM   16  C1  UNL     1      21.406   1.027  49.014  1.00  0.00     0.005 C 
ENDBRANCH  14  15
ENDBRANCH  13  14
ENDBRANCH  12  13
ENDBRANCH   9  12
ENDBRANCH   6   8
ENDBRANCH   1   3
BRANCH   1  17
HETATM   17  C11 UNL     1      24.971  -0.476  53.436  1.00  0.00     0.727 A 
HETATM   18  N3  UNL     1      26.157  -1.115  53.508  1.00  0.00    -0.075 NA
HETATM   19  C12 UNL     1      27.250  -0.535  52.928  1.00  0.00     0.139 A 
HETATM   20  C13 UNL     1      27.036   0.677  52.308  1.00  0.00     0.053 A 
HETATM   21  C14 UNL     1      25.811   1.327  52.239  1.00  0.00     0.085 A 
HETATM   22  N4  UNL     1      24.787   0.701  52.828  1.00  0.00    -0.062 NA
BRANCH  21  23
HETATM   23  C15 UNL     1      25.654   2.609  51.569  1.00  0.00    -0.003 C 
HETATM   24  C16 UNL     1      26.616   2.943  50.721  1.00  0.00     0.144 C 
HETATM   25  O2  UNL     1      26.559   4.162  50.021  1.00  0.00    -0.358 OA
HETATM   26  C17 UNL     1      25.450   4.446  49.154  1.00  0.00     0.205 C 
HETATM   27  P1  UNL     1      23.908   4.012  50.097  1.00  0.00    -0.099 P 
HETATM   28  C18 UNL     1      24.500   3.509  51.808  1.00  0.00     0.076 C 
HETATM   29  H21 UNL     1      23.337   2.812  49.473  1.00  0.00     0.060 HD
ENDBRANCH  21  23
ENDBRANCH   1  17
TORSDOF 8
ENDMDL
