MODEL 1
REMARK VINA RESULT:      -6.9      0.000      0.000
REMARK  4 active torsions:
REMARK  status: ('A' for Active; 'I' for Inactive)
REMARK    1  A    between atoms: C2_2  and  C3_3 
REMARK    2  A    between atoms: C3_3  and  C4_4 
REMARK    3  A    between atoms: C4_4  and  N1_5 
REMARK    4  A    between atoms: C13_18  and  C14_19 
ROOT
HETATM    1  C14 UNL     1      22.656   0.237  54.045  1.00  0.00     0.149 C 
HETATM    2  C15 UNL     1      22.145  -1.013  54.563  1.00  0.00     0.061 C 
HETATM    3  N6  UNL     1      21.751  -2.027  54.988  1.00  0.00    -0.197 NA
ENDROOT
BRANCH   1   4
HETATM    4  C13 UNL     1      23.062   0.375  52.633  1.00  0.00     0.104 C 
HETATM    5  N1  UNL     1      24.507   0.652  52.817  1.00  0.00    -0.390 N 
HETATM    6  C5  UNL     1      25.009   1.858  53.157  1.00  0.00     0.260 C 
HETATM    7  N2  UNL     1      24.592   3.153  52.841  1.00  0.00    -0.297 N 
HETATM    8  N3  UNL     1      23.708   4.175  52.912  1.00  0.00    -0.195 NA
HETATM    9  H12 UNL     1      25.308   3.659  52.221  1.00  0.00     0.184 HD
HETATM   10  C6  UNL     1      23.103   4.685  51.915  1.00  0.00     0.114 C 
HETATM   11  C7  UNL     1      23.367   4.130  50.537  1.00  0.00     0.097 C 
HETATM   12  C8  UNL     1      22.697   2.792  50.417  1.00  0.00     0.254 C 
HETATM   13  N4  UNL     1      22.451   1.604  49.733  1.00  0.00     0.358 N 
HETATM   14  C11 UNL     1      21.802   2.463  51.608  1.00  0.00     0.048 A 
HETATM   15  C9  UNL     1      21.505   0.875  50.636  1.00  0.00     0.352 C 
HETATM   16  N5  UNL     1      21.014   0.455  51.819  1.00  0.00    -0.276 NA
HETATM   17  C12 UNL     1      22.630   1.221  51.598  1.00  0.00     0.105 A 
HETATM   18  C10 UNL     1      21.248   1.780  52.587  1.00  0.00     0.129 A 
BRANCH   5  19
HETATM   19  C4  UNL     1      25.148  -0.498  53.441  1.00  0.00     0.119 C 
BRANCH  19  20
HETATM   20  C3  UNL     1      26.570  -0.223  53.849  1.00  0.00     0.019 C 
BRANCH  20  21
HETATM   21  C2  UNL     1      27.472  -1.034  52.926  1.00  0.00    -0.003 C 
HETATM   22  C1  UNL     1      28.907  -1.040  53.402  1.00  0.00     0.005 C 
ENDBRANCH  20  21
ENDBRANCH  19  20
ENDBRANCH   5  19
ENDBRANCH   1   4
TORSDOF 4
ENDMDL
MODEL 2
REMARK VINA RESULT:      -6.4      2.248      4.691
REMARK  4 active torsions:
REMARK  status: ('A' for Active; 'I' for Inactive)
REMARK    1  A    between atoms: C2_2  and  C3_3 
REMARK    2  A    between atoms: C3_3  and  C4_4 
REMARK    3  A    between atoms: C4_4  and  N1_5 
REMARK    4  A    between atoms: C13_18  and  C14_19 
ROOT
HETATM    1  C14 UNL     1      25.712   3.353  49.733  1.00  0.00     0.149 C 
HETATM    2  C15 UNL     1      26.859   4.056  49.201  1.00  0.00     0.061 C 
HETATM    3  N6  UNL     1      27.798   4.609  48.779  1.00  0.00    -0.197 NA
ENDROOT
BRANCH   1   4
HETATM    4  C13 UNL     1      25.095   3.751  51.013  1.00  0.00     0.104 C 
HETATM    5  N1  UNL     1      25.343   2.519  51.801  1.00  0.00    -0.390 N 
HETATM    6  C5  UNL     1      24.600   1.396  51.704  1.00  0.00     0.260 C 
HETATM    7  N2  UNL     1      23.238   1.210  51.460  1.00  0.00    -0.297 N 
HETATM    8  N3  UNL     1      22.146   1.276  50.664  1.00  0.00    -0.195 NA
HETATM    9  H12 UNL     1      22.736   0.793  52.313  1.00  0.00     0.184 HD
HETATM   10  C6  UNL     1      21.107   1.968  50.910  1.00  0.00     0.114 C 
HETATM   11  C7  UNL     1      21.056   2.788  52.175  1.00  0.00     0.097 C 
HETATM   12  C8  UNL     1      21.960   3.976  52.019  1.00  0.00     0.254 C 
HETATM   13  N4  UNL     1      22.610   5.095  52.534  1.00  0.00     0.358 N 
HETATM   14  C11 UNL     1      22.508   4.128  50.604  1.00  0.00     0.048 A 
HETATM   15  C9  UNL     1      23.361   5.632  51.355  1.00  0.00     0.352 C 
HETATM   16  N5  UNL     1      24.097   5.554  50.230  1.00  0.00    -0.276 NA
HETATM   17  C12 UNL     1      23.799   4.176  51.351  1.00  0.00     0.105 A 
HETATM   18  C10 UNL     1      23.363   4.331  49.624  1.00  0.00     0.129 A 
BRANCH   5  19
HETATM   19  C4  UNL     1      26.779   2.317  51.948  1.00  0.00     0.119 C 
BRANCH  19  20
HETATM   20  C3  UNL     1      27.132   0.909  52.346  1.00  0.00     0.019 C 
BRANCH  20  21
HETATM   21  C2  UNL     1      28.308   0.992  53.313  1.00  0.00    -0.003 C 
HETATM   22  C1  UNL     1      28.665   2.423  53.644  1.00  0.00     0.005 C 
ENDBRANCH  20  21
ENDBRANCH  19  20
ENDBRANCH   5  19
ENDBRANCH   1   4
TORSDOF 4
ENDMDL
MODEL 3
REMARK VINA RESULT:      -6.4      1.885      4.055
REMARK  4 active torsions:
REMARK  status: ('A' for Active; 'I' for Inactive)
REMARK    1  A    between atoms: C2_2  and  C3_3 
REMARK    2  A    between atoms: C3_3  and  C4_4 
REMARK    3  A    between atoms: C4_4  and  N1_5 
REMARK    4  A    between atoms: C13_18  and  C14_19 
ROOT
HETATM    1  C14 UNL     1      24.149   0.698  52.308  1.00  0.00     0.149 C 
HETATM    2  C15 UNL     1      24.709   0.011  53.451  1.00  0.00     0.061 C 
HETATM    3  N6  UNL     1      25.148  -0.559  54.371  1.00  0.00    -0.197 NA
ENDROOT
BRANCH   1   4
HETATM    4  C13 UNL     1      23.146   1.769  52.471  1.00  0.00     0.104 C 
HETATM    5  N1  UNL     1      22.014   1.162  51.731  1.00  0.00    -0.390 N 
HETATM    6  C5  UNL     1      21.904   1.160  50.385  1.00  0.00     0.260 C 
HETATM    7  N2  UNL     1      22.295   2.097  49.427  1.00  0.00    -0.297 N 
HETATM    8  N3  UNL     1      23.237   2.787  48.743  1.00  0.00    -0.195 NA
HETATM    9  H12 UNL     1      21.447   2.534  48.931  1.00  0.00     0.184 HD
HETATM   10  C6  UNL     1      23.362   4.053  48.753  1.00  0.00     0.114 C 
HETATM   11  C7  UNL     1      22.404   4.877  49.578  1.00  0.00     0.097 C 
HETATM   12  C8  UNL     1      22.747   4.709  51.029  1.00  0.00     0.254 C 
HETATM   13  N4  UNL     1      22.474   4.904  52.381  1.00  0.00     0.358 N 
HETATM   14  C11 UNL     1      24.044   3.938  51.251  1.00  0.00     0.048 A 
HETATM   15  C9  UNL     1      23.625   4.234  53.066  1.00  0.00     0.352 C 
HETATM   16  N5  UNL     1      24.554   3.276  53.252  1.00  0.00    -0.276 NA
HETATM   17  C12 UNL     1      23.149   3.132  52.133  1.00  0.00     0.105 A 
HETATM   18  C10 UNL     1      24.896   3.070  51.754  1.00  0.00     0.129 A 
BRANCH   5  19
HETATM   19  C4  UNL     1      21.594  -0.062  52.402  1.00  0.00     0.119 C 
BRANCH  19  20
HETATM   20  C3  UNL     1      20.626   0.193  53.526  1.00  0.00     0.019 C 
BRANCH  20  21
HETATM   21  C2  UNL     1      21.251  -0.368  54.798  1.00  0.00    -0.003 C 
HETATM   22  C1  UNL     1      21.732  -1.789  54.611  1.00  0.00     0.005 C 
ENDBRANCH  20  21
ENDBRANCH  19  20
ENDBRANCH   5  19
ENDBRANCH   1   4
TORSDOF 4
ENDMDL
MODEL 4
REMARK VINA RESULT:      -6.3      1.672      5.319
REMARK  4 active torsions:
REMARK  status: ('A' for Active; 'I' for Inactive)
REMARK    1  A    between atoms: C2_2  and  C3_3 
REMARK    2  A    between atoms: C3_3  and  C4_4 
REMARK    3  A    between atoms: C4_4  and  N1_5 
REMARK    4  A    between atoms: C13_18  and  C14_19 
ROOT
HETATM    1  C14 UNL     1      22.172   2.760  52.306  1.00  0.00     0.149 C 
HETATM    2  C15 UNL     1      21.569   3.963  51.778  1.00  0.00     0.061 C 
HETATM    3  N6  UNL     1      21.066   4.925  51.344  1.00  0.00    -0.197 NA
ENDROOT
BRANCH   1   4
HETATM    4  C13 UNL     1      23.177   2.002  51.535  1.00  0.00     0.104 C 
HETATM    5  N1  UNL     1      22.412   0.755  51.290  1.00  0.00    -0.390 N 
HETATM    6  C5  UNL     1      22.258  -0.229  52.201  1.00  0.00     0.260 C 
HETATM    7  N2  UNL     1      23.113  -0.707  53.195  1.00  0.00    -0.297 N 
HETATM    8  N3  UNL     1      23.793  -0.567  54.357  1.00  0.00    -0.195 NA
HETATM    9  H12 UNL     1      23.431  -1.714  52.995  1.00  0.00     0.184 HD
HETATM   10  C6  UNL     1      25.059  -0.630  54.471  1.00  0.00     0.114 C 
HETATM   11  C7  UNL     1      25.894  -0.878  53.239  1.00  0.00     0.097 C 
HETATM   12  C8  UNL     1      25.908   0.368  52.404  1.00  0.00     0.254 C 
HETATM   13  N4  UNL     1      26.226   1.054  51.233  1.00  0.00     0.358 N 
HETATM   14  C11 UNL     1      25.263   1.562  53.101  1.00  0.00     0.048 A 
HETATM   15  C9  UNL     1      25.720   2.438  51.495  1.00  0.00     0.352 C 
HETATM   16  N5  UNL     1      24.859   3.362  51.964  1.00  0.00    -0.276 NA
HETATM   17  C12 UNL     1      24.493   1.604  51.824  1.00  0.00     0.105 A 
HETATM   18  C10 UNL     1      24.519   2.631  53.287  1.00  0.00     0.129 A 
BRANCH   5  19
HETATM   19  C4  UNL     1      21.240   1.055  50.478  1.00  0.00     0.119 C 
BRANCH  19  20
HETATM   20  C3  UNL     1      21.500   0.907  49.003  1.00  0.00     0.019 C 
BRANCH  20  21
HETATM   21  C2  UNL     1      21.187   2.249  48.350  1.00  0.00    -0.003 C 
HETATM   22  C1  UNL     1      22.443   3.030  48.035  1.00  0.00     0.005 C 
ENDBRANCH  20  21
ENDBRANCH  19  20
ENDBRANCH   5  19
ENDBRANCH   1   4
TORSDOF 4
ENDMDL
MODEL 5
REMARK VINA RESULT:      -6.0      2.337      3.184
REMARK  4 active torsions:
REMARK  status: ('A' for Active; 'I' for Inactive)
REMARK    1  A    between atoms: C2_2  and  C3_3 
REMARK    2  A    between atoms: C3_3  and  C4_4 
REMARK    3  A    between atoms: C4_4  and  N1_5 
REMARK    4  A    between atoms: C13_18  and  C14_19 
ROOT
HETATM    1  C14 UNL     1      20.347   1.155  52.041  1.00  0.00     0.149 C 
HETATM    2  C15 UNL     1      19.215   0.270  52.203  1.00  0.00     0.061 C 
HETATM    3  N6  UNL     1      18.310  -0.455  52.348  1.00  0.00    -0.197 NA
ENDROOT
BRANCH   1   4
HETATM    4  C13 UNL     1      21.349   0.934  50.980  1.00  0.00     0.104 C 
HETATM    5  N1  UNL     1      22.560   0.754  51.817  1.00  0.00    -0.390 N 
HETATM    6  C5  UNL     1      23.257   1.771  52.368  1.00  0.00     0.260 C 
HETATM    7  N2  UNL     1      23.514   3.065  51.912  1.00  0.00    -0.297 N 
HETATM    8  N3  UNL     1      23.121   4.316  51.580  1.00  0.00    -0.195 NA
HETATM    9  H12 UNL     1      24.558   3.211  51.702  1.00  0.00     0.184 HD
HETATM   10  C6  UNL     1      23.240   4.833  50.423  1.00  0.00     0.114 C 
HETATM   11  C7  UNL     1      23.861   4.017  49.317  1.00  0.00     0.097 C 
HETATM   12  C8  UNL     1      22.883   2.967  48.882  1.00  0.00     0.254 C 
HETATM   13  N4  UNL     1      22.553   1.831  48.145  1.00  0.00     0.358 N 
HETATM   14  C11 UNL     1      21.506   3.133  49.517  1.00  0.00     0.048 A 
HETATM   15  C9  UNL     1      21.117   1.595  48.496  1.00  0.00     0.352 C 
HETATM   16  N5  UNL     1      20.045   1.545  49.310  1.00  0.00    -0.276 NA
HETATM   17  C12 UNL     1      21.748   1.704  49.875  1.00  0.00     0.105 A 
HETATM   18  C10 UNL     1      20.376   2.825  50.118  1.00  0.00     0.129 A 
BRANCH   5  19
HETATM   19  C4  UNL     1      22.404  -0.431  52.650  1.00  0.00     0.119 C 
BRANCH  19  20
HETATM   20  C3  UNL     1      23.297  -0.413  53.862  1.00  0.00     0.019 C 
BRANCH  20  21
HETATM   21  C2  UNL     1      22.606  -1.231  54.947  1.00  0.00    -0.003 C 
HETATM   22  C1  UNL     1      21.225  -1.677  54.524  1.00  0.00     0.005 C 
ENDBRANCH  20  21
ENDBRANCH  19  20
ENDBRANCH   5  19
ENDBRANCH   1   4
TORSDOF 4
ENDMDL
MODEL 6
REMARK VINA RESULT:      -6.0      1.941      5.280
REMARK  4 active torsions:
REMARK  status: ('A' for Active; 'I' for Inactive)
REMARK    1  A    between atoms: C2_2  and  C3_3 
REMARK    2  A    between atoms: C3_3  and  C4_4 
REMARK    3  A    between atoms: C4_4  and  N1_5 
REMARK    4  A    between atoms: C13_18  and  C14_19 
ROOT
HETATM    1  C14 UNL     1      23.144   2.194  53.090  1.00  0.00     0.149 C 
HETATM    2  C15 UNL     1      22.171   3.086  52.499  1.00  0.00     0.061 C 
HETATM    3  N6  UNL     1      21.369   3.792  52.025  1.00  0.00    -0.197 NA
ENDROOT
BRANCH   1   4
HETATM    4  C13 UNL     1      23.977   1.305  52.256  1.00  0.00     0.104 C 
HETATM    5  N1  UNL     1      23.427  -0.009  52.671  1.00  0.00    -0.390 N 
HETATM    6  C5  UNL     1      23.763  -0.641  53.815  1.00  0.00     0.260 C 
HETATM    7  N2  UNL     1      24.966  -0.691  54.523  1.00  0.00    -0.297 N 
HETATM    8  N3  UNL     1      25.940  -0.118  55.266  1.00  0.00    -0.195 NA
HETATM    9  H12 UNL     1      25.389  -1.679  54.516  1.00  0.00     0.184 HD
HETATM   10  C6  UNL     1      27.164  -0.040  54.926  1.00  0.00     0.114 C 
HETATM   11  C7  UNL     1      27.594  -0.618  53.600  1.00  0.00     0.097 C 
HETATM   12  C8  UNL     1      27.102   0.276  52.500  1.00  0.00     0.254 C 
HETATM   13  N4  UNL     1      26.893   0.555  51.151  1.00  0.00     0.358 N 
HETATM   14  C11 UNL     1      26.497   1.579  53.013  1.00  0.00     0.048 A 
HETATM   15  C9  UNL     1      26.242   1.903  51.173  1.00  0.00     0.352 C 
HETATM   16  N5  UNL     1      25.414   2.859  51.639  1.00  0.00    -0.276 NA
HETATM   17  C12 UNL     1      25.366   1.131  52.147  1.00  0.00     0.105 A 
HETATM   18  C10 UNL     1      25.661   2.587  53.144  1.00  0.00     0.129 A 
BRANCH   5  19
HETATM   19  C4  UNL     1      22.023  -0.090  52.291  1.00  0.00     0.119 C 
BRANCH  19  20
HETATM   20  C3  UNL     1      21.159  -0.677  53.375  1.00  0.00     0.019 C 
BRANCH  20  21
HETATM   21  C2  UNL     1      19.744  -0.153  53.161  1.00  0.00    -0.003 C 
HETATM   22  C1  UNL     1      18.705  -1.230  53.377  1.00  0.00     0.005 C 
ENDBRANCH  20  21
ENDBRANCH  19  20
ENDBRANCH   5  19
ENDBRANCH   1   4
TORSDOF 4
ENDMDL
MODEL 7
REMARK VINA RESULT:      -5.9      9.796     12.397
REMARK  4 active torsions:
REMARK  status: ('A' for Active; 'I' for Inactive)
REMARK    1  A    between atoms: C2_2  and  C3_3 
REMARK    2  A    between atoms: C3_3  and  C4_4 
REMARK    3  A    between atoms: C4_4  and  N1_5 
REMARK    4  A    between atoms: C13_18  and  C14_19 
ROOT
HETATM    1  C14 UNL     1      31.928   8.642  47.688  1.00  0.00     0.149 C 
HETATM    2  C15 UNL     1      31.304   9.866  47.239  1.00  0.00     0.061 C 
HETATM    3  N6  UNL     1      30.785  10.853  46.890  1.00  0.00    -0.197 NA
ENDROOT
BRANCH   1   4
HETATM    4  C13 UNL     1      31.667   7.355  47.014  1.00  0.00     0.104 C 
HETATM    5  N1  UNL     1      31.034   6.614  48.132  1.00  0.00    -0.390 N 
HETATM    6  C5  UNL     1      31.720   6.034  49.140  1.00  0.00     0.260 C 
HETATM    7  N2  UNL     1      32.970   5.413  49.166  1.00  0.00    -0.297 N 
HETATM    8  N3  UNL     1      34.319   5.436  49.071  1.00  0.00    -0.195 NA
HETATM    9  H12 UNL     1      32.885   4.361  49.372  1.00  0.00     0.184 HD
HETATM   10  C6  UNL     1      34.999   4.792  48.209  1.00  0.00     0.114 C 
HETATM   11  C7  UNL     1      34.277   3.929  47.204  1.00  0.00     0.097 C 
HETATM   12  C8  UNL     1      33.608   4.815  46.195  1.00  0.00     0.254 C 
HETATM   13  N4  UNL     1      32.752   5.009  45.113  1.00  0.00     0.358 N 
HETATM   14  C11 UNL     1      33.992   6.284  46.343  1.00  0.00     0.048 A 
HETATM   15  C9  UNL     1      32.824   6.486  44.877  1.00  0.00     0.352 C 
HETATM   16  N5  UNL     1      32.891   7.784  45.230  1.00  0.00    -0.276 NA
HETATM   17  C12 UNL     1      32.507   6.436  46.362  1.00  0.00     0.105 A 
HETATM   18  C10 UNL     1      33.871   7.593  46.416  1.00  0.00     0.129 A 
BRANCH   5  19
HETATM   19  C4  UNL     1      29.791   7.274  48.510  1.00  0.00     0.119 C 
BRANCH  19  20
HETATM   20  C3  UNL     1      28.675   7.015  47.534  1.00  0.00     0.019 C 
BRANCH  20  21
HETATM   21  C2  UNL     1      27.519   6.403  48.318  1.00  0.00    -0.003 C 
HETATM   22  C1  UNL     1      27.742   4.934  48.596  1.00  0.00     0.005 C 
ENDBRANCH  20  21
ENDBRANCH  19  20
ENDBRANCH   5  19
ENDBRANCH   1   4
TORSDOF 4
ENDMDL
MODEL 8
REMARK VINA RESULT:      -5.8      1.647      2.221
REMARK  4 active torsions:
REMARK  status: ('A' for Active; 'I' for Inactive)
REMARK    1  A    between atoms: C2_2  and  C3_3 
REMARK    2  A    between atoms: C3_3  and  C4_4 
REMARK    3  A    between atoms: C4_4  and  N1_5 
REMARK    4  A    between atoms: C13_18  and  C14_19 
ROOT
HETATM    1  C14 UNL     1      22.610   1.486  52.774  1.00  0.00     0.149 C 
HETATM    2  C15 UNL     1      22.895   0.212  53.395  1.00  0.00     0.061 C 
HETATM    3  N6  UNL     1      23.142  -0.810  53.907  1.00  0.00    -0.197 NA
ENDROOT
BRANCH   1   4
HETATM    4  C13 UNL     1      23.096   1.805  51.417  1.00  0.00     0.104 C 
HETATM    5  N1  UNL     1      24.100   2.844  51.752  1.00  0.00    -0.390 N 
HETATM    6  C5  UNL     1      23.795   4.129  52.028  1.00  0.00     0.260 C 
HETATM    7  N2  UNL     1      22.795   4.967  51.531  1.00  0.00    -0.297 N 
HETATM    8  N3  UNL     1      21.498   5.325  51.385  1.00  0.00    -0.195 NA
HETATM    9  H12 UNL     1      23.205   5.778  50.957  1.00  0.00     0.184 HD
HETATM   10  C6  UNL     1      20.883   5.395  50.273  1.00  0.00     0.114 C 
HETATM   11  C7  UNL     1      21.626   5.061  49.003  1.00  0.00     0.097 C 
HETATM   12  C8  UNL     1      21.829   3.576  48.938  1.00  0.00     0.254 C 
HETATM   13  N4  UNL     1      22.389   2.441  48.353  1.00  0.00     0.358 N 
HETATM   14  C11 UNL     1      21.082   2.821  50.033  1.00  0.00     0.048 A 
HETATM   15  C9  UNL     1      21.866   1.322  49.200  1.00  0.00     0.352 C 
HETATM   16  N5  UNL     1      21.503   0.718  50.348  1.00  0.00    -0.276 NA
HETATM   17  C12 UNL     1      22.444   2.251  50.255  1.00  0.00     0.105 A 
HETATM   18  C10 UNL     1      20.844   1.960  51.000  1.00  0.00     0.129 A 
BRANCH   5  19
HETATM   19  C4  UNL     1      25.155   2.255  52.566  1.00  0.00     0.119 C 
BRANCH  19  20
HETATM   20  C3  UNL     1      26.030   1.308  51.789  1.00  0.00     0.019 C 
BRANCH  20  21
HETATM   21  C2  UNL     1      26.726   0.402  52.799  1.00  0.00    -0.003 C 
HETATM   22  C1  UNL     1      26.647  -1.054  52.398  1.00  0.00     0.005 C 
ENDBRANCH  20  21
ENDBRANCH  19  20
ENDBRANCH   5  19
ENDBRANCH   1   4
TORSDOF 4
ENDMDL
MODEL 9
REMARK VINA RESULT:      -5.8      9.885     11.891
REMARK  4 active torsions:
REMARK  status: ('A' for Active; 'I' for Inactive)
REMARK    1  A    between atoms: C2_2  and  C3_3 
REMARK    2  A    between atoms: C3_3  and  C4_4 
REMARK    3  A    between atoms: C4_4  and  N1_5 
REMARK    4  A    between atoms: C13_18  and  C14_19 
ROOT
HETATM    1  C14 UNL     1      33.884   7.212  47.733  1.00  0.00     0.149 C 
HETATM    2  C15 UNL     1      35.033   6.710  48.453  1.00  0.00     0.061 C 
HETATM    3  N6  UNL     1      35.972   6.302  49.017  1.00  0.00    -0.197 NA
ENDROOT
BRANCH   1   4
HETATM    4  C13 UNL     1      32.721   6.349  47.447  1.00  0.00     0.104 C 
HETATM    5  N1  UNL     1      32.762   6.362  45.965  1.00  0.00    -0.390 N 
HETATM    6  C5  UNL     1      32.295   7.374  45.203  1.00  0.00     0.260 C 
HETATM    7  N2  UNL     1      31.215   8.241  45.384  1.00  0.00    -0.297 N 
HETATM    8  N3  UNL     1      30.584   9.245  46.036  1.00  0.00    -0.195 NA
HETATM    9  H12 UNL     1      30.451   8.082  44.645  1.00  0.00     0.184 HD
HETATM   10  C6  UNL     1      29.459   9.137  46.622  1.00  0.00     0.114 C 
HETATM   11  C7  UNL     1      28.751   7.805  46.608  1.00  0.00     0.097 C 
HETATM   12  C8  UNL     1      29.463   6.868  47.538  1.00  0.00     0.254 C 
HETATM   13  N4  UNL     1      29.666   5.601  48.080  1.00  0.00     0.358 N 
HETATM   14  C11 UNL     1      30.549   7.554  48.361  1.00  0.00     0.048 A 
HETATM   15  C9  UNL     1      30.777   5.817  49.060  1.00  0.00     0.352 C 
HETATM   16  N5  UNL     1      31.935   6.343  49.507  1.00  0.00    -0.276 NA
HETATM   17  C12 UNL     1      31.364   6.435  47.801  1.00  0.00     0.105 A 
HETATM   18  C10 UNL     1      31.711   7.768  48.942  1.00  0.00     0.129 A 
BRANCH   5  19
HETATM   19  C4  UNL     1      34.001   5.746  45.508  1.00  0.00     0.119 C 
BRANCH  19  20
HETATM   20  C3  UNL     1      33.885   4.255  45.342  1.00  0.00     0.019 C 
BRANCH  20  21
HETATM   21  C2  UNL     1      35.067   3.624  46.068  1.00  0.00    -0.003 C 
HETATM   22  C1  UNL     1      34.706   3.202  47.474  1.00  0.00     0.005 C 
ENDBRANCH  20  21
ENDBRANCH  19  20
ENDBRANCH   5  19
ENDBRANCH   1   4
TORSDOF 4
ENDMDL
