MODEL 1
REMARK VINA RESULT:      -8.3      0.000      0.000
REMARK  6 active torsions:
REMARK  status: ('A' for Active; 'I' for Inactive)
REMARK    1  A    between atoms: C3_3  and  N1_4 
REMARK       I    between atoms: N1_4  and  C4_5 
REMARK    2  A    between atoms: C4_5  and  C5_7 
REMARK    3  A    between atoms: C6_8  and  C7_9 
REMARK    4  A    between atoms: C7_9  and  C8_10 
REMARK    5  A    between atoms: C8_10  and  N2_11 
REMARK    6  A    between atoms: C17_21  and  C18_22 
ROOT
HETATM    1  C1  UNL     1      23.606   4.775  53.046  1.00  0.00     0.070 C 
HETATM    2  C2  UNL     1      23.771   4.143  51.719  1.00  0.00     0.031 C 
HETATM    3  C3  UNL     1      24.487   4.604  50.687  1.00  0.00     0.037 C 
HETATM    4  C14 UNL     1      24.307   3.581  49.565  1.00  0.00     0.089 C 
HETATM    5  C15 UNL     1      22.933   3.116  49.907  1.00  0.00     0.120 C 
HETATM    6  C16 UNL     1      22.522   1.734  49.855  1.00  0.00     0.029 C 
HETATM    7  C17 UNL     1      22.628   1.567  51.185  1.00  0.00     0.043 C 
HETATM    8  N4  UNL     1      23.180   2.867  51.360  1.00  0.00    -0.340 N 
ENDROOT
BRANCH   3   9
HETATM    9  N1  UNL     1      25.278   5.735  50.460  1.00  0.00    -0.318 N 
HETATM   10  C4  UNL     1      25.185   7.139  50.457  1.00  0.00     0.300 C 
HETATM   11  O1  UNL     1      24.069   7.623  50.735  1.00  0.00    -0.258 OA
HETATM   12  H4  UNL     1      26.283   5.535  50.202  1.00  0.00     0.169 HD
BRANCH  10  13
HETATM   13  C5  UNL     1      26.197   8.078  50.180  1.00  0.00    -0.005 C 
HETATM   14  C6  UNL     1      27.065   8.871  49.927  1.00  0.00    -0.095 C 
BRANCH  14  15
HETATM   15  C7  UNL     1      28.106   9.845  49.601  1.00  0.00     0.124 C 
BRANCH  15  16
HETATM   16  C8  UNL     1      28.972   9.340  48.500  1.00  0.00     0.284 C 
BRANCH  16  17
HETATM   17  N2  UNL     1      29.851   8.293  48.952  1.00  0.00     0.092 N 
HETATM   18  C9  UNL     1      31.142   8.729  49.335  1.00  0.00     0.302 C 
HETATM   19  C10 UNL     1      32.139   7.600  49.274  1.00  0.00     0.302 C 
HETATM   20  N3  UNL     1      32.267   7.213  47.907  1.00  0.00     0.087 N 
HETATM   21  C11 UNL     1      33.063   8.117  47.135  1.00  0.00     0.310 C 
HETATM   22  C12 UNL     1      31.021   6.890  47.269  1.00  0.00     0.302 C 
HETATM   23  C13 UNL     1      29.820   7.124  48.125  1.00  0.00     0.302 C 
ENDBRANCH  16  17
ENDBRANCH  15  16
ENDBRANCH  14  15
ENDBRANCH  10  13
ENDBRANCH   3   9
BRANCH   7  24
HETATM   24  C18 UNL     1      22.473   0.632  52.283  1.00  0.00    -0.008 A 
HETATM   25  C19 UNL     1      21.363  -0.001  52.787  1.00  0.00     0.017 A 
HETATM   26  C20 UNL     1      21.476  -0.862  53.854  1.00  0.00     0.045 A 
HETATM   27  C21 UNL     1      22.673  -1.145  54.475  1.00  0.00     0.138 A 
HETATM   28  F1  UNL     1      22.650  -2.010  55.515  1.00  0.00    -0.204 F 
HETATM   29  C22 UNL     1      23.785  -0.517  53.976  1.00  0.00     0.073 A 
HETATM   30 CL1  UNL     1      25.301  -0.891  54.783  1.00  0.00    -0.081 Cl
HETATM   31  C23 UNL     1      23.701   0.360  52.898  1.00  0.00     0.040 A 
ENDBRANCH   7  24
TORSDOF 6
ENDMDL
MODEL 2
REMARK VINA RESULT:      -8.3      3.036      3.602
REMARK  6 active torsions:
REMARK  status: ('A' for Active; 'I' for Inactive)
REMARK    1  A    between atoms: C3_3  and  N1_4 
REMARK       I    between atoms: N1_4  and  C4_5 
REMARK    2  A    between atoms: C4_5  and  C5_7 
REMARK    3  A    between atoms: C6_8  and  C7_9 
REMARK    4  A    between atoms: C7_9  and  C8_10 
REMARK    5  A    between atoms: C8_10  and  N2_11 
REMARK    6  A    between atoms: C17_21  and  C18_22 
ROOT
HETATM    1  C1  UNL     1      24.908   2.487  52.628  1.00  0.00     0.070 C 
HETATM    2  C2  UNL     1      23.904   3.227  51.832  1.00  0.00     0.031 C 
HETATM    3  C3  UNL     1      24.136   4.060  50.812  1.00  0.00     0.037 C 
HETATM    4  C14 UNL     1      22.763   4.559  50.361  1.00  0.00     0.089 C 
HETATM    5  C15 UNL     1      22.064   4.503  51.676  1.00  0.00     0.120 C 
HETATM    6  C16 UNL     1      20.711   4.029  51.842  1.00  0.00     0.029 C 
HETATM    7  C17 UNL     1      21.102   2.823  52.291  1.00  0.00     0.043 C 
HETATM    8  N4  UNL     1      22.472   3.113  52.041  1.00  0.00    -0.340 N 
ENDROOT
BRANCH   3   9
HETATM    9  N1  UNL     1      25.281   4.524  50.155  1.00  0.00    -0.318 N 
HETATM   10  C4  UNL     1      26.425   4.037  49.498  1.00  0.00     0.300 C 
HETATM   11  O1  UNL     1      26.544   2.796  49.434  1.00  0.00    -0.258 OA
HETATM   12  H4  UNL     1      25.372   5.576  50.101  1.00  0.00     0.169 HD
BRANCH  10  13
HETATM   13  C5  UNL     1      27.464   4.772  48.896  1.00  0.00    -0.005 C 
HETATM   14  C6  UNL     1      28.342   5.417  48.387  1.00  0.00    -0.095 C 
BRANCH  14  15
HETATM   15  C7  UNL     1      29.417   6.208  47.790  1.00  0.00     0.124 C 
BRANCH  15  16
HETATM   16  C8  UNL     1      30.712   5.937  48.474  1.00  0.00     0.284 C 
BRANCH  16  17
HETATM   17  N2  UNL     1      31.739   5.562  47.539  1.00  0.00     0.092 N 
HETATM   18  C9  UNL     1      32.538   4.466  47.947  1.00  0.00     0.302 C 
HETATM   19  C10 UNL     1      33.868   4.467  47.237  1.00  0.00     0.302 C 
HETATM   20  N3  UNL     1      34.581   5.628  47.662  1.00  0.00     0.087 N 
HETATM   21  C11 UNL     1      35.145   5.497  48.971  1.00  0.00     0.310 C 
HETATM   22  C12 UNL     1      33.859   6.857  47.492  1.00  0.00     0.302 C 
HETATM   23  C13 UNL     1      32.459   6.677  47.001  1.00  0.00     0.302 C 
ENDBRANCH  16  17
ENDBRANCH  15  16
ENDBRANCH  14  15
ENDBRANCH  10  13
ENDBRANCH   3   9
BRANCH   7  24
HETATM   24  C18 UNL     1      20.653   1.531  52.775  1.00  0.00    -0.008 A 
HETATM   25  C19 UNL     1      21.167   0.692  53.734  1.00  0.00     0.017 A 
HETATM   26  C20 UNL     1      20.547  -0.502  54.020  1.00  0.00     0.045 A 
HETATM   27  C21 UNL     1      19.402  -0.931  53.386  1.00  0.00     0.138 A 
HETATM   28  F1  UNL     1      18.889  -2.125  53.759  1.00  0.00    -0.204 F 
HETATM   29  C22 UNL     1      18.883  -0.097  52.428  1.00  0.00     0.073 A 
HETATM   30 CL1  UNL     1      17.422  -0.663  51.632  1.00  0.00    -0.081 Cl
HETATM   31  C23 UNL     1      19.489   1.116  52.118  1.00  0.00     0.040 A 
ENDBRANCH   7  24
TORSDOF 6
ENDMDL
MODEL 3
REMARK VINA RESULT:      -8.3      1.579      1.897
REMARK  6 active torsions:
REMARK  status: ('A' for Active; 'I' for Inactive)
REMARK    1  A    between atoms: C3_3  and  N1_4 
REMARK       I    between atoms: N1_4  and  C4_5 
REMARK    2  A    between atoms: C4_5  and  C5_7 
REMARK    3  A    between atoms: C6_8  and  C7_9 
REMARK    4  A    between atoms: C7_9  and  C8_10 
REMARK    5  A    between atoms: C8_10  and  N2_11 
REMARK    6  A    between atoms: C17_21  and  C18_22 
ROOT
HETATM    1  C1  UNL     1      24.084   4.270  52.403  1.00  0.00     0.070 C 
HETATM    2  C2  UNL     1      23.797   3.547  51.144  1.00  0.00     0.031 C 
HETATM    3  C3  UNL     1      24.306   3.798  49.934  1.00  0.00     0.037 C 
HETATM    4  C14 UNL     1      23.671   2.773  48.993  1.00  0.00     0.089 C 
HETATM    5  C15 UNL     1      22.363   2.613  49.691  1.00  0.00     0.120 C 
HETATM    6  C16 UNL     1      21.709   1.341  49.876  1.00  0.00     0.029 C 
HETATM    7  C17 UNL     1      22.109   1.229  51.155  1.00  0.00     0.043 C 
HETATM    8  N4  UNL     1      22.914   2.398  51.064  1.00  0.00    -0.340 N 
ENDROOT
BRANCH   3   9
HETATM    9  N1  UNL     1      25.208   4.734  49.415  1.00  0.00    -0.318 N 
HETATM   10  C4  UNL     1      26.558   4.843  49.037  1.00  0.00     0.300 C 
HETATM   11  O1  UNL     1      27.260   3.820  49.178  1.00  0.00    -0.258 OA
HETATM   12  H4  UNL     1      24.801   5.691  49.223  1.00  0.00     0.169 HD
BRANCH  10  13
HETATM   13  C5  UNL     1      27.229   5.965  48.515  1.00  0.00    -0.005 C 
HETATM   14  C6  UNL     1      27.804   6.914  48.051  1.00  0.00    -0.095 C 
BRANCH  14  15
HETATM   15  C7  UNL     1      28.480   8.076  47.475  1.00  0.00     0.124 C 
BRANCH  15  16
HETATM   16  C8  UNL     1      29.359   8.727  48.486  1.00  0.00     0.284 C 
BRANCH  16  17
HETATM   17  N2  UNL     1      30.745   8.402  48.274  1.00  0.00     0.092 N 
HETATM   18  C9  UNL     1      31.020   7.757  47.044  1.00  0.00     0.302 C 
HETATM   19  C10 UNL     1      32.315   6.988  47.110  1.00  0.00     0.302 C 
HETATM   20  N3  UNL     1      32.141   5.932  48.054  1.00  0.00     0.087 N 
HETATM   21  C11 UNL     1      31.376   4.836  47.542  1.00  0.00     0.310 C 
HETATM   22  C12 UNL     1      31.687   6.368  49.344  1.00  0.00     0.302 C 
HETATM   23  C13 UNL     1      31.381   7.828  49.421  1.00  0.00     0.302 C 
ENDBRANCH  16  17
ENDBRANCH  15  16
ENDBRANCH  14  15
ENDBRANCH  10  13
ENDBRANCH   3   9
BRANCH   7  24
HETATM   24  C18 UNL     1      22.064   0.404  52.347  1.00  0.00    -0.008 A 
HETATM   25  C19 UNL     1      21.008  -0.164  53.020  1.00  0.00     0.017 A 
HETATM   26  C20 UNL     1      21.227  -0.921  54.147  1.00  0.00     0.045 A 
HETATM   27  C21 UNL     1      22.480  -1.159  54.668  1.00  0.00     0.138 A 
HETATM   28  F1  UNL     1      22.560  -1.921  55.783  1.00  0.00    -0.204 F 
HETATM   29  C22 UNL     1      23.538  -0.595  54.002  1.00  0.00     0.073 A 
HETATM   30 CL1  UNL     1      25.127  -0.910  54.683  1.00  0.00    -0.081 Cl
HETATM   31  C23 UNL     1      23.347   0.176  52.859  1.00  0.00     0.040 A 
ENDBRANCH   7  24
TORSDOF 6
ENDMDL
MODEL 4
REMARK VINA RESULT:      -8.2      6.025     11.362
REMARK  6 active torsions:
REMARK  status: ('A' for Active; 'I' for Inactive)
REMARK    1  A    between atoms: C3_3  and  N1_4 
REMARK       I    between atoms: N1_4  and  C4_5 
REMARK    2  A    between atoms: C4_5  and  C5_7 
REMARK    3  A    between atoms: C6_8  and  C7_9 
REMARK    4  A    between atoms: C7_9  and  C8_10 
REMARK    5  A    between atoms: C8_10  and  N2_11 
REMARK    6  A    between atoms: C17_21  and  C18_22 
ROOT
HETATM    1  C1  UNL     1      22.662   0.576  52.196  1.00  0.00     0.070 C 
HETATM    2  C2  UNL     1      23.145   1.856  51.633  1.00  0.00     0.031 C 
HETATM    3  C3  UNL     1      22.413   2.933  51.329  1.00  0.00     0.037 C 
HETATM    4  C14 UNL     1      23.398   3.962  50.773  1.00  0.00     0.089 C 
HETATM    5  C15 UNL     1      24.384   3.022  50.168  1.00  0.00     0.120 C 
HETATM    6  C16 UNL     1      25.812   3.202  50.251  1.00  0.00     0.029 C 
HETATM    7  C17 UNL     1      25.951   2.301  51.239  1.00  0.00     0.043 C 
HETATM    8  N4  UNL     1      24.543   2.134  51.359  1.00  0.00    -0.340 N 
ENDROOT
BRANCH   3   9
HETATM    9  N1  UNL     1      21.055   3.259  51.404  1.00  0.00    -0.318 N 
HETATM   10  C4  UNL     1      19.793   2.720  51.092  1.00  0.00     0.300 C 
HETATM   11  O1  UNL     1      19.785   1.585  50.572  1.00  0.00    -0.258 OA
HETATM   12  H4  UNL     1      20.843   4.206  51.823  1.00  0.00     0.169 HD
BRANCH  10  13
HETATM   13  C5  UNL     1      18.525   3.299  51.292  1.00  0.00    -0.005 C 
HETATM   14  C6  UNL     1      17.437   3.789  51.444  1.00  0.00    -0.095 C 
BRANCH  14  15
HETATM   15  C7  UNL     1      16.104   4.361  51.630  1.00  0.00     0.124 C 
BRANCH  15  16
HETATM   16  C8  UNL     1      15.322   3.562  52.614  1.00  0.00     0.284 C 
BRANCH  16  17
HETATM   17  N2  UNL     1      13.983   4.066  52.764  1.00  0.00     0.092 N 
HETATM   18  C9  UNL     1      13.602   4.345  54.099  1.00  0.00     0.302 C 
HETATM   19  C10 UNL     1      12.102   4.341  54.250  1.00  0.00     0.302 C 
HETATM   20  N3  UNL     1      11.648   3.011  54.002  1.00  0.00     0.087 N 
HETATM   21  C11 UNL     1      11.880   2.121  55.098  1.00  0.00     0.310 C 
HETATM   22  C12 UNL     1      12.082   2.467  52.746  1.00  0.00     0.302 C 
HETATM   23  C13 UNL     1      13.013   3.355  51.987  1.00  0.00     0.302 C 
ENDBRANCH  16  17
ENDBRANCH  15  16
ENDBRANCH  14  15
ENDBRANCH  10  13
ENDBRANCH   3   9
BRANCH   7  24
HETATM   24  C18 UNL     1      26.893   1.635  52.118  1.00  0.00    -0.008 A 
HETATM   25  C19 UNL     1      27.841   2.135  52.980  1.00  0.00     0.017 A 
HETATM   26  C20 UNL     1      28.626   1.283  53.721  1.00  0.00     0.045 A 
HETATM   27  C21 UNL     1      28.523  -0.089  53.659  1.00  0.00     0.138 A 
HETATM   28  F1  UNL     1      29.354  -0.816  54.440  1.00  0.00    -0.204 F 
HETATM   29  C22 UNL     1      27.579  -0.594  52.801  1.00  0.00     0.073 A 
HETATM   30 CL1  UNL     1      27.465  -2.347  52.736  1.00  0.00    -0.081 Cl
HETATM   31  C23 UNL     1      26.771   0.243  52.038  1.00  0.00     0.040 A 
ENDBRANCH   7  24
TORSDOF 6
ENDMDL
MODEL 5
REMARK VINA RESULT:      -8.2      2.296      3.020
REMARK  6 active torsions:
REMARK  status: ('A' for Active; 'I' for Inactive)
REMARK    1  A    between atoms: C3_3  and  N1_4 
REMARK       I    between atoms: N1_4  and  C4_5 
REMARK    2  A    between atoms: C4_5  and  C5_7 
REMARK    3  A    between atoms: C6_8  and  C7_9 
REMARK    4  A    between atoms: C7_9  and  C8_10 
REMARK    5  A    between atoms: C8_10  and  N2_11 
REMARK    6  A    between atoms: C17_21  and  C18_22 
ROOT
HETATM    1  C1  UNL     1      23.891   2.569  49.513  1.00  0.00     0.070 C 
HETATM    2  C2  UNL     1      24.946   2.358  50.529  1.00  0.00     0.031 C 
HETATM    3  C3  UNL     1      26.101   3.023  50.645  1.00  0.00     0.037 C 
HETATM    4  C14 UNL     1      26.820   2.403  51.844  1.00  0.00     0.089 C 
HETATM    5  C15 UNL     1      26.287   1.015  51.728  1.00  0.00     0.120 C 
HETATM    6  C16 UNL     1      25.869   0.224  52.859  1.00  0.00     0.029 C 
HETATM    7  C17 UNL     1      24.563   0.464  52.648  1.00  0.00     0.043 C 
HETATM    8  N4  UNL     1      24.845   1.383  51.599  1.00  0.00    -0.340 N 
ENDROOT
BRANCH   3   9
HETATM    9  N1  UNL     1      26.718   4.064  49.942  1.00  0.00    -0.318 N 
HETATM   10  C4  UNL     1      26.399   5.270  49.294  1.00  0.00     0.300 C 
HETATM   11  O1  UNL     1      25.196   5.601  49.292  1.00  0.00    -0.258 OA
HETATM   12  H4  UNL     1      27.764   3.970  49.829  1.00  0.00     0.169 HD
BRANCH  10  13
HETATM   13  C5  UNL     1      27.269   6.164  48.641  1.00  0.00    -0.005 C 
HETATM   14  C6  UNL     1      28.017   6.936  48.101  1.00  0.00    -0.095 C 
BRANCH  14  15
HETATM   15  C7  UNL     1      28.945   7.862  47.453  1.00  0.00     0.124 C 
BRANCH  15  16
HETATM   16  C8  UNL     1      29.779   8.565  48.467  1.00  0.00     0.284 C 
BRANCH  16  17
HETATM   17  N2  UNL     1      31.159   8.163  48.393  1.00  0.00     0.092 N 
HETATM   18  C9  UNL     1      31.530   7.544  47.175  1.00  0.00     0.302 C 
HETATM   19  C10 UNL     1      32.763   6.695  47.349  1.00  0.00     0.302 C 
HETATM   20  N3  UNL     1      32.426   5.621  48.225  1.00  0.00     0.087 N 
HETATM   21  C11 UNL     1      31.660   4.592  47.591  1.00  0.00     0.310 C 
HETATM   22  C12 UNL     1      31.858   6.040  49.476  1.00  0.00     0.302 C 
HETATM   23  C13 UNL     1      31.631   7.513  49.578  1.00  0.00     0.302 C 
ENDBRANCH  16  17
ENDBRANCH  15  16
ENDBRANCH  14  15
ENDBRANCH  10  13
ENDBRANCH   3   9
BRANCH   7  24
HETATM   24  C18 UNL     1      23.215   0.205  53.117  1.00  0.00    -0.008 A 
HETATM   25  C19 UNL     1      22.739  -0.179  54.348  1.00  0.00     0.017 A 
HETATM   26  C20 UNL     1      21.391  -0.362  54.547  1.00  0.00     0.045 A 
HETATM   27  C21 UNL     1      20.447  -0.179  53.560  1.00  0.00     0.138 A 
HETATM   28  F1  UNL     1      19.152  -0.391  53.885  1.00  0.00    -0.204 F 
HETATM   29  C22 UNL     1      20.916   0.205  52.329  1.00  0.00     0.073 A 
HETATM   30 CL1  UNL     1      19.696   0.432  51.084  1.00  0.00    -0.081 Cl
HETATM   31  C23 UNL     1      22.274   0.397  52.097  1.00  0.00     0.040 A 
ENDBRANCH   7  24
TORSDOF 6
ENDMDL
MODEL 6
REMARK VINA RESULT:      -8.1      1.957      2.402
REMARK  6 active torsions:
REMARK  status: ('A' for Active; 'I' for Inactive)
REMARK    1  A    between atoms: C3_3  and  N1_4 
REMARK       I    between atoms: N1_4  and  C4_5 
REMARK    2  A    between atoms: C4_5  and  C5_7 
REMARK    3  A    between atoms: C6_8  and  C7_9 
REMARK    4  A    between atoms: C7_9  and  C8_10 
REMARK    5  A    between atoms: C8_10  and  N2_11 
REMARK    6  A    between atoms: C17_21  and  C18_22 
ROOT
HETATM    1  C1  UNL     1      23.453   4.755  52.849  1.00  0.00     0.070 C 
HETATM    2  C2  UNL     1      23.656   4.125  51.525  1.00  0.00     0.031 C 
HETATM    3  C3  UNL     1      24.430   4.568  50.529  1.00  0.00     0.037 C 
HETATM    4  C14 UNL     1      24.267   3.558  49.393  1.00  0.00     0.089 C 
HETATM    5  C15 UNL     1      22.864   3.137  49.671  1.00  0.00     0.120 C 
HETATM    6  C16 UNL     1      22.411   1.770  49.591  1.00  0.00     0.029 C 
HETATM    7  C17 UNL     1      22.453   1.592  50.923  1.00  0.00     0.043 C 
HETATM    8  N4  UNL     1      23.040   2.871  51.131  1.00  0.00    -0.340 N 
ENDROOT
BRANCH   3   9
HETATM    9  N1  UNL     1      25.267   5.675  50.344  1.00  0.00    -0.318 N 
HETATM   10  C4  UNL     1      25.240   7.078  50.426  1.00  0.00     0.300 C 
HETATM   11  O1  UNL     1      24.156   7.596  50.764  1.00  0.00    -0.258 OA
HETATM   12  H4  UNL     1      26.255   5.445  50.046  1.00  0.00     0.169 HD
BRANCH  10  13
HETATM   13  C5  UNL     1      26.287   7.986  50.174  1.00  0.00    -0.005 C 
HETATM   14  C6  UNL     1      27.193   8.750  49.970  1.00  0.00    -0.095 C 
BRANCH  14  15
HETATM   15  C7  UNL     1      28.305   9.662  49.704  1.00  0.00     0.124 C 
BRANCH  15  16
HETATM   16  C8  UNL     1      29.493   8.911  49.211  1.00  0.00     0.284 C 
BRANCH  16  17
HETATM   17  N2  UNL     1      30.620   9.781  48.997  1.00  0.00     0.092 N 
HETATM   18  C9  UNL     1      30.311  11.162  49.005  1.00  0.00     0.302 C 
HETATM   19  C10 UNL     1      31.359  11.959  48.270  1.00  0.00     0.302 C 
HETATM   20  N3  UNL     1      31.307  11.574  46.897  1.00  0.00     0.087 N 
HETATM   21  C11 UNL     1      30.203  12.146  46.190  1.00  0.00     0.310 C 
HETATM   22  C12 UNL     1      31.430  10.160  46.679  1.00  0.00     0.302 C 
HETATM   23  C13 UNL     1      31.480   9.353  47.935  1.00  0.00     0.302 C 
ENDBRANCH  16  17
ENDBRANCH  15  16
ENDBRANCH  14  15
ENDBRANCH  10  13
ENDBRANCH   3   9
BRANCH   7  24
HETATM   24  C18 UNL     1      22.221   0.655  52.006  1.00  0.00    -0.008 A 
HETATM   25  C19 UNL     1      23.085   0.059  52.893  1.00  0.00     0.017 A 
HETATM   26  C20 UNL     1      22.612  -0.809  53.850  1.00  0.00     0.045 A 
HETATM   27  C21 UNL     1      21.280  -1.133  53.987  1.00  0.00     0.138 A 
HETATM   28  F1  UNL     1      20.944  -1.999  54.969  1.00  0.00    -0.204 F 
HETATM   29  C22 UNL     1      20.412  -0.540  53.105  1.00  0.00     0.073 A 
HETATM   30 CL1  UNL     1      18.718  -0.967  53.297  1.00  0.00    -0.081 Cl
HETATM   31  C23 UNL     1      20.862   0.341  52.126  1.00  0.00     0.040 A 
ENDBRANCH   7  24
TORSDOF 6
ENDMDL
MODEL 7
REMARK VINA RESULT:      -8.0      1.834      2.486
REMARK  6 active torsions:
REMARK  status: ('A' for Active; 'I' for Inactive)
REMARK    1  A    between atoms: C3_3  and  N1_4 
REMARK       I    between atoms: N1_4  and  C4_5 
REMARK    2  A    between atoms: C4_5  and  C5_7 
REMARK    3  A    between atoms: C6_8  and  C7_9 
REMARK    4  A    between atoms: C7_9  and  C8_10 
REMARK    5  A    between atoms: C8_10  and  N2_11 
REMARK    6  A    between atoms: C17_21  and  C18_22 
ROOT
HETATM    1  C1  UNL     1      23.851   4.370  52.341  1.00  0.00     0.070 C 
HETATM    2  C2  UNL     1      23.661   3.584  51.101  1.00  0.00     0.031 C 
HETATM    3  C3  UNL     1      24.189   3.832  49.898  1.00  0.00     0.037 C 
HETATM    4  C14 UNL     1      23.664   2.730  48.977  1.00  0.00     0.089 C 
HETATM    5  C15 UNL     1      22.349   2.495  49.640  1.00  0.00     0.120 C 
HETATM    6  C16 UNL     1      21.785   1.184  49.852  1.00  0.00     0.029 C 
HETATM    7  C17 UNL     1      22.151   1.146  51.145  1.00  0.00     0.043 C 
HETATM    8  N4  UNL     1      22.869   2.369  51.036  1.00  0.00    -0.340 N 
ENDROOT
BRANCH   3   9
HETATM    9  N1  UNL     1      25.035   4.815  49.373  1.00  0.00    -0.318 N 
HETATM   10  C4  UNL     1      26.385   5.012  49.032  1.00  0.00     0.300 C 
HETATM   11  O1  UNL     1      27.156   4.050  49.231  1.00  0.00    -0.258 OA
HETATM   12  H4  UNL     1      24.565   5.731  49.134  1.00  0.00     0.169 HD
BRANCH  10  13
HETATM   13  C5  UNL     1      26.988   6.163  48.490  1.00  0.00    -0.005 C 
HETATM   14  C6  UNL     1      27.512   7.149  48.043  1.00  0.00    -0.095 C 
BRANCH  14  15
HETATM   15  C7  UNL     1      28.172   8.335  47.498  1.00  0.00     0.124 C 
BRANCH  15  16
HETATM   16  C8  UNL     1      29.611   8.060  47.232  1.00  0.00     0.284 C 
BRANCH  16  17
HETATM   17  N2  UNL     1      30.451   9.143  47.671  1.00  0.00     0.092 N 
HETATM   18  C9  UNL     1      30.154   9.634  48.965  1.00  0.00     0.302 C 
HETATM   19  C10 UNL     1      30.661  11.043  49.143  1.00  0.00     0.302 C 
HETATM   20  N3  UNL     1      29.929  11.880  48.249  1.00  0.00     0.087 N 
HETATM   21  C11 UNL     1      28.604  12.172  48.705  1.00  0.00     0.310 C 
HETATM   22  C12 UNL     1      29.960  11.447  46.881  1.00  0.00     0.302 C 
HETATM   23  C13 UNL     1      30.663  10.145  46.670  1.00  0.00     0.302 C 
ENDBRANCH  16  17
ENDBRANCH  15  16
ENDBRANCH  14  15
ENDBRANCH  10  13
ENDBRANCH   3   9
BRANCH   7  24
HETATM   24  C18 UNL     1      22.128   0.361  52.365  1.00  0.00    -0.008 A 
HETATM   25  C19 UNL     1      21.085  -0.179  53.079  1.00  0.00     0.017 A 
HETATM   26  C20 UNL     1      21.325  -0.898  54.226  1.00  0.00     0.045 A 
HETATM   27  C21 UNL     1      22.588  -1.125  54.728  1.00  0.00     0.138 A 
HETATM   28  F1  UNL     1      22.689  -1.850  55.865  1.00  0.00    -0.204 F 
HETATM   29  C22 UNL     1      23.633  -0.589  54.020  1.00  0.00     0.073 A 
HETATM   30 CL1  UNL     1      25.235  -0.889  54.678  1.00  0.00    -0.081 Cl
HETATM   31  C23 UNL     1      23.421   0.144  52.856  1.00  0.00     0.040 A 
ENDBRANCH   7  24
TORSDOF 6
ENDMDL
MODEL 8
REMARK VINA RESULT:      -7.9      2.438      3.131
REMARK  6 active torsions:
REMARK  status: ('A' for Active; 'I' for Inactive)
REMARK    1  A    between atoms: C3_3  and  N1_4 
REMARK       I    between atoms: N1_4  and  C4_5 
REMARK    2  A    between atoms: C4_5  and  C5_7 
REMARK    3  A    between atoms: C6_8  and  C7_9 
REMARK    4  A    between atoms: C7_9  and  C8_10 
REMARK    5  A    between atoms: C8_10  and  N2_11 
REMARK    6  A    between atoms: C17_21  and  C18_22 
ROOT
HETATM    1  C1  UNL     1      25.417   1.817  52.146  1.00  0.00     0.070 C 
HETATM    2  C2  UNL     1      24.568   2.930  51.666  1.00  0.00     0.031 C 
HETATM    3  C3  UNL     1      24.920   3.913  50.831  1.00  0.00     0.037 C 
HETATM    4  C14 UNL     1      23.681   4.797  50.681  1.00  0.00     0.089 C 
HETATM    5  C15 UNL     1      23.090   4.579  52.032  1.00  0.00     0.120 C 
HETATM    6  C16 UNL     1      21.679   4.389  52.264  1.00  0.00     0.029 C 
HETATM    7  C17 UNL     1      21.795   3.055  52.387  1.00  0.00     0.043 C 
HETATM    8  N4  UNL     1      23.172   3.087  52.030  1.00  0.00    -0.340 N 
ENDROOT
BRANCH   3   9
HETATM    9  N1  UNL     1      26.091   4.259  50.148  1.00  0.00    -0.318 N 
HETATM   10  C4  UNL     1      26.536   5.116  49.125  1.00  0.00     0.300 C 
HETATM   11  O1  UNL     1      25.672   5.842  48.593  1.00  0.00    -0.258 OA
HETATM   12  H4  UNL     1      26.960   3.740  50.455  1.00  0.00     0.169 HD
BRANCH  10  13
HETATM   13  C5  UNL     1      27.841   5.264  48.618  1.00  0.00    -0.005 C 
HETATM   14  C6  UNL     1      28.961   5.400  48.202  1.00  0.00    -0.095 C 
BRANCH  14  15
HETATM   15  C7  UNL     1      30.331   5.549  47.712  1.00  0.00     0.124 C 
BRANCH  15  16
HETATM   16  C8  UNL     1      31.224   6.051  48.793  1.00  0.00     0.284 C 
BRANCH  16  17
HETATM   17  N2  UNL     1      32.483   6.513  48.272  1.00  0.00     0.092 N 
HETATM   18  C9  UNL     1      32.553   6.570  46.859  1.00  0.00     0.302 C 
HETATM   19  C10 UNL     1      33.982   6.529  46.382  1.00  0.00     0.302 C 
HETATM   20  N3  UNL     1      34.515   5.252  46.729  1.00  0.00     0.087 N 
HETATM   21  C11 UNL     1      34.071   4.200  45.867  1.00  0.00     0.310 C 
HETATM   22  C12 UNL     1      34.384   4.920  48.120  1.00  0.00     0.302 C 
HETATM   23  C13 UNL     1      33.620   5.927  48.917  1.00  0.00     0.302 C 
ENDBRANCH  16  17
ENDBRANCH  15  16
ENDBRANCH  14  15
ENDBRANCH  10  13
ENDBRANCH   3   9
BRANCH   7  24
HETATM   24  C18 UNL     1      21.082   1.816  52.632  1.00  0.00    -0.008 A 
HETATM   25  C19 UNL     1      19.897   1.335  52.128  1.00  0.00     0.017 A 
HETATM   26  C20 UNL     1      19.421   0.106  52.521  1.00  0.00     0.045 A 
HETATM   27  C21 UNL     1      20.075  -0.708  53.420  1.00  0.00     0.138 A 
HETATM   28  F1  UNL     1      19.502  -1.894  53.724  1.00  0.00    -0.204 F 
HETATM   29  C22 UNL     1      21.258  -0.233  53.927  1.00  0.00     0.073 A 
HETATM   30 CL1  UNL     1      22.076  -1.286  55.072  1.00  0.00    -0.081 Cl
HETATM   31  C23 UNL     1      21.764   1.007  53.548  1.00  0.00     0.040 A 
ENDBRANCH   7  24
TORSDOF 6
ENDMDL
MODEL 9
REMARK VINA RESULT:      -7.9      6.727     11.587
REMARK  6 active torsions:
REMARK  status: ('A' for Active; 'I' for Inactive)
REMARK    1  A    between atoms: C3_3  and  N1_4 
REMARK       I    between atoms: N1_4  and  C4_5 
REMARK    2  A    between atoms: C4_5  and  C5_7 
REMARK    3  A    between atoms: C6_8  and  C7_9 
REMARK    4  A    between atoms: C7_9  and  C8_10 
REMARK    5  A    between atoms: C8_10  and  N2_11 
REMARK    6  A    between atoms: C17_21  and  C18_22 
ROOT
HETATM    1  C1  UNL     1      23.289   2.318  52.337  1.00  0.00     0.070 C 
HETATM    2  C2  UNL     1      22.753   1.078  52.942  1.00  0.00     0.031 C 
HETATM    3  C3  UNL     1      21.494   0.632  52.887  1.00  0.00     0.037 C 
HETATM    4  C14 UNL     1      21.479  -0.674  53.682  1.00  0.00     0.089 C 
HETATM    5  C15 UNL     1      22.551  -0.346  54.665  1.00  0.00     0.120 C 
HETATM    6  C16 UNL     1      23.563  -1.285  55.085  1.00  0.00     0.029 C 
HETATM    7  C17 UNL     1      24.502  -0.760  54.279  1.00  0.00     0.043 C 
HETATM    8  N4  UNL     1      23.567   0.127  53.676  1.00  0.00    -0.340 N 
ENDROOT
BRANCH   3   9
HETATM    9  N1  UNL     1      20.305   1.092  52.308  1.00  0.00    -0.318 N 
HETATM   10  C4  UNL     1      19.551   2.272  52.177  1.00  0.00     0.300 C 
HETATM   11  O1  UNL     1      20.014   3.293  52.726  1.00  0.00    -0.258 OA
HETATM   12  H4  UNL     1      19.749   0.362  51.785  1.00  0.00     0.169 HD
BRANCH  10  13
HETATM   13  C5  UNL     1      18.330   2.454  51.500  1.00  0.00    -0.005 C 
HETATM   14  C6  UNL     1      17.278   2.599  50.936  1.00  0.00    -0.095 C 
BRANCH  14  15
HETATM   15  C7  UNL     1      15.992   2.792  50.268  1.00  0.00     0.124 C 
BRANCH  15  16
HETATM   16  C8  UNL     1      14.897   2.138  51.037  1.00  0.00     0.284 C 
BRANCH  16  17
HETATM   17  N2  UNL     1      13.942   3.097  51.524  1.00  0.00     0.092 N 
HETATM   18  C9  UNL     1      14.098   3.447  52.887  1.00  0.00     0.302 C 
HETATM   19  C10 UNL     1      12.816   3.995  53.460  1.00  0.00     0.302 C 
HETATM   20  N3  UNL     1      11.856   2.939  53.453  1.00  0.00     0.087 N 
HETATM   21  C11 UNL     1      12.057   1.986  54.502  1.00  0.00     0.310 C 
HETATM   22  C12 UNL     1      11.672   2.321  52.171  1.00  0.00     0.302 C 
HETATM   23  C13 UNL     1      12.597   2.827  51.113  1.00  0.00     0.302 C 
ENDBRANCH  16  17
ENDBRANCH  15  16
ENDBRANCH  14  15
ENDBRANCH  10  13
ENDBRANCH   3   9
BRANCH   7  24
HETATM   24  C18 UNL     1      25.882  -0.851  53.844  1.00  0.00    -0.008 A 
HETATM   25  C19 UNL     1      26.499  -1.690  52.946  1.00  0.00     0.017 A 
HETATM   26  C20 UNL     1      27.846  -1.576  52.698  1.00  0.00     0.045 A 
HETATM   27  C21 UNL     1      28.653  -0.641  53.310  1.00  0.00     0.138 A 
HETATM   28  F1  UNL     1      29.964  -0.631  52.978  1.00  0.00    -0.204 F 
HETATM   29  C22 UNL     1      28.044   0.200  54.207  1.00  0.00     0.073 A 
HETATM   30 CL1  UNL     1      29.090   1.384  54.977  1.00  0.00    -0.081 Cl
HETATM   31  C23 UNL     1      26.682   0.107  54.479  1.00  0.00     0.040 A 
ENDBRANCH   7  24
TORSDOF 6
ENDMDL
