MODEL 1
REMARK VINA RESULT:      -6.8      0.000      0.000
REMARK  5 active torsions:
REMARK  status: ('A' for Active; 'I' for Inactive)
REMARK    1  A    between atoms: C8_9  and  O1_10 
REMARK    2  A    between atoms: O1_10  and  C9_11 
REMARK    3  A    between atoms: C9_11  and  C10_12 
REMARK    4  A    between atoms: C10_12  and  O2_13 
REMARK    5  A    between atoms: C18_23  and  N3_24 
ROOT
HETATM    1  C1  UNL     1      26.123   2.004  53.869  1.00  0.00     0.018 C 
HETATM    2  C2  UNL     1      25.477   2.120  52.831  1.00  0.00    -0.078 C 
HETATM    3  C3  UNL     1      24.730   2.263  51.584  1.00  0.00     0.020 C 
HETATM    4  C4  UNL     1      23.653   1.496  51.569  1.00  0.00     0.040 C 
HETATM    5  C5  UNL     1      23.208   0.608  52.597  1.00  0.00     0.118 C 
HETATM    6  N1  UNL     1      22.064   0.132  52.231  1.00  0.00    -0.265 NA
HETATM    7  C6  UNL     1      21.454   0.512  51.001  1.00  0.00     0.039 C 
HETATM    8  C7  UNL     1      20.471   1.072  51.749  1.00  0.00     0.064 C 
HETATM    9  C8  UNL     1      20.083   2.409  51.246  1.00  0.00     0.075 C 
HETATM   10  C12 UNL     1      20.555   3.105  50.195  1.00  0.00    -0.012 C 
HETATM   11  C13 UNL     1      20.699   4.553  50.106  1.00  0.00     0.065 C 
HETATM   12  C14 UNL     1      21.226   5.332  51.228  1.00  0.00     0.174 C 
HETATM   13  O3  UNL     1      22.523   5.445  51.547  1.00  0.00    -0.370 OA
HETATM   14  C15 UNL     1      23.276   4.289  51.734  1.00  0.00     0.317 C 
HETATM   15  N2  UNL     1      23.218   3.778  50.372  1.00  0.00    -0.262 NA
HETATM   16  C16 UNL     1      24.376   3.716  49.804  1.00  0.00     0.083 C 
HETATM   17  C17 UNL     1      25.288   3.176  50.599  1.00  0.00     0.054 C 
HETATM   18  C18 UNL     1      20.816   2.090  49.149  1.00  0.00     0.255 C 
HETATM   19  C19 UNL     1      21.151   0.718  49.589  1.00  0.00     0.099 C 
ENDROOT
BRANCH   9  20
HETATM   20  O1  UNL     1      19.093   3.257  51.799  1.00  0.00    -0.349 OA
BRANCH  20  21
HETATM   21  C9  UNL     1      17.723   2.984  51.638  1.00  0.00     0.201 C 
BRANCH  21  22
HETATM   22  C10 UNL     1      16.983   4.295  51.637  1.00  0.00     0.193 C 
BRANCH  22  23
HETATM   23  O2  UNL     1      16.226   4.440  52.768  1.00  0.00    -0.394 OA
HETATM   24  C11 UNL     1      15.062   3.704  52.822  1.00  0.00     0.201 C 
ENDBRANCH  22  23
ENDBRANCH  21  22
ENDBRANCH  20  21
ENDBRANCH   9  20
BRANCH  18  25
HETATM   25  N3  UNL     1      19.627   2.127  48.291  1.00  0.00     0.087 N 
HETATM   26  H20 UNL     1      19.092   1.250  48.331  1.00  0.00     0.313 HD
HETATM   27  H21 UNL     1      19.066   2.982  48.425  1.00  0.00     0.313 HD
ENDBRANCH  18  25
TORSDOF 5
ENDMDL
MODEL 2
REMARK VINA RESULT:      -6.8      1.465      1.790
REMARK  5 active torsions:
REMARK  status: ('A' for Active; 'I' for Inactive)
REMARK    1  A    between atoms: C8_9  and  O1_10 
REMARK    2  A    between atoms: O1_10  and  C9_11 
REMARK    3  A    between atoms: C9_11  and  C10_12 
REMARK    4  A    between atoms: C10_12  and  O2_13 
REMARK    5  A    between atoms: C18_23  and  N3_24 
ROOT
HETATM    1  C1  UNL     1      26.096   0.255  54.921  1.00  0.00     0.018 C 
HETATM    2  C2  UNL     1      25.620   0.628  53.853  1.00  0.00    -0.078 C 
HETATM    3  C3  UNL     1      25.077   1.072  52.572  1.00  0.00     0.020 C 
HETATM    4  C4  UNL     1      23.874   0.570  52.350  1.00  0.00     0.040 C 
HETATM    5  C5  UNL     1      23.132  -0.306  53.201  1.00  0.00     0.118 C 
HETATM    6  N1  UNL     1      21.968  -0.472  52.667  1.00  0.00    -0.265 NA
HETATM    7  C6  UNL     1      21.604   0.170  51.448  1.00  0.00     0.039 C 
HETATM    8  C7  UNL     1      20.676   0.846  52.168  1.00  0.00     0.064 C 
HETATM    9  C8  UNL     1      20.639   2.284  51.819  1.00  0.00     0.075 C 
HETATM   10  C12 UNL     1      21.371   2.972  50.922  1.00  0.00    -0.012 C 
HETATM   11  C13 UNL     1      21.823   4.352  51.045  1.00  0.00     0.065 C 
HETATM   12  C14 UNL     1      22.360   4.863  52.308  1.00  0.00     0.174 C 
HETATM   13  O3  UNL     1      23.603   4.649  52.760  1.00  0.00    -0.370 OA
HETATM   14  C15 UNL     1      24.070   3.341  52.858  1.00  0.00     0.317 C 
HETATM   15  N2  UNL     1      24.074   3.013  51.441  1.00  0.00    -0.262 NA
HETATM   16  C16 UNL     1      25.254   2.759  50.982  1.00  0.00     0.083 C 
HETATM   17  C17 UNL     1      25.929   1.944  51.778  1.00  0.00     0.054 C 
HETATM   18  C18 UNL     1      21.540   2.049  49.776  1.00  0.00     0.255 C 
HETATM   19  C19 UNL     1      21.526   0.596  50.055  1.00  0.00     0.099 C 
ENDROOT
BRANCH   9  20
HETATM   20  O1  UNL     1      19.788   3.263  52.385  1.00  0.00    -0.349 OA
BRANCH  20  21
HETATM   21  C9  UNL     1      18.659   3.739  51.694  1.00  0.00     0.201 C 
BRANCH  21  22
HETATM   22  C10 UNL     1      17.696   2.594  51.529  1.00  0.00     0.193 C 
BRANCH  22  23
HETATM   23  O2  UNL     1      17.662   2.156  50.232  1.00  0.00    -0.394 OA
HETATM   24  C11 UNL     1      17.631   0.791  50.050  1.00  0.00     0.201 C 
ENDBRANCH  22  23
ENDBRANCH  21  22
ENDBRANCH  20  21
ENDBRANCH   9  20
BRANCH  18  25
HETATM   25  N3  UNL     1      20.499   2.445  48.823  1.00  0.00     0.087 N 
HETATM   26  H20 UNL     1      20.672   2.071  47.880  1.00  0.00     0.313 HD
HETATM   27  H21 UNL     1      19.547   2.282  49.183  1.00  0.00     0.313 HD
ENDBRANCH  18  25
TORSDOF 5
ENDMDL
MODEL 3
REMARK VINA RESULT:      -6.6      2.359      3.519
REMARK  5 active torsions:
REMARK  status: ('A' for Active; 'I' for Inactive)
REMARK    1  A    between atoms: C8_9  and  O1_10 
REMARK    2  A    between atoms: O1_10  and  C9_11 
REMARK    3  A    between atoms: C9_11  and  C10_12 
REMARK    4  A    between atoms: C10_12  and  O2_13 
REMARK    5  A    between atoms: C18_23  and  N3_24 
ROOT
HETATM    1  C1  UNL     1      22.588  -1.215  55.254  1.00  0.00     0.018 C 
HETATM    2  C2  UNL     1      22.936  -0.720  54.186  1.00  0.00    -0.078 C 
HETATM    3  C3  UNL     1      23.372  -0.145  52.916  1.00  0.00     0.020 C 
HETATM    4  C4  UNL     1      22.351   0.091  52.110  1.00  0.00     0.040 C 
HETATM    5  C5  UNL     1      20.968  -0.161  52.368  1.00  0.00     0.118 C 
HETATM    6  N1  UNL     1      20.295   0.309  51.371  1.00  0.00    -0.265 NA
HETATM    7  C6  UNL     1      20.934   0.953  50.273  1.00  0.00     0.039 C 
HETATM    8  C7  UNL     1      20.287   2.082  50.655  1.00  0.00     0.064 C 
HETATM    9  C8  UNL     1      21.173   3.268  50.625  1.00  0.00     0.075 C 
HETATM   10  C12 UNL     1      22.471   3.365  50.283  1.00  0.00    -0.012 C 
HETATM   11  C13 UNL     1      23.457   4.267  50.865  1.00  0.00     0.065 C 
HETATM   12  C14 UNL     1      23.523   4.485  52.311  1.00  0.00     0.174 C 
HETATM   13  O3  UNL     1      24.093   3.650  53.192  1.00  0.00    -0.370 OA
HETATM   14  C15 UNL     1      23.700   2.315  53.208  1.00  0.00     0.317 C 
HETATM   15  N2  UNL     1      24.189   1.936  51.890  1.00  0.00    -0.262 NA
HETATM   16  C16 UNL     1      25.115   1.037  51.932  1.00  0.00     0.083 C 
HETATM   17  C17 UNL     1      24.805   0.046  52.753  1.00  0.00     0.054 C 
HETATM   18  C18 UNL     1      22.642   2.422  49.154  1.00  0.00     0.255 C 
HETATM   19  C19 UNL     1      21.745   1.247  49.097  1.00  0.00     0.099 C 
ENDROOT
BRANCH   9  20
HETATM   20  O1  UNL     1      20.811   4.593  50.966  1.00  0.00    -0.349 OA
BRANCH  20  21
HETATM   21  C9  UNL     1      19.966   5.356  50.140  1.00  0.00     0.201 C 
BRANCH  21  22
HETATM   22  C10 UNL     1      20.750   6.538  49.636  1.00  0.00     0.193 C 
BRANCH  22  23
HETATM   23  O2  UNL     1      21.322   7.232  50.668  1.00  0.00    -0.394 OA
HETATM   24  C11 UNL     1      22.561   7.782  50.420  1.00  0.00     0.201 C 
ENDBRANCH  22  23
ENDBRANCH  21  22
ENDBRANCH  20  21
ENDBRANCH   9  20
BRANCH  18  25
HETATM   25  N3  UNL     1      22.545   3.258  47.953  1.00  0.00     0.087 N 
HETATM   26  H20 UNL     1      23.143   4.093  48.011  1.00  0.00     0.313 HD
HETATM   27  H21 UNL     1      22.643   2.716  47.081  1.00  0.00     0.313 HD
ENDBRANCH  18  25
TORSDOF 5
ENDMDL
MODEL 4
REMARK VINA RESULT:      -6.5      2.924      4.145
REMARK  5 active torsions:
REMARK  status: ('A' for Active; 'I' for Inactive)
REMARK    1  A    between atoms: C8_9  and  O1_10 
REMARK    2  A    between atoms: O1_10  and  C9_11 
REMARK    3  A    between atoms: C9_11  and  C10_12 
REMARK    4  A    between atoms: C10_12  and  O2_13 
REMARK    5  A    between atoms: C18_23  and  N3_24 
ROOT
HETATM    1  C1  UNL     1      21.366  -0.476  54.773  1.00  0.00     0.018 C 
HETATM    2  C2  UNL     1      20.933  -0.240  53.649  1.00  0.00    -0.078 C 
HETATM    3  C3  UNL     1      20.441   0.038  52.302  1.00  0.00     0.020 C 
HETATM    4  C4  UNL     1      19.181  -0.335  52.156  1.00  0.00     0.040 C 
HETATM    5  C5  UNL     1      18.339  -0.943  53.137  1.00  0.00     0.118 C 
HETATM    6  N1  UNL     1      17.158  -1.048  52.624  1.00  0.00    -0.265 NA
HETATM    7  C6  UNL     1      16.870  -0.590  51.306  1.00  0.00     0.039 C 
HETATM    8  C7  UNL     1      16.044   0.317  51.883  1.00  0.00     0.064 C 
HETATM    9  C8  UNL     1      16.192   1.664  51.284  1.00  0.00     0.075 C 
HETATM   10  C12 UNL     1      16.999   2.081  50.291  1.00  0.00    -0.012 C 
HETATM   11  C13 UNL     1      17.628   3.391  50.175  1.00  0.00     0.065 C 
HETATM   12  C14 UNL     1      18.238   4.043  51.336  1.00  0.00     0.174 C 
HETATM   13  O3  UNL     1      19.447   3.752  51.836  1.00  0.00    -0.370 OA
HETATM   14  C15 UNL     1      19.740   2.433  52.170  1.00  0.00     0.317 C 
HETATM   15  N2  UNL     1      19.689   1.862  50.833  1.00  0.00    -0.262 NA
HETATM   16  C16 UNL     1      20.821   1.380  50.442  1.00  0.00     0.083 C 
HETATM   17  C17 UNL     1      21.392   0.638  51.379  1.00  0.00     0.054 C 
HETATM   18  C18 UNL     1      17.036   0.956  49.328  1.00  0.00     0.255 C 
HETATM   19  C19 UNL     1      16.835  -0.410  49.859  1.00  0.00     0.099 C 
ENDROOT
BRANCH   9  20
HETATM   20  O1  UNL     1      15.480   2.829  51.657  1.00  0.00    -0.349 OA
BRANCH  20  21
HETATM   21  C9  UNL     1      14.801   2.910  52.886  1.00  0.00     0.201 C 
BRANCH  21  22
HETATM   22  C10 UNL     1      14.933   4.318  53.401  1.00  0.00     0.193 C 
BRANCH  22  23
HETATM   23  O2  UNL     1      13.820   4.698  54.101  1.00  0.00    -0.394 OA
HETATM   24  C11 UNL     1      12.614   4.571  53.447  1.00  0.00     0.201 C 
ENDBRANCH  22  23
ENDBRANCH  21  22
ENDBRANCH  20  21
ENDBRANCH   9  20
BRANCH  18  25
HETATM   25  N3  UNL     1      16.047   1.309  48.305  1.00  0.00     0.087 N 
HETATM   26  H20 UNL     1      15.803   2.308  48.329  1.00  0.00     0.313 HD
HETATM   27  H21 UNL     1      16.293   0.947  47.372  1.00  0.00     0.313 HD
ENDBRANCH  18  25
TORSDOF 5
ENDMDL
MODEL 5
REMARK VINA RESULT:      -6.5      2.832      6.288
REMARK  5 active torsions:
REMARK  status: ('A' for Active; 'I' for Inactive)
REMARK    1  A    between atoms: C8_9  and  O1_10 
REMARK    2  A    between atoms: O1_10  and  C9_11 
REMARK    3  A    between atoms: C9_11  and  C10_12 
REMARK    4  A    between atoms: C10_12  and  O2_13 
REMARK    5  A    between atoms: C18_23  and  N3_24 
ROOT
HETATM    1  C1  UNL     1      21.903  -1.753  53.388  1.00  0.00     0.018 C 
HETATM    2  C2  UNL     1      21.693  -0.599  53.027  1.00  0.00    -0.078 C 
HETATM    3  C3  UNL     1      21.419   0.772  52.603  1.00  0.00     0.020 C 
HETATM    4  C4  UNL     1      22.453   1.566  52.818  1.00  0.00     0.040 C 
HETATM    5  C5  UNL     1      23.712   1.211  53.392  1.00  0.00     0.118 C 
HETATM    6  N1  UNL     1      24.477   2.251  53.325  1.00  0.00    -0.265 NA
HETATM    7  C6  UNL     1      24.029   3.474  52.747  1.00  0.00     0.039 C 
HETATM    8  C7  UNL     1      24.972   3.281  51.793  1.00  0.00     0.064 C 
HETATM    9  C8  UNL     1      24.456   3.565  50.434  1.00  0.00     0.075 C 
HETATM   10  C12 UNL     1      23.232   3.970  50.045  1.00  0.00    -0.012 C 
HETATM   11  C13 UNL     1      22.548   3.604  48.811  1.00  0.00     0.065 C 
HETATM   12  C14 UNL     1      22.567   2.227  48.315  1.00  0.00     0.174 C 
HETATM   13  O3  UNL     1      21.798   1.231  48.776  1.00  0.00    -0.370 OA
HETATM   14  C15 UNL     1      21.800   0.953  50.140  1.00  0.00     0.317 C 
HETATM   15  N2  UNL     1      21.205   2.196  50.608  1.00  0.00    -0.262 NA
HETATM   16  C16 UNL     1      20.065   2.026  51.189  1.00  0.00     0.083 C 
HETATM   17  C17 UNL     1      20.095   1.024  52.054  1.00  0.00     0.054 C 
HETATM   18  C18 UNL     1      22.787   4.912  51.098  1.00  0.00     0.255 C 
HETATM   19  C19 UNL     1      23.317   4.715  52.466  1.00  0.00     0.099 C 
ENDROOT
BRANCH   9  20
HETATM   20  O1  UNL     1      25.181   3.460  49.223  1.00  0.00    -0.349 OA
BRANCH  20  21
HETATM   21  C9  UNL     1      26.587   3.450  49.211  1.00  0.00     0.201 C 
BRANCH  21  22
HETATM   22  C10 UNL     1      27.062   4.852  48.935  1.00  0.00     0.193 C 
BRANCH  22  23
HETATM   23  O2  UNL     1      28.397   4.874  48.632  1.00  0.00    -0.394 OA
HETATM   24  C11 UNL     1      28.881   6.046  48.092  1.00  0.00     0.201 C 
ENDBRANCH  22  23
ENDBRANCH  21  22
ENDBRANCH  20  21
ENDBRANCH   9  20
BRANCH  18  25
HETATM   25  N3  UNL     1      23.099   6.241  50.564  1.00  0.00     0.087 N 
HETATM   26  H20 UNL     1      24.073   6.516  50.749  1.00  0.00     0.313 HD
HETATM   27  H21 UNL     1      22.796   6.358  49.585  1.00  0.00     0.313 HD
ENDBRANCH  18  25
TORSDOF 5
ENDMDL
MODEL 6
REMARK VINA RESULT:      -6.3      9.636     12.769
REMARK  5 active torsions:
REMARK  status: ('A' for Active; 'I' for Inactive)
REMARK    1  A    between atoms: C8_9  and  O1_10 
REMARK    2  A    between atoms: O1_10  and  C9_11 
REMARK    3  A    between atoms: C9_11  and  C10_12 
REMARK    4  A    between atoms: C10_12  and  O2_13 
REMARK    5  A    between atoms: C18_23  and  N3_24 
ROOT
HETATM    1  C1  UNL     1      32.901   1.577  47.034  1.00  0.00     0.018 C 
HETATM    2  C2  UNL     1      33.388   2.699  47.129  1.00  0.00    -0.078 C 
HETATM    3  C3  UNL     1      33.988   4.026  47.256  1.00  0.00     0.020 C 
HETATM    4  C4  UNL     1      33.652   4.811  46.247  1.00  0.00     0.040 C 
HETATM    5  C5  UNL     1      32.820   4.482  45.133  1.00  0.00     0.118 C 
HETATM    6  N1  UNL     1      32.659   5.558  44.436  1.00  0.00    -0.265 NA
HETATM    7  C6  UNL     1      33.252   6.795  44.822  1.00  0.00     0.039 C 
HETATM    8  C7  UNL     1      31.990   7.261  44.991  1.00  0.00     0.064 C 
HETATM    9  C8  UNL     1      31.848   8.041  46.242  1.00  0.00     0.075 C 
HETATM   10  C12 UNL     1      32.765   8.334  47.183  1.00  0.00    -0.012 C 
HETATM   11  C13 UNL     1      32.528   8.464  48.615  1.00  0.00     0.065 C 
HETATM   12  C14 UNL     1      31.674   7.513  49.331  1.00  0.00     0.174 C 
HETATM   13  O3  UNL     1      32.048   6.289  49.728  1.00  0.00    -0.370 OA
HETATM   14  C15 UNL     1      32.586   5.410  48.791  1.00  0.00     0.317 C 
HETATM   15  N2  UNL     1      33.804   6.146  48.489  1.00  0.00    -0.262 NA
HETATM   16  C16 UNL     1      34.877   5.505  48.813  1.00  0.00     0.083 C 
HETATM   17  C17 UNL     1      34.837   4.242  48.417  1.00  0.00     0.054 C 
HETATM   18  C18 UNL     1      34.023   8.565  46.435  1.00  0.00     0.255 C 
HETATM   19  C19 UNL     1      34.197   7.858  45.147  1.00  0.00     0.099 C 
ENDROOT
BRANCH   9  20
HETATM   20  O1  UNL     1      30.666   8.660  46.714  1.00  0.00    -0.349 OA
BRANCH  20  21
HETATM   21  C9  UNL     1      29.395   8.187  46.344  1.00  0.00     0.201 C 
BRANCH  21  22
HETATM   22  C10 UNL     1      28.556   8.079  47.590  1.00  0.00     0.193 C 
BRANCH  22  23
HETATM   23  O2  UNL     1      27.905   6.876  47.649  1.00  0.00    -0.394 OA
HETATM   24  C11 UNL     1      28.580   5.847  48.269  1.00  0.00     0.201 C 
ENDBRANCH  22  23
ENDBRANCH  21  22
ENDBRANCH  20  21
ENDBRANCH   9  20
BRANCH  18  25
HETATM   25  N3  UNL     1      34.106  10.021  46.289  1.00  0.00     0.087 N 
HETATM   26  H20 UNL     1      34.737  10.300  45.526  1.00  0.00     0.313 HD
HETATM   27  H21 UNL     1      33.179  10.473  46.269  1.00  0.00     0.313 HD
ENDBRANCH  18  25
TORSDOF 5
ENDMDL
MODEL 7
REMARK VINA RESULT:      -6.1      9.727     13.479
REMARK  5 active torsions:
REMARK  status: ('A' for Active; 'I' for Inactive)
REMARK    1  A    between atoms: C8_9  and  O1_10 
REMARK    2  A    between atoms: O1_10  and  C9_11 
REMARK    3  A    between atoms: C9_11  and  C10_12 
REMARK    4  A    between atoms: C10_12  and  O2_13 
REMARK    5  A    between atoms: C18_23  and  N3_24 
ROOT
HETATM    1  C1  UNL     1      26.901   7.368  47.866  1.00  0.00     0.018 C 
HETATM    2  C2  UNL     1      28.072   7.571  48.171  1.00  0.00    -0.078 C 
HETATM    3  C3  UNL     1      29.458   7.831  48.552  1.00  0.00     0.020 C 
HETATM    4  C4  UNL     1      30.214   6.756  48.408  1.00  0.00     0.040 C 
HETATM    5  C5  UNL     1      29.805   5.466  47.950  1.00  0.00     0.118 C 
HETATM    6  N1  UNL     1      30.865   4.733  47.855  1.00  0.00    -0.265 NA
HETATM    7  C6  UNL     1      32.158   5.242  48.170  1.00  0.00     0.039 C 
HETATM    8  C7  UNL     1      32.466   5.060  46.862  1.00  0.00     0.064 C 
HETATM    9  C8  UNL     1      33.204   6.213  46.298  1.00  0.00     0.075 C 
HETATM   10  C12 UNL     1      33.590   7.361  46.888  1.00  0.00    -0.012 C 
HETATM   11  C13 UNL     1      33.668   8.674  46.262  1.00  0.00     0.065 C 
HETATM   12  C14 UNL     1      32.611   9.151  45.367  1.00  0.00     0.174 C 
HETATM   13  O3  UNL     1      31.434   9.654  45.765  1.00  0.00    -0.370 OA
HETATM   14  C15 UNL     1      30.641   8.911  46.635  1.00  0.00     0.317 C 
HETATM   15  N2  UNL     1      31.521   8.934  47.793  1.00  0.00    -0.262 NA
HETATM   16  C16 UNL     1      31.008   9.545  48.808  1.00  0.00     0.083 C 
HETATM   17  C17 UNL     1      29.756   9.174  49.027  1.00  0.00     0.054 C 
HETATM   18  C18 UNL     1      33.981   6.973  48.262  1.00  0.00     0.255 C 
HETATM   19  C19 UNL     1      33.321   5.791  48.859  1.00  0.00     0.099 C 
ENDROOT
BRANCH   9  20
HETATM   20  O1  UNL     1      33.670   6.340  44.968  1.00  0.00    -0.349 OA
BRANCH  20  21
HETATM   21  C9  UNL     1      34.292   5.268  44.305  1.00  0.00     0.201 C 
BRANCH  21  22
HETATM   22  C10 UNL     1      33.329   4.733  43.278  1.00  0.00     0.193 C 
BRANCH  22  23
HETATM   23  O2  UNL     1      33.888   4.729  42.028  1.00  0.00    -0.394 OA
HETATM   24  C11 UNL     1      33.234   3.983  41.071  1.00  0.00     0.201 C 
ENDBRANCH  22  23
ENDBRANCH  21  22
ENDBRANCH  20  21
ENDBRANCH   9  20
BRANCH  18  25
HETATM   25  N3  UNL     1      35.440   6.829  48.207  1.00  0.00     0.087 N 
HETATM   26  H20 UNL     1      35.735   6.124  47.520  1.00  0.00     0.313 HD
HETATM   27  H21 UNL     1      35.926   7.736  48.133  1.00  0.00     0.313 HD
ENDBRANCH  18  25
TORSDOF 5
ENDMDL
MODEL 8
REMARK VINA RESULT:      -6.0      2.854      5.020
REMARK  5 active torsions:
REMARK  status: ('A' for Active; 'I' for Inactive)
REMARK    1  A    between atoms: C8_9  and  O1_10 
REMARK    2  A    between atoms: O1_10  and  C9_11 
REMARK    3  A    between atoms: C9_11  and  C10_12 
REMARK    4  A    between atoms: C10_12  and  O2_13 
REMARK    5  A    between atoms: C18_23  and  N3_24 
ROOT
HETATM    1  C1  UNL     1      25.598  -0.786  53.023  1.00  0.00     0.018 C 
HETATM    2  C2  UNL     1      24.727   0.075  52.934  1.00  0.00    -0.078 C 
HETATM    3  C3  UNL     1      23.681   1.091  52.851  1.00  0.00     0.020 C 
HETATM    4  C4  UNL     1      24.099   2.171  52.214  1.00  0.00     0.040 C 
HETATM    5  C5  UNL     1      25.393   2.399  51.654  1.00  0.00     0.118 C 
HETATM    6  N1  UNL     1      25.354   3.530  51.031  1.00  0.00    -0.265 NA
HETATM    7  C6  UNL     1      24.165   4.314  50.976  1.00  0.00     0.039 C 
HETATM    8  C7  UNL     1      24.171   4.094  49.638  1.00  0.00     0.064 C 
HETATM    9  C8  UNL     1      22.825   3.755  49.123  1.00  0.00     0.075 C 
HETATM   10  C12 UNL     1      21.654   3.644  49.779  1.00  0.00    -0.012 C 
HETATM   11  C13 UNL     1      20.574   2.714  49.476  1.00  0.00     0.065 C 
HETATM   12  C14 UNL     1      20.851   1.315  49.141  1.00  0.00     0.174 C 
HETATM   13  O3  UNL     1      21.135   0.351  50.028  1.00  0.00    -0.370 OA
HETATM   14  C15 UNL     1      22.174   0.551  50.933  1.00  0.00     0.317 C 
HETATM   15  N2  UNL     1      21.593   1.655  51.681  1.00  0.00    -0.262 NA
HETATM   16  C16 UNL     1      21.374   1.369  52.921  1.00  0.00     0.083 C 
HETATM   17  C17 UNL     1      22.410   0.760  53.477  1.00  0.00     0.054 C 
HETATM   18  C18 UNL     1      21.686   4.712  50.805  1.00  0.00     0.255 C 
HETATM   19  C19 UNL     1      23.009   5.136  51.316  1.00  0.00     0.099 C 
ENDROOT
BRANCH   9  20
HETATM   20  O1  UNL     1      22.490   3.469  47.778  1.00  0.00    -0.349 OA
BRANCH  20  21
HETATM   21  C9  UNL     1      22.175   4.494  46.869  1.00  0.00     0.201 C 
BRANCH  21  22
HETATM   22  C10 UNL     1      21.095   3.986  45.949  1.00  0.00     0.193 C 
BRANCH  22  23
HETATM   23  O2  UNL     1      21.571   3.802  44.679  1.00  0.00    -0.394 OA
HETATM   24  C11 UNL     1      20.733   4.182  43.653  1.00  0.00     0.201 C 
ENDBRANCH  22  23
ENDBRANCH  21  22
ENDBRANCH  20  21
ENDBRANCH   9  20
BRANCH  18  25
HETATM   25  N3  UNL     1      20.935   5.822  50.210  1.00  0.00     0.087 N 
HETATM   26  H20 UNL     1      19.946   5.818  50.492  1.00  0.00     0.313 HD
HETATM   27  H21 UNL     1      21.412   6.729  50.321  1.00  0.00     0.313 HD
ENDBRANCH  18  25
TORSDOF 5
ENDMDL
MODEL 9
REMARK VINA RESULT:      -5.7      9.124     12.159
REMARK  5 active torsions:
REMARK  status: ('A' for Active; 'I' for Inactive)
REMARK    1  A    between atoms: C8_9  and  O1_10 
REMARK    2  A    between atoms: O1_10  and  C9_11 
REMARK    3  A    between atoms: C9_11  and  C10_12 
REMARK    4  A    between atoms: C10_12  and  O2_13 
REMARK    5  A    between atoms: C18_23  and  N3_24 
ROOT
HETATM    1  C1  UNL     1      27.133   5.382  48.897  1.00  0.00     0.018 C 
HETATM    2  C2  UNL     1      27.834   6.144  48.237  1.00  0.00    -0.078 C 
HETATM    3  C3  UNL     1      28.683   7.032  47.447  1.00  0.00     0.020 C 
HETATM    4  C4  UNL     1      27.991   8.028  46.920  1.00  0.00     0.040 C 
HETATM    5  C5  UNL     1      26.590   8.274  47.053  1.00  0.00     0.118 C 
HETATM    6  N1  UNL     1      26.337   9.401  46.475  1.00  0.00    -0.265 NA
HETATM    7  C6  UNL     1      27.363  10.175  45.859  1.00  0.00     0.039 C 
HETATM    8  C7  UNL     1      27.113  11.119  46.800  1.00  0.00     0.064 C 
HETATM    9  C8  UNL     1      28.359  11.682  47.369  1.00  0.00     0.075 C 
HETATM   10  C12 UNL     1      29.643  11.392  47.086  1.00  0.00    -0.012 C 
HETATM   11  C13 UNL     1      30.760  11.395  48.022  1.00  0.00     0.065 C 
HETATM   12  C14 UNL     1      30.625  10.824  49.363  1.00  0.00     0.174 C 
HETATM   13  O3  UNL     1      30.672   9.516  49.653  1.00  0.00    -0.370 OA
HETATM   14  C15 UNL     1      29.824   8.643  48.977  1.00  0.00     0.317 C 
HETATM   15  N2  UNL     1      30.382   8.800  47.643  1.00  0.00    -0.262 NA
HETATM   16  C16 UNL     1      30.890   7.710  47.174  1.00  0.00     0.083 C 
HETATM   17  C17 UNL     1      30.090   6.671  47.360  1.00  0.00     0.054 C 
HETATM   18  C18 UNL     1      29.669  11.153  45.624  1.00  0.00     0.255 C 
HETATM   19  C19 UNL     1      28.433  10.646  44.987  1.00  0.00     0.099 C 
ENDROOT
BRANCH   9  20
HETATM   20  O1  UNL     1      28.447  12.681  48.368  1.00  0.00    -0.349 OA
BRANCH  20  21
HETATM   21  C9  UNL     1      27.690  13.863  48.289  1.00  0.00     0.201 C 
BRANCH  21  22
HETATM   22  C10 UNL     1      27.993  14.523  46.970  1.00  0.00     0.193 C 
BRANCH  22  23
HETATM   23  O2  UNL     1      29.265  15.031  46.948  1.00  0.00    -0.394 OA
HETATM   24  C11 UNL     1      29.442  16.202  46.244  1.00  0.00     0.201 C 
ENDBRANCH  22  23
ENDBRANCH  21  22
ENDBRANCH  20  21
ENDBRANCH   9  20
BRANCH  18  25
HETATM   25  N3  UNL     1      30.113  12.426  45.047  1.00  0.00     0.087 N 
HETATM   26  H20 UNL     1      30.627  12.295  44.166  1.00  0.00     0.313 HD
HETATM   27  H21 UNL     1      29.360  13.129  45.008  1.00  0.00     0.313 HD
ENDBRANCH  18  25
TORSDOF 5
ENDMDL
