MODEL 1
REMARK VINA RESULT:      -8.7      0.000      0.000
REMARK  7 active torsions:
REMARK  status: ('A' for Active; 'I' for Inactive)
REMARK    1  A    between atoms: C2_2  and  C3_3 
REMARK       I    between atoms: C3_3  and  N1_5 
REMARK    2  A    between atoms: N1_5  and  C4_6 
REMARK    3  A    between atoms: C8_10  and  O2_11 
REMARK    4  A    between atoms: O2_11  and  C9_12 
REMARK    5  A    between atoms: C9_12  and  N2_13 
REMARK    6  A    between atoms: C12_16  and  N3_17 
REMARK    7  A    between atoms: N3_17  and  C13_18 
ROOT
HETATM    1  N2  UNL     1      22.438  -0.602  53.470  1.00  0.00    -0.255 N 
HETATM    2  C10 UNL     1      21.933  -1.107  54.610  1.00  0.00     0.118 A 
HETATM    3  C11 UNL     1      23.039  -1.284  55.415  1.00  0.00     0.071 A 
HETATM    4  C12 UNL     1      24.194  -0.894  54.777  1.00  0.00     0.164 A 
HETATM    5  N7  UNL     1      23.748  -0.483  53.576  1.00  0.00    -0.152 NA
ENDROOT
BRANCH   1   6
HETATM    6  C9  UNL     1      21.731  -0.217  52.254  1.00  0.00     0.325 C 
BRANCH   6   7
HETATM    7  O2  UNL     1      22.046   1.143  51.978  1.00  0.00    -0.330 OA
BRANCH   7   8
HETATM    8  C8  UNL     1      22.195   1.544  50.670  1.00  0.00     0.073 A 
HETATM    9  C7  UNL     1      21.586   0.972  49.575  1.00  0.00     0.037 A 
HETATM   10  C6  UNL     1      21.835   1.482  48.335  1.00  0.00     0.005 A 
HETATM   11  C5  UNL     1      22.671   2.555  48.096  1.00  0.00     0.029 A 
HETATM   12  C4  UNL     1      23.280   3.124  49.200  1.00  0.00     0.037 A 
HETATM   13  C18 UNL     1      23.030   2.610  50.451  1.00  0.00     0.066 A 
BRANCH  12  14
HETATM   14  N1  UNL     1      24.157   4.240  48.992  1.00  0.00    -0.324 N 
HETATM   15  C3  UNL     1      25.501   4.005  49.377  1.00  0.00     0.244 C 
HETATM   16  O1  UNL     1      25.981   2.950  49.864  1.00  0.00    -0.268 OA
HETATM   17  H4  UNL     1      23.857   5.155  48.594  1.00  0.00     0.169 HD
BRANCH  15  18
HETATM   18  C2  UNL     1      26.443   5.109  49.187  1.00  0.00     0.064 C 
HETATM   19  C1  UNL     1      27.629   5.077  48.599  1.00  0.00     0.017 C 
ENDBRANCH  15  18
ENDBRANCH  12  14
ENDBRANCH   7   8
ENDBRANCH   6   7
ENDBRANCH   1   6
BRANCH   4  20
HETATM   20  N3  UNL     1      25.548  -0.893  55.206  1.00  0.00    -0.172 N 
HETATM   21  H12 UNL     1      25.815  -1.439  56.054  1.00  0.00     0.186 HD
BRANCH  20  22
HETATM   22  C13 UNL     1      26.559  -0.170  54.518  1.00  0.00     0.699 C 
HETATM   23  N4  UNL     1      26.429   1.090  54.533  1.00  0.00    -0.088 NA
HETATM   24  C14 UNL     1      27.156   2.205  54.005  1.00  0.00     0.290 C 
HETATM   25  N5  UNL     1      28.563   2.024  53.857  1.00  0.00    -0.373 N 
HETATM   26  C15 UNL     1      29.196   0.781  53.689  1.00  0.00     0.032 A 
HETATM   27  H15 UNL     1      29.149   2.887  53.877  1.00  0.00     0.161 HD
HETATM   28  C16 UNL     1      30.032  -0.322  53.635  1.00  0.00     0.032 A 
HETATM   29  C17 UNL     1      28.716  -0.442  53.147  1.00  0.00     0.174 A 
HETATM   30  N6  UNL     1      27.572  -0.918  53.905  1.00  0.00    -0.211 N 
HETATM   31  H18 UNL     1      27.480  -1.971  54.016  1.00  0.00     0.178 HD
ENDBRANCH  20  22
ENDBRANCH   4  20
TORSDOF 7
ENDMDL
MODEL 2
REMARK VINA RESULT:      -8.5      1.417      1.724
REMARK  7 active torsions:
REMARK  status: ('A' for Active; 'I' for Inactive)
REMARK    1  A    between atoms: C2_2  and  C3_3 
REMARK       I    between atoms: C3_3  and  N1_5 
REMARK    2  A    between atoms: N1_5  and  C4_6 
REMARK    3  A    between atoms: C8_10  and  O2_11 
REMARK    4  A    between atoms: O2_11  and  C9_12 
REMARK    5  A    between atoms: C9_12  and  N2_13 
REMARK    6  A    between atoms: C12_16  and  N3_17 
REMARK    7  A    between atoms: N3_17  and  C13_18 
ROOT
HETATM    1  N2  UNL     1      22.269  -0.394  53.259  1.00  0.00    -0.255 N 
HETATM    2  C10 UNL     1      21.703  -1.028  54.301  1.00  0.00     0.118 A 
HETATM    3  C11 UNL     1      22.763  -1.304  55.139  1.00  0.00     0.071 A 
HETATM    4  C12 UNL     1      23.951  -0.846  54.616  1.00  0.00     0.164 A 
HETATM    5  N7  UNL     1      23.571  -0.294  53.451  1.00  0.00    -0.152 NA
ENDROOT
BRANCH   1   6
HETATM    6  C9  UNL     1      21.630   0.136  52.060  1.00  0.00     0.325 C 
BRANCH   6   7
HETATM    7  O2  UNL     1      22.600   0.894  51.347  1.00  0.00    -0.330 OA
BRANCH   7   8
HETATM    8  C8  UNL     1      22.643   2.259  51.520  1.00  0.00     0.073 A 
HETATM    9  C7  UNL     1      21.628   3.042  52.021  1.00  0.00     0.037 A 
HETATM   10  C6  UNL     1      21.820   4.388  52.133  1.00  0.00     0.005 A 
HETATM   11  C5  UNL     1      22.987   5.032  51.772  1.00  0.00     0.029 A 
HETATM   12  C4  UNL     1      24.003   4.239  51.269  1.00  0.00     0.037 A 
HETATM   13  C18 UNL     1      23.810   2.883  51.156  1.00  0.00     0.066 A 
BRANCH  12  14
HETATM   14  N1  UNL     1      25.231   4.873  50.883  1.00  0.00    -0.324 N 
HETATM   15  C3  UNL     1      25.269   5.293  49.529  1.00  0.00     0.244 C 
HETATM   16  O1  UNL     1      24.363   5.167  48.667  1.00  0.00    -0.268 OA
HETATM   17  H4  UNL     1      26.039   5.024  51.522  1.00  0.00     0.169 HD
BRANCH  15  18
HETATM   18  C2  UNL     1      26.498   5.947  49.077  1.00  0.00     0.064 C 
HETATM   19  C1  UNL     1      27.556   5.391  48.508  1.00  0.00     0.017 C 
ENDBRANCH  15  18
ENDBRANCH  12  14
ENDBRANCH   7   8
ENDBRANCH   6   7
ENDBRANCH   1   6
BRANCH   4  20
HETATM   20  N3  UNL     1      25.280  -0.903  55.117  1.00  0.00    -0.172 N 
HETATM   21  H12 UNL     1      25.477  -1.456  55.979  1.00  0.00     0.186 HD
BRANCH  20  22
HETATM   22  C13 UNL     1      26.355  -0.227  54.482  1.00  0.00     0.699 C 
HETATM   23  N4  UNL     1      26.301   1.038  54.524  1.00  0.00    -0.088 NA
HETATM   24  C14 UNL     1      27.112   2.118  54.050  1.00  0.00     0.290 C 
HETATM   25  N5  UNL     1      28.510   1.856  53.945  1.00  0.00    -0.373 N 
HETATM   26  C15 UNL     1      29.072   0.580  53.768  1.00  0.00     0.032 A 
HETATM   27  H15 UNL     1      29.146   2.681  54.007  1.00  0.00     0.161 HD
HETATM   28  C16 UNL     1      29.842  -0.570  53.714  1.00  0.00     0.032 A 
HETATM   29  C17 UNL     1      28.540  -0.598  53.179  1.00  0.00     0.174 A 
HETATM   30  N6  UNL     1      27.343  -1.021  53.885  1.00  0.00    -0.211 N 
HETATM   31  H18 UNL     1      27.184  -2.069  53.966  1.00  0.00     0.178 HD
ENDBRANCH  20  22
ENDBRANCH   4  20
TORSDOF 7
ENDMDL
MODEL 3
REMARK VINA RESULT:      -8.5      4.455      8.163
REMARK  7 active torsions:
REMARK  status: ('A' for Active; 'I' for Inactive)
REMARK    1  A    between atoms: C2_2  and  C3_3 
REMARK       I    between atoms: C3_3  and  N1_5 
REMARK    2  A    between atoms: N1_5  and  C4_6 
REMARK    3  A    between atoms: C8_10  and  O2_11 
REMARK    4  A    between atoms: O2_11  and  C9_12 
REMARK    5  A    between atoms: C9_12  and  N2_13 
REMARK    6  A    between atoms: C12_16  and  N3_17 
REMARK    7  A    between atoms: N3_17  and  C13_18 
ROOT
HETATM    1  N2  UNL     1      27.874   5.222  48.582  1.00  0.00    -0.255 N 
HETATM    2  C10 UNL     1      27.550   6.471  48.204  1.00  0.00     0.118 A 
HETATM    3  C11 UNL     1      28.768   7.100  48.049  1.00  0.00     0.071 A 
HETATM    4  C12 UNL     1      29.813   6.248  48.326  1.00  0.00     0.164 A 
HETATM    5  N7  UNL     1      29.187   5.103  48.650  1.00  0.00    -0.152 NA
ENDROOT
BRANCH   1   6
HETATM    6  C9  UNL     1      26.988   4.105  48.891  1.00  0.00     0.325 C 
BRANCH   6   7
HETATM    7  O2  UNL     1      26.149   4.499  49.971  1.00  0.00    -0.330 OA
BRANCH   7   8
HETATM    8  C8  UNL     1      25.765   3.558  50.898  1.00  0.00     0.073 A 
HETATM    9  C7  UNL     1      24.527   3.472  51.496  1.00  0.00     0.037 A 
HETATM   10  C6  UNL     1      24.294   2.479  52.401  1.00  0.00     0.005 A 
HETATM   11  C5  UNL     1      25.232   1.534  52.766  1.00  0.00     0.029 A 
HETATM   12  C4  UNL     1      26.473   1.626  52.162  1.00  0.00     0.037 A 
HETATM   13  C18 UNL     1      26.708   2.627  51.250  1.00  0.00     0.066 A 
BRANCH  12  14
HETATM   14  N1  UNL     1      27.474   0.662  52.517  1.00  0.00    -0.324 N 
HETATM   15  C3  UNL     1      28.356   1.087  53.542  1.00  0.00     0.244 C 
HETATM   16  O1  UNL     1      28.345   2.189  54.148  1.00  0.00    -0.268 OA
HETATM   17  H4  UNL     1      27.567  -0.277  52.075  1.00  0.00     0.169 HD
BRANCH  15  18
HETATM   18  C2  UNL     1      29.399   0.144  53.947  1.00  0.00     0.064 C 
HETATM   19  C1  UNL     1      29.583  -1.099  53.529  1.00  0.00     0.017 C 
ENDBRANCH  15  18
ENDBRANCH  12  14
ENDBRANCH   7   8
ENDBRANCH   6   7
ENDBRANCH   1   6
BRANCH   4  20
HETATM   20  N3  UNL     1      31.219   6.450  48.300  1.00  0.00    -0.172 N 
HETATM   21  H12 UNL     1      31.606   7.380  48.574  1.00  0.00     0.186 HD
BRANCH  20  22
HETATM   22  C13 UNL     1      32.122   5.426  47.911  1.00  0.00     0.699 C 
HETATM   23  N4  UNL     1      33.276   5.495  48.430  1.00  0.00    -0.088 NA
HETATM   24  C14 UNL     1      34.484   4.730  48.355  1.00  0.00     0.290 C 
HETATM   25  N5  UNL     1      34.331   3.338  48.083  1.00  0.00    -0.373 N 
HETATM   26  C15 UNL     1      33.237   2.772  47.408  1.00  0.00     0.032 A 
HETATM   27  H15 UNL     1      35.094   2.710  48.418  1.00  0.00     0.161 HD
HETATM   28  C16 UNL     1      32.220   1.991  46.882  1.00  0.00     0.032 A 
HETATM   29  C17 UNL     1      32.348   3.325  46.448  1.00  0.00     0.174 A 
HETATM   30  N6  UNL     1      31.647   4.468  47.005  1.00  0.00    -0.211 N 
HETATM   31  H18 UNL     1      30.641   4.608  46.693  1.00  0.00     0.178 HD
ENDBRANCH  20  22
ENDBRANCH   4  20
TORSDOF 7
ENDMDL
MODEL 4
REMARK VINA RESULT:      -8.4      3.210      7.279
REMARK  7 active torsions:
REMARK  status: ('A' for Active; 'I' for Inactive)
REMARK    1  A    between atoms: C2_2  and  C3_3 
REMARK       I    between atoms: C3_3  and  N1_5 
REMARK    2  A    between atoms: N1_5  and  C4_6 
REMARK    3  A    between atoms: C8_10  and  O2_11 
REMARK    4  A    between atoms: O2_11  and  C9_12 
REMARK    5  A    between atoms: C9_12  and  N2_13 
REMARK    6  A    between atoms: C12_16  and  N3_17 
REMARK    7  A    between atoms: N3_17  and  C13_18 
ROOT
HETATM    1  N2  UNL     1      23.100   5.247  51.029  1.00  0.00    -0.255 N 
HETATM    2  C10 UNL     1      22.133   6.127  50.714  1.00  0.00     0.118 A 
HETATM    3  C11 UNL     1      22.795   7.333  50.622  1.00  0.00     0.071 A 
HETATM    4  C12 UNL     1      24.140   7.189  50.875  1.00  0.00     0.164 A 
HETATM    5  N7  UNL     1      24.259   5.872  51.120  1.00  0.00    -0.152 NA
ENDROOT
BRANCH   1   6
HETATM    6  C9  UNL     1      22.987   3.811  51.255  1.00  0.00     0.325 C 
BRANCH   6   7
HETATM    7  O2  UNL     1      23.763   3.487  52.403  1.00  0.00    -0.330 OA
BRANCH   7   8
HETATM    8  C8  UNL     1      24.008   2.165  52.695  1.00  0.00     0.073 A 
HETATM    9  C7  UNL     1      23.063   1.225  53.039  1.00  0.00     0.037 A 
HETATM   10  C6  UNL     1      23.461  -0.053  53.302  1.00  0.00     0.005 A 
HETATM   11  C5  UNL     1      24.774  -0.478  53.245  1.00  0.00     0.029 A 
HETATM   12  C4  UNL     1      25.718   0.472  52.898  1.00  0.00     0.037 A 
HETATM   13  C18 UNL     1      25.317   1.759  52.634  1.00  0.00     0.066 A 
BRANCH  12  14
HETATM   14  N1  UNL     1      27.093   0.068  52.829  1.00  0.00    -0.324 N 
HETATM   15  C3  UNL     1      27.821   0.267  54.030  1.00  0.00     0.244 C 
HETATM   16  O1  UNL     1      27.391   0.746  55.110  1.00  0.00    -0.268 OA
HETATM   17  H4  UNL     1      27.542  -0.340  51.982  1.00  0.00     0.169 HD
BRANCH  15  18
HETATM   18  C2  UNL     1      29.230  -0.127  54.019  1.00  0.00     0.064 C 
HETATM   19  C1  UNL     1      29.763  -1.235  53.527  1.00  0.00     0.017 C 
ENDBRANCH  15  18
ENDBRANCH  12  14
ENDBRANCH   7   8
ENDBRANCH   6   7
ENDBRANCH   1   6
BRANCH   4  20
HETATM   20  N3  UNL     1      25.198   8.138  50.892  1.00  0.00    -0.172 N 
HETATM   21  H12 UNL     1      25.157   8.935  51.564  1.00  0.00     0.186 HD
BRANCH  20  22
HETATM   22  C13 UNL     1      26.314   8.041  50.020  1.00  0.00     0.699 C 
HETATM   23  N4  UNL     1      27.180   8.958  50.144  1.00  0.00    -0.088 NA
HETATM   24  C14 UNL     1      28.426   9.286  49.521  1.00  0.00     0.290 C 
HETATM   25  N5  UNL     1      29.185   8.188  49.016  1.00  0.00    -0.373 N 
HETATM   26  C15 UNL     1      28.639   6.955  48.621  1.00  0.00     0.032 A 
HETATM   27  H15 UNL     1      30.217   8.327  48.943  1.00  0.00     0.161 HD
HETATM   28  C16 UNL     1      28.345   5.641  48.293  1.00  0.00     0.032 A 
HETATM   29  C17 UNL     1      27.344   6.621  48.142  1.00  0.00     0.174 A 
HETATM   30  N6  UNL     1      26.335   6.960  49.129  1.00  0.00    -0.211 N 
HETATM   31  H18 UNL     1      25.497   6.310  49.195  1.00  0.00     0.178 HD
ENDBRANCH  20  22
ENDBRANCH   4  20
TORSDOF 7
ENDMDL
MODEL 5
REMARK VINA RESULT:      -8.2      3.788      7.955
REMARK  7 active torsions:
REMARK  status: ('A' for Active; 'I' for Inactive)
REMARK    1  A    between atoms: C2_2  and  C3_3 
REMARK       I    between atoms: C3_3  and  N1_5 
REMARK    2  A    between atoms: N1_5  and  C4_6 
REMARK    3  A    between atoms: C8_10  and  O2_11 
REMARK    4  A    between atoms: O2_11  and  C9_12 
REMARK    5  A    between atoms: C9_12  and  N2_13 
REMARK    6  A    between atoms: C12_16  and  N3_17 
REMARK    7  A    between atoms: N3_17  and  C13_18 
ROOT
HETATM    1  N2  UNL     1      24.536   5.729  49.770  1.00  0.00    -0.255 N 
HETATM    2  C10 UNL     1      23.495   6.555  49.980  1.00  0.00     0.118 A 
HETATM    3  C11 UNL     1      24.082   7.738  50.378  1.00  0.00     0.071 A 
HETATM    4  C12 UNL     1      25.454   7.634  50.409  1.00  0.00     0.164 A 
HETATM    5  N7  UNL     1      25.666   6.364  50.021  1.00  0.00    -0.152 NA
ENDROOT
BRANCH   1   6
HETATM    6  C9  UNL     1      24.522   4.338  49.335  1.00  0.00     0.325 C 
BRANCH   6   7
HETATM    7  O2  UNL     1      25.588   3.663  49.993  1.00  0.00    -0.330 OA
BRANCH   7   8
HETATM    8  C8  UNL     1      25.296   2.643  50.870  1.00  0.00     0.073 A 
HETATM    9  C7  UNL     1      24.042   2.312  51.335  1.00  0.00     0.037 A 
HETATM   10  C6  UNL     1      23.910   1.271  52.206  1.00  0.00     0.005 A 
HETATM   11  C5  UNL     1      24.969   0.510  52.663  1.00  0.00     0.029 A 
HETATM   12  C4  UNL     1      26.224   0.848  52.192  1.00  0.00     0.037 A 
HETATM   13  C18 UNL     1      26.358   1.898  51.314  1.00  0.00     0.066 A 
BRANCH  12  14
HETATM   14  N1  UNL     1      27.349   0.080  52.645  1.00  0.00    -0.324 N 
HETATM   15  C3  UNL     1      28.022   0.636  53.762  1.00  0.00     0.244 C 
HETATM   16  O1  UNL     1      27.738   1.699  54.372  1.00  0.00    -0.268 OA
HETATM   17  H4  UNL     1      27.664  -0.811  52.209  1.00  0.00     0.169 HD
BRANCH  15  18
HETATM   18  C2  UNL     1      29.178  -0.104  54.270  1.00  0.00     0.064 C 
HETATM   19  C1  UNL     1      29.865  -1.060  53.663  1.00  0.00     0.017 C 
ENDBRANCH  15  18
ENDBRANCH  12  14
ENDBRANCH   7   8
ENDBRANCH   6   7
ENDBRANCH   1   6
BRANCH   4  20
HETATM   20  N3  UNL     1      26.458   8.579  50.750  1.00  0.00    -0.172 N 
HETATM   21  H12 UNL     1      26.425   9.045  51.683  1.00  0.00     0.186 HD
BRANCH  20  22
HETATM   22  C13 UNL     1      27.512   8.917  49.860  1.00  0.00     0.699 C 
HETATM   23  N4  UNL     1      27.641  10.154  49.618  1.00  0.00    -0.088 NA
HETATM   24  C14 UNL     1      28.515  10.960  48.820  1.00  0.00     0.290 C 
HETATM   25  N5  UNL     1      29.832  10.449  48.619  1.00  0.00    -0.373 N 
HETATM   26  C15 UNL     1      30.178   9.089  48.675  1.00  0.00     0.032 A 
HETATM   27  H15 UNL     1      30.579  11.150  48.419  1.00  0.00     0.161 HD
HETATM   28  C16 UNL     1      30.764   7.839  48.799  1.00  0.00     0.032 A 
HETATM   29  C17 UNL     1      29.406   7.920  48.436  1.00  0.00     0.174 A 
HETATM   30  N6  UNL     1      28.280   7.862  49.352  1.00  0.00    -0.211 N 
HETATM   31  H18 UNL     1      27.990   6.896  49.687  1.00  0.00     0.178 HD
ENDBRANCH  20  22
ENDBRANCH   4  20
TORSDOF 7
ENDMDL
MODEL 6
REMARK VINA RESULT:      -8.2      2.081      6.563
REMARK  7 active torsions:
REMARK  status: ('A' for Active; 'I' for Inactive)
REMARK    1  A    between atoms: C2_2  and  C3_3 
REMARK       I    between atoms: C3_3  and  N1_5 
REMARK    2  A    between atoms: N1_5  and  C4_6 
REMARK    3  A    between atoms: C8_10  and  O2_11 
REMARK    4  A    between atoms: O2_11  and  C9_12 
REMARK    5  A    between atoms: C9_12  and  N2_13 
REMARK    6  A    between atoms: C12_16  and  N3_17 
REMARK    7  A    between atoms: N3_17  and  C13_18 
ROOT
HETATM    1  N2  UNL     1      21.507   2.379  51.805  1.00  0.00    -0.255 N 
HETATM    2  C10 UNL     1      21.168   3.588  52.289  1.00  0.00     0.118 A 
HETATM    3  C11 UNL     1      21.721   4.474  51.389  1.00  0.00     0.071 A 
HETATM    4  C12 UNL     1      22.382   3.817  50.376  1.00  0.00     0.164 A 
HETATM    5  N7  UNL     1      22.210   2.523  50.698  1.00  0.00    -0.152 NA
ENDROOT
BRANCH   1   6
HETATM    6  C9  UNL     1      21.195   1.062  52.347  1.00  0.00     0.325 C 
BRANCH   6   7
HETATM    7  O2  UNL     1      22.340   0.235  52.173  1.00  0.00    -0.330 OA
BRANCH   7   8
HETATM    8  C8  UNL     1      22.967  -0.284  53.283  1.00  0.00     0.073 A 
HETATM    9  C7  UNL     1      22.344  -0.732  54.426  1.00  0.00     0.037 A 
HETATM   10  C6  UNL     1      23.103  -1.222  55.448  1.00  0.00     0.005 A 
HETATM   11  C5  UNL     1      24.481  -1.302  55.414  1.00  0.00     0.029 A 
HETATM   12  C4  UNL     1      25.100  -0.850  54.262  1.00  0.00     0.037 A 
HETATM   13  C18 UNL     1      24.336  -0.357  53.232  1.00  0.00     0.066 A 
BRANCH  12  14
HETATM   14  N1  UNL     1      26.532  -0.917  54.190  1.00  0.00    -0.324 N 
HETATM   15  C3  UNL     1      27.193   0.263  54.616  1.00  0.00     0.244 C 
HETATM   16  O1  UNL     1      26.663   1.323  55.035  1.00  0.00    -0.268 OA
HETATM   17  H4  UNL     1      27.063  -1.749  53.858  1.00  0.00     0.169 HD
BRANCH  15  18
HETATM   18  C2  UNL     1      28.655   0.253  54.565  1.00  0.00     0.064 C 
HETATM   19  C1  UNL     1      29.443  -0.574  53.894  1.00  0.00     0.017 C 
ENDBRANCH  15  18
ENDBRANCH  12  14
ENDBRANCH   7   8
ENDBRANCH   6   7
ENDBRANCH   1   6
BRANCH   4  20
HETATM   20  N3  UNL     1      23.090   4.307  49.246  1.00  0.00    -0.172 N 
HETATM   21  H12 UNL     1      22.598   4.383  48.329  1.00  0.00     0.186 HD
BRANCH  20  22
HETATM   22  C13 UNL     1      24.453   4.698  49.319  1.00  0.00     0.699 C 
HETATM   23  N4  UNL     1      25.277   3.757  49.523  1.00  0.00    -0.088 NA
HETATM   24  C14 UNL     1      26.696   3.647  49.670  1.00  0.00     0.290 C 
HETATM   25  N5  UNL     1      27.477   4.619  48.976  1.00  0.00    -0.373 N 
HETATM   26  C15 UNL     1      27.024   5.899  48.615  1.00  0.00     0.032 A 
HETATM   27  H15 UNL     1      28.452   4.343  48.726  1.00  0.00     0.161 HD
HETATM   28  C16 UNL     1      26.759   7.141  48.062  1.00  0.00     0.032 A 
HETATM   29  C17 UNL     1      26.024   6.729  49.190  1.00  0.00     0.174 A 
HETATM   30  N6  UNL     1      24.734   6.062  49.163  1.00  0.00    -0.211 N 
HETATM   31  H18 UNL     1      23.884   6.679  49.006  1.00  0.00     0.178 HD
ENDBRANCH  20  22
ENDBRANCH   4  20
TORSDOF 7
ENDMDL
MODEL 7
REMARK VINA RESULT:      -8.2      3.587      8.100
REMARK  7 active torsions:
REMARK  status: ('A' for Active; 'I' for Inactive)
REMARK    1  A    between atoms: C2_2  and  C3_3 
REMARK       I    between atoms: C3_3  and  N1_5 
REMARK    2  A    between atoms: N1_5  and  C4_6 
REMARK    3  A    between atoms: C8_10  and  O2_11 
REMARK    4  A    between atoms: O2_11  and  C9_12 
REMARK    5  A    between atoms: C9_12  and  N2_13 
REMARK    6  A    between atoms: C12_16  and  N3_17 
REMARK    7  A    between atoms: N3_17  and  C13_18 
ROOT
HETATM    1  N2  UNL     1      26.468   4.078  49.712  1.00  0.00    -0.255 N 
HETATM    2  C10 UNL     1      25.636   5.125  49.577  1.00  0.00     0.118 A 
HETATM    3  C11 UNL     1      26.354   6.026  48.818  1.00  0.00     0.071 A 
HETATM    4  C12 UNL     1      27.598   5.535  48.497  1.00  0.00     0.164 A 
HETATM    5  N7  UNL     1      27.602   4.324  49.084  1.00  0.00    -0.152 NA
ENDROOT
BRANCH   1   6
HETATM    6  C9  UNL     1      26.245   2.824  50.423  1.00  0.00     0.325 C 
BRANCH   6   7
HETATM    7  O2  UNL     1      27.291   2.670  51.376  1.00  0.00    -0.330 OA
BRANCH   7   8
HETATM    8  C8  UNL     1      27.112   1.806  52.432  1.00  0.00     0.073 A 
HETATM    9  C7  UNL     1      27.930   1.698  53.535  1.00  0.00     0.037 A 
HETATM   10  C6  UNL     1      27.622   0.791  54.505  1.00  0.00     0.005 A 
HETATM   11  C5  UNL     1      26.523  -0.044  54.458  1.00  0.00     0.029 A 
HETATM   12  C4  UNL     1      25.706   0.069  53.348  1.00  0.00     0.037 A 
HETATM   13  C18 UNL     1      26.016   0.984  52.370  1.00  0.00     0.066 A 
BRANCH  12  14
HETATM   14  N1  UNL     1      24.554  -0.782  53.263  1.00  0.00    -0.324 N 
HETATM   15  C3  UNL     1      23.315  -0.097  53.334  1.00  0.00     0.244 C 
HETATM   16  O1  UNL     1      23.136   1.142  53.459  1.00  0.00    -0.268 OA
HETATM   17  H4  UNL     1      24.597  -1.818  53.158  1.00  0.00     0.169 HD
BRANCH  15  18
HETATM   18  C2  UNL     1      22.104  -0.914  53.252  1.00  0.00     0.064 C 
HETATM   19  C1  UNL     1      21.407  -1.442  54.247  1.00  0.00     0.017 C 
ENDBRANCH  15  18
ENDBRANCH  12  14
ENDBRANCH   7   8
ENDBRANCH   6   7
ENDBRANCH   1   6
BRANCH   4  20
HETATM   20  N3  UNL     1      28.663   6.098  47.744  1.00  0.00    -0.172 N 
HETATM   21  H12 UNL     1      28.451   6.592  46.850  1.00  0.00     0.186 HD
BRANCH  20  22
HETATM   22  C13 UNL     1      30.016   6.010  48.166  1.00  0.00     0.699 C 
HETATM   23  N4  UNL     1      30.645   4.986  47.763  1.00  0.00    -0.088 NA
HETATM   24  C14 UNL     1      31.970   4.468  47.913  1.00  0.00     0.290 C 
HETATM   25  N5  UNL     1      33.005   5.433  48.100  1.00  0.00    -0.373 N 
HETATM   26  C15 UNL     1      32.813   6.716  48.639  1.00  0.00     0.032 A 
HETATM   27  H15 UNL     1      33.966   5.149  47.808  1.00  0.00     0.161 HD
HETATM   28  C16 UNL     1      32.842   8.045  49.026  1.00  0.00     0.032 A 
HETATM   29  C17 UNL     1      31.829   7.210  49.537  1.00  0.00     0.174 A 
HETATM   30  N6  UNL     1      30.501   7.047  48.973  1.00  0.00    -0.211 N 
HETATM   31  H18 UNL     1      29.794   7.809  49.195  1.00  0.00     0.178 HD
ENDBRANCH  20  22
ENDBRANCH   4  20
TORSDOF 7
ENDMDL
MODEL 8
REMARK VINA RESULT:      -8.2      4.050      8.294
REMARK  7 active torsions:
REMARK  status: ('A' for Active; 'I' for Inactive)
REMARK    1  A    between atoms: C2_2  and  C3_3 
REMARK       I    between atoms: C3_3  and  N1_5 
REMARK    2  A    between atoms: N1_5  and  C4_6 
REMARK    3  A    between atoms: C8_10  and  O2_11 
REMARK    4  A    between atoms: O2_11  and  C9_12 
REMARK    5  A    between atoms: C9_12  and  N2_13 
REMARK    6  A    between atoms: C12_16  and  N3_17 
REMARK    7  A    between atoms: N3_17  and  C13_18 
ROOT
HETATM    1  N2  UNL     1      26.225   4.735  49.066  1.00  0.00    -0.255 N 
HETATM    2  C10 UNL     1      26.027   6.034  48.779  1.00  0.00     0.118 A 
HETATM    3  C11 UNL     1      27.272   6.482  48.389  1.00  0.00     0.071 A 
HETATM    4  C12 UNL     1      28.208   5.474  48.437  1.00  0.00     0.164 A 
HETATM    5  N7  UNL     1      27.491   4.420  48.866  1.00  0.00    -0.152 NA
ENDROOT
BRANCH   1   6
HETATM    6  C9  UNL     1      25.257   3.748  49.533  1.00  0.00     0.325 C 
BRANCH   6   7
HETATM    7  O2  UNL     1      25.280   3.753  50.956  1.00  0.00    -0.330 OA
BRANCH   7   8
HETATM    8  C8  UNL     1      25.109   2.568  51.633  1.00  0.00     0.073 A 
HETATM    9  C7  UNL     1      23.923   2.097  52.151  1.00  0.00     0.037 A 
HETATM   10  C6  UNL     1      23.910   0.898  52.801  1.00  0.00     0.005 A 
HETATM   11  C5  UNL     1      25.028   0.107  52.978  1.00  0.00     0.029 A 
HETATM   12  C4  UNL     1      26.216   0.585  52.456  1.00  0.00     0.037 A 
HETATM   13  C18 UNL     1      26.229   1.793  51.801  1.00  0.00     0.066 A 
BRANCH  12  14
HETATM   14  N1  UNL     1      27.399  -0.210  52.621  1.00  0.00    -0.324 N 
HETATM   15  C3  UNL     1      28.160   0.110  53.774  1.00  0.00     0.244 C 
HETATM   16  O1  UNL     1      27.905   0.991  54.635  1.00  0.00    -0.268 OA
HETATM   17  H4  UNL     1      27.696  -0.962  51.965  1.00  0.00     0.169 HD
BRANCH  15  18
HETATM   18  C2  UNL     1      29.378  -0.669  53.996  1.00  0.00     0.064 C 
HETATM   19  C1  UNL     1      29.724  -1.820  53.440  1.00  0.00     0.017 C 
ENDBRANCH  15  18
ENDBRANCH  12  14
ENDBRANCH   7   8
ENDBRANCH   6   7
ENDBRANCH   1   6
BRANCH   4  20
HETATM   20  N3  UNL     1      29.595   5.467  48.130  1.00  0.00    -0.172 N 
HETATM   21  H12 UNL     1      30.077   4.557  47.967  1.00  0.00     0.186 HD
BRANCH  20  22
HETATM   22  C13 UNL     1      30.355   6.664  48.039  1.00  0.00     0.699 C 
HETATM   23  N4  UNL     1      30.792   6.941  46.882  1.00  0.00    -0.088 NA
HETATM   24  C14 UNL     1      31.574   7.991  46.304  1.00  0.00     0.290 C 
HETATM   25  N5  UNL     1      31.470   9.269  46.928  1.00  0.00    -0.373 N 
HETATM   26  C15 UNL     1      31.117   9.476  48.272  1.00  0.00     0.032 A 
HETATM   27  H15 UNL     1      31.674  10.100  46.329  1.00  0.00     0.161 HD
HETATM   28  C16 UNL     1      30.680   9.919  49.509  1.00  0.00     0.032 A 
HETATM   29  C17 UNL     1      31.260   8.640  49.411  1.00  0.00     0.174 A 
HETATM   30  N6  UNL     1      30.538   7.394  49.220  1.00  0.00    -0.211 N 
HETATM   31  H18 UNL     1      30.084   6.971  50.082  1.00  0.00     0.178 HD
ENDBRANCH  20  22
ENDBRANCH   4  20
TORSDOF 7
ENDMDL
MODEL 9
REMARK VINA RESULT:      -8.0      2.248      5.355
REMARK  7 active torsions:
REMARK  status: ('A' for Active; 'I' for Inactive)
REMARK    1  A    between atoms: C2_2  and  C3_3 
REMARK       I    between atoms: C3_3  and  N1_5 
REMARK    2  A    between atoms: N1_5  and  C4_6 
REMARK    3  A    between atoms: C8_10  and  O2_11 
REMARK    4  A    between atoms: O2_11  and  C9_12 
REMARK    5  A    between atoms: C9_12  and  N2_13 
REMARK    6  A    between atoms: C12_16  and  N3_17 
REMARK    7  A    between atoms: N3_17  and  C13_18 
ROOT
HETATM    1  N2  UNL     1      23.290   3.964  51.047  1.00  0.00    -0.255 N 
HETATM    2  C10 UNL     1      23.476   3.945  49.715  1.00  0.00     0.118 A 
HETATM    3  C11 UNL     1      24.814   3.645  49.569  1.00  0.00     0.071 A 
HETATM    4  C12 UNL     1      25.431   3.484  50.789  1.00  0.00     0.164 A 
HETATM    5  N7  UNL     1      24.428   3.696  51.660  1.00  0.00    -0.152 NA
ENDROOT
BRANCH   1   6
HETATM    6  C9  UNL     1      22.065   4.229  51.792  1.00  0.00     0.325 C 
BRANCH   6   7
HETATM    7  O2  UNL     1      20.966   4.028  50.910  1.00  0.00    -0.330 OA
BRANCH   7   8
HETATM    8  C8  UNL     1      20.310   2.818  50.922  1.00  0.00     0.073 A 
HETATM    9  C7  UNL     1      19.542   2.306  49.900  1.00  0.00     0.037 A 
HETATM   10  C6  UNL     1      18.951   1.086  50.060  1.00  0.00     0.005 A 
HETATM   11  C5  UNL     1      19.074   0.315  51.199  1.00  0.00     0.029 A 
HETATM   12  C4  UNL     1      19.847   0.835  52.221  1.00  0.00     0.037 A 
HETATM   13  C18 UNL     1      20.443   2.064  52.060  1.00  0.00     0.066 A 
BRANCH  12  14
HETATM   14  N1  UNL     1      19.997   0.062  53.420  1.00  0.00    -0.324 N 
HETATM   15  C3  UNL     1      21.267  -0.552  53.563  1.00  0.00     0.244 C 
HETATM   16  O1  UNL     1      22.239  -0.485  52.767  1.00  0.00    -0.268 OA
HETATM   17  H4  UNL     1      19.253  -0.054  54.139  1.00  0.00     0.169 HD
BRANCH  15  18
HETATM   18  C2  UNL     1      21.479  -1.354  54.768  1.00  0.00     0.064 C 
HETATM   19  C1  UNL     1      22.629  -1.737  55.302  1.00  0.00     0.017 C 
ENDBRANCH  15  18
ENDBRANCH  12  14
ENDBRANCH   7   8
ENDBRANCH   6   7
ENDBRANCH   1   6
BRANCH   4  20
HETATM   20  N3  UNL     1      26.775   3.173  51.127  1.00  0.00    -0.172 N 
HETATM   21  H12 UNL     1      27.551   3.697  50.666  1.00  0.00     0.186 HD
BRANCH  20  22
HETATM   22  C13 UNL     1      27.103   2.167  52.074  1.00  0.00     0.699 C 
HETATM   23  N4  UNL     1      28.126   2.403  52.783  1.00  0.00    -0.088 NA
HETATM   24  C14 UNL     1      28.830   1.726  53.829  1.00  0.00     0.290 C 
HETATM   25  N5  UNL     1      28.049   0.867  54.659  1.00  0.00    -0.373 N 
HETATM   26  C15 UNL     1      26.851   0.249  54.265  1.00  0.00     0.032 A 
HETATM   27  H15 UNL     1      28.408   0.697  55.624  1.00  0.00     0.161 HD
HETATM   28  C16 UNL     1      25.611  -0.357  54.140  1.00  0.00     0.032 A 
HETATM   29  C17 UNL     1      26.375  -0.126  52.979  1.00  0.00     0.174 A 
HETATM   30  N6  UNL     1      26.274   1.039  52.117  1.00  0.00    -0.211 N 
HETATM   31  H18 UNL     1      25.470   1.047  51.423  1.00  0.00     0.178 HD
ENDBRANCH  20  22
ENDBRANCH   4  20
TORSDOF 7
ENDMDL
