MODEL 1
REMARK VINA RESULT:      -8.7      0.000      0.000
REMARK  8 active torsions:
REMARK  status: ('A' for Active; 'I' for Inactive)
REMARK    1  A    between atoms: C1_2  and  C2_3 
REMARK    2  A    between atoms: C2_3  and  N1_4 
REMARK    3  A    between atoms: N1_4  and  C3_5 
REMARK    4  A    between atoms: C8_12  and  N4_13 
REMARK    5  A    between atoms: N4_13  and  C9_14 
REMARK    6  A    between atoms: C12_17  and  C13_18 
REMARK    7  A    between atoms: C13_18  and  O2_19 
REMARK    8  A    between atoms: C13_18  and  C14_20 
ROOT
HETATM    1  N4  UNL     1      23.148   3.740  51.134  1.00  0.00    -0.340 N 
HETATM    2  H7  UNL     1      22.953   4.754  51.163  1.00  0.00     0.167 HD
ENDROOT
BRANCH   1   3
HETATM    3  C8  UNL     1      22.270   2.792  50.598  1.00  0.00     0.141 A 
HETATM    4  C5  UNL     1      21.512   1.858  51.265  1.00  0.00     0.037 A 
HETATM    5  C4  UNL     1      21.421   1.579  52.687  1.00  0.00     0.042 A 
HETATM    6  C6  UNL     1      20.723   1.058  50.469  1.00  0.00     0.055 A 
HETATM    7  C3  UNL     1      20.549   0.578  52.746  1.00  0.00     0.011 A 
HETATM    8  C22 UNL     1      20.025   0.151  51.409  1.00  0.00     0.117 A 
HETATM    9  N2  UNL     1      20.692   1.177  49.136  1.00  0.00    -0.245 NA
HETATM   10  C7  UNL     1      21.450   2.108  48.483  1.00  0.00     0.235 A 
HETATM   11  N3  UNL     1      22.231   2.901  49.263  1.00  0.00    -0.224 NA
BRANCH   7  12
HETATM   12  N1  UNL     1      20.105  -0.076  53.946  1.00  0.00    -0.390 N 
HETATM   13  H4  UNL     1      19.391   0.222  54.664  1.00  0.00     0.159 HD
BRANCH  12  14
HETATM   14  C2  UNL     1      20.764  -1.364  54.199  1.00  0.00     0.156 C 
BRANCH  14  15
HETATM   15  C1  UNL     1      22.072  -1.180  54.889  1.00  0.00     0.410 C 
HETATM   16  O1  UNL     1      22.601  -1.952  55.678  1.00  0.00    -0.428 OA
ENDBRANCH  14  15
ENDBRANCH  12  14
ENDBRANCH   7  12
ENDBRANCH   1   3
BRANCH   1  17
HETATM   17  C9  UNL     1      24.355   3.202  51.651  1.00  0.00     0.033 A 
HETATM   18  C10 UNL     1      25.453   2.885  50.880  1.00  0.00     0.030 A 
HETATM   19  C11 UNL     1      26.610   2.327  51.436  1.00  0.00     0.012 A 
HETATM   20  C12 UNL     1      26.688   2.069  52.815  1.00  0.00    -0.025 A 
HETATM   21  C20 UNL     1      25.587   2.399  53.528  1.00  0.00     0.012 A 
HETATM   22  C21 UNL     1      24.431   2.948  53.027  1.00  0.00     0.030 A 
BRANCH  20  23
HETATM   23  C13 UNL     1      28.013   1.496  53.128  1.00  0.00     0.184 C 
BRANCH  23  24
HETATM   24  O2  UNL     1      28.327   1.963  54.426  1.00  0.00    -0.386 OA
HETATM   25  H11 UNL     1      28.659   2.875  54.343  1.00  0.00     0.210 HD
ENDBRANCH  23  24
BRANCH  23  26
HETATM   26  C14 UNL     1      28.126   0.053  53.102  1.00  0.00    -0.025 A 
HETATM   27  C15 UNL     1      29.350  -0.520  53.447  1.00  0.00     0.010 A 
HETATM   28  C16 UNL     1      29.612  -1.872  53.441  1.00  0.00     0.001 A 
HETATM   29  C17 UNL     1      28.625  -2.760  53.072  1.00  0.00     0.000 A 
HETATM   30  C18 UNL     1      27.400  -2.257  52.719  1.00  0.00     0.001 A 
HETATM   31  C19 UNL     1      27.201  -0.901  52.747  1.00  0.00     0.010 A 
ENDBRANCH  23  26
ENDBRANCH  20  23
ENDBRANCH   1  17
TORSDOF 8
ENDMDL
MODEL 2
REMARK VINA RESULT:      -8.5      2.967      6.240
REMARK  8 active torsions:
REMARK  status: ('A' for Active; 'I' for Inactive)
REMARK    1  A    between atoms: C1_2  and  C2_3 
REMARK    2  A    between atoms: C2_3  and  N1_4 
REMARK    3  A    between atoms: N1_4  and  C3_5 
REMARK    4  A    between atoms: C8_12  and  N4_13 
REMARK    5  A    between atoms: N4_13  and  C9_14 
REMARK    6  A    between atoms: C12_17  and  C13_18 
REMARK    7  A    between atoms: C13_18  and  O2_19 
REMARK    8  A    between atoms: C13_18  and  C14_20 
ROOT
HETATM    1  N4  UNL     1      21.833   0.547  51.545  1.00  0.00    -0.340 N 
HETATM    2  H7  UNL     1      21.120   0.136  50.919  1.00  0.00     0.167 HD
ENDROOT
BRANCH   1   3
HETATM    3  C8  UNL     1      22.237  -0.032  52.753  1.00  0.00     0.141 A 
HETATM    4  C5  UNL     1      23.516  -0.222  53.222  1.00  0.00     0.037 A 
HETATM    5  C4  UNL     1      24.789   0.096  52.603  1.00  0.00     0.042 A 
HETATM    6  C6  UNL     1      23.609  -0.812  54.463  1.00  0.00     0.055 A 
HETATM    7  C3  UNL     1      25.677  -0.315  53.502  1.00  0.00     0.011 A 
HETATM    8  C22 UNL     1      25.062  -0.910  54.733  1.00  0.00     0.117 A 
HETATM    9  N2  UNL     1      22.532  -1.176  55.169  1.00  0.00    -0.245 NA
HETATM   10  C7  UNL     1      21.265  -0.982  54.693  1.00  0.00     0.235 A 
HETATM   11  N3  UNL     1      21.166  -0.400  53.469  1.00  0.00    -0.224 NA
BRANCH   7  12
HETATM   12  N1  UNL     1      27.105  -0.227  53.371  1.00  0.00    -0.390 N 
HETATM   13  H4  UNL     1      27.737  -0.501  52.570  1.00  0.00     0.159 HD
BRANCH  12  14
HETATM   14  C2  UNL     1      27.777   0.335  54.549  1.00  0.00     0.156 C 
BRANCH  14  15
HETATM   15  C1  UNL     1      28.848   1.295  54.159  1.00  0.00     0.410 C 
HETATM   16  O1  UNL     1      28.847   2.507  54.333  1.00  0.00    -0.428 OA
ENDBRANCH  14  15
ENDBRANCH  12  14
ENDBRANCH   7  12
ENDBRANCH   1   3
BRANCH   1  17
HETATM   17  C9  UNL     1      22.484   1.767  51.227  1.00  0.00     0.033 A 
HETATM   18  C10 UNL     1      22.618   2.822  52.103  1.00  0.00     0.030 A 
HETATM   19  C11 UNL     1      23.243   4.018  51.728  1.00  0.00     0.012 A 
HETATM   20  C12 UNL     1      23.758   4.181  50.431  1.00  0.00    -0.025 A 
HETATM   21  C20 UNL     1      23.603   3.117  49.611  1.00  0.00     0.012 A 
HETATM   22  C21 UNL     1      22.999   1.925  49.933  1.00  0.00     0.030 A 
BRANCH  20  23
HETATM   23  C13 UNL     1      24.367   5.521  50.315  1.00  0.00     0.184 C 
BRANCH  23  24
HETATM   24  O2  UNL     1      24.517   5.982  51.644  1.00  0.00    -0.386 OA
HETATM   25  H11 UNL     1      25.204   6.672  51.644  1.00  0.00     0.210 HD
ENDBRANCH  23  24
BRANCH  23  26
HETATM   26  C14 UNL     1      25.643   5.605  49.636  1.00  0.00    -0.025 A 
HETATM   27  C15 UNL     1      26.073   6.854  49.188  1.00  0.00     0.010 A 
HETATM   28  C16 UNL     1      27.246   7.080  48.505  1.00  0.00     0.001 A 
HETATM   29  C17 UNL     1      28.089   6.028  48.220  1.00  0.00     0.000 A 
HETATM   30  C18 UNL     1      27.721   4.774  48.633  1.00  0.00     0.001 A 
HETATM   31  C19 UNL     1      26.540   4.614  49.310  1.00  0.00     0.010 A 
ENDBRANCH  23  26
ENDBRANCH  20  23
ENDBRANCH   1  17
TORSDOF 8
ENDMDL
MODEL 3
REMARK VINA RESULT:      -8.4      3.670      6.753
REMARK  8 active torsions:
REMARK  status: ('A' for Active; 'I' for Inactive)
REMARK    1  A    between atoms: C1_2  and  C2_3 
REMARK    2  A    between atoms: C2_3  and  N1_4 
REMARK    3  A    between atoms: N1_4  and  C3_5 
REMARK    4  A    between atoms: C8_12  and  N4_13 
REMARK    5  A    between atoms: N4_13  and  C9_14 
REMARK    6  A    between atoms: C12_17  and  C13_18 
REMARK    7  A    between atoms: C13_18  and  O2_19 
REMARK    8  A    between atoms: C13_18  and  C14_20 
ROOT
HETATM    1  N4  UNL     1      24.679   4.119  49.976  1.00  0.00    -0.340 N 
HETATM    2  H7  UNL     1      24.058   3.663  49.287  1.00  0.00     0.167 HD
ENDROOT
BRANCH   1   3
HETATM    3  C8  UNL     1      24.993   5.483  49.961  1.00  0.00     0.141 A 
HETATM    4  C5  UNL     1      26.066   6.103  49.365  1.00  0.00     0.037 A 
HETATM    5  C4  UNL     1      27.169   5.534  48.612  1.00  0.00     0.042 A 
HETATM    6  C6  UNL     1      26.110   7.473  49.506  1.00  0.00     0.055 A 
HETATM    7  C3  UNL     1      27.900   6.596  48.291  1.00  0.00     0.011 A 
HETATM    8  C22 UNL     1      27.339   7.892  48.793  1.00  0.00     0.117 A 
HETATM    9  N2  UNL     1      25.176   8.157  50.175  1.00  0.00    -0.245 NA
HETATM   10  C7  UNL     1      24.114   7.530  50.765  1.00  0.00     0.235 A 
HETATM   11  N3  UNL     1      24.064   6.179  50.629  1.00  0.00    -0.224 NA
BRANCH   7  12
HETATM   12  N1  UNL     1      29.121   6.575  47.534  1.00  0.00    -0.390 N 
HETATM   13  H4  UNL     1      29.324   6.184  46.574  1.00  0.00     0.159 HD
BRANCH  12  14
HETATM   14  C2  UNL     1      30.258   7.199  48.222  1.00  0.00     0.156 C 
BRANCH  14  15
HETATM   15  C1  UNL     1      31.266   6.185  48.639  1.00  0.00     0.410 C 
HETATM   16  O1  UNL     1      31.134   5.332  49.507  1.00  0.00    -0.428 OA
ENDBRANCH  14  15
ENDBRANCH  12  14
ENDBRANCH   7  12
ENDBRANCH   1   3
BRANCH   1  17
HETATM   17  C9  UNL     1      25.286   3.385  51.028  1.00  0.00     0.033 A 
HETATM   18  C10 UNL     1      26.562   2.867  50.972  1.00  0.00     0.030 A 
HETATM   19  C11 UNL     1      27.103   2.122  52.026  1.00  0.00     0.012 A 
HETATM   20  C12 UNL     1      26.352   1.876  53.188  1.00  0.00    -0.025 A 
HETATM   21  C20 UNL     1      25.108   2.406  53.194  1.00  0.00     0.012 A 
HETATM   22  C21 UNL     1      24.535   3.143  52.186  1.00  0.00     0.030 A 
BRANCH  20  23
HETATM   23  C13 UNL     1      27.164   1.083  54.133  1.00  0.00     0.184 C 
BRANCH  23  24
HETATM   24  O2  UNL     1      26.357   0.930  55.285  1.00  0.00    -0.386 OA
HETATM   25  H11 UNL     1      26.139   1.819  55.616  1.00  0.00     0.210 HD
ENDBRANCH  23  24
BRANCH  23  26
HETATM   26  C14 UNL     1      27.604  -0.222  53.685  1.00  0.00    -0.025 A 
HETATM   27  C15 UNL     1      28.943  -0.566  53.864  1.00  0.00     0.010 A 
HETATM   28  C16 UNL     1      29.507  -1.756  53.464  1.00  0.00     0.001 A 
HETATM   29  C17 UNL     1      28.732  -2.706  52.835  1.00  0.00     0.000 A 
HETATM   30  C18 UNL     1      27.406  -2.426  52.628  1.00  0.00     0.001 A 
HETATM   31  C19 UNL     1      26.904  -1.223  53.051  1.00  0.00     0.010 A 
ENDBRANCH  23  26
ENDBRANCH  20  23
ENDBRANCH   1  17
TORSDOF 8
ENDMDL
MODEL 4
REMARK VINA RESULT:      -8.2      3.057      5.817
REMARK  8 active torsions:
REMARK  status: ('A' for Active; 'I' for Inactive)
REMARK    1  A    between atoms: C1_2  and  C2_3 
REMARK    2  A    between atoms: C2_3  and  N1_4 
REMARK    3  A    between atoms: N1_4  and  C3_5 
REMARK    4  A    between atoms: C8_12  and  N4_13 
REMARK    5  A    between atoms: N4_13  and  C9_14 
REMARK    6  A    between atoms: C12_17  and  C13_18 
REMARK    7  A    between atoms: C13_18  and  O2_19 
REMARK    8  A    between atoms: C13_18  and  C14_20 
ROOT
HETATM    1  N4  UNL     1      23.563   2.935  50.081  1.00  0.00    -0.340 N 
HETATM    2  H7  UNL     1      23.369   2.470  49.178  1.00  0.00     0.167 HD
ENDROOT
BRANCH   1   3
HETATM    3  C8  UNL     1      23.300   4.286  50.334  1.00  0.00     0.141 A 
HETATM    4  C5  UNL     1      24.147   5.360  50.193  1.00  0.00     0.037 A 
HETATM    5  C4  UNL     1      25.535   5.400  49.769  1.00  0.00     0.042 A 
HETATM    6  C6  UNL     1      23.605   6.587  50.508  1.00  0.00     0.055 A 
HETATM    7  C3  UNL     1      25.836   6.693  49.832  1.00  0.00     0.011 A 
HETATM    8  C22 UNL     1      24.699   7.559  50.284  1.00  0.00     0.117 A 
HETATM    9  N2  UNL     1      22.340   6.729  50.922  1.00  0.00    -0.245 NA
HETATM   10  C7  UNL     1      21.507   5.654  51.059  1.00  0.00     0.235 A 
HETATM   11  N3  UNL     1      22.036   4.441  50.750  1.00  0.00    -0.224 NA
BRANCH   7  12
HETATM   12  N1  UNL     1      27.110   7.273  49.509  1.00  0.00    -0.390 N 
HETATM   13  H4  UNL     1      27.787   7.817  50.110  1.00  0.00     0.159 HD
BRANCH  12  14
HETATM   14  C2  UNL     1      27.521   7.067  48.114  1.00  0.00     0.156 C 
BRANCH  14  15
HETATM   15  C1  UNL     1      28.734   6.207  48.025  1.00  0.00     0.410 C 
HETATM   16  O1  UNL     1      28.887   5.099  48.524  1.00  0.00    -0.428 OA
ENDBRANCH  14  15
ENDBRANCH  12  14
ENDBRANCH   7  12
ENDBRANCH   1   3
BRANCH   1  17
HETATM   17  C9  UNL     1      24.128   2.228  51.173  1.00  0.00     0.033 A 
HETATM   18  C10 UNL     1      25.454   2.307  51.542  1.00  0.00     0.030 A 
HETATM   19  C11 UNL     1      25.969   1.563  52.610  1.00  0.00     0.012 A 
HETATM   20  C12 UNL     1      25.139   0.703  53.349  1.00  0.00    -0.025 A 
HETATM   21  C20 UNL     1      23.848   0.662  52.949  1.00  0.00     0.012 A 
HETATM   22  C21 UNL     1      23.297   1.373  51.909  1.00  0.00     0.030 A 
BRANCH  20  23
HETATM   23  C13 UNL     1      25.933   0.059  54.414  1.00  0.00     0.184 C 
BRANCH  23  24
HETATM   24  O2  UNL     1      25.196  -1.089  54.790  1.00  0.00    -0.386 OA
HETATM   25  H11 UNL     1      24.272  -0.817  54.933  1.00  0.00     0.210 HD
ENDBRANCH  23  24
BRANCH  23  26
HETATM   26  C14 UNL     1      27.285  -0.334  54.079  1.00  0.00    -0.025 A 
HETATM   27  C15 UNL     1      28.337   0.465  54.528  1.00  0.00     0.010 A 
HETATM   28  C16 UNL     1      29.667   0.231  54.263  1.00  0.00     0.001 A 
HETATM   29  C17 UNL     1      30.034  -0.857  53.502  1.00  0.00     0.000 A 
HETATM   30  C18 UNL     1      29.046  -1.680  53.029  1.00  0.00     0.001 A 
HETATM   31  C19 UNL     1      27.739  -1.394  53.329  1.00  0.00     0.010 A 
ENDBRANCH  23  26
ENDBRANCH  20  23
ENDBRANCH   1  17
TORSDOF 8
ENDMDL
MODEL 5
REMARK VINA RESULT:      -8.2      6.220     10.109
REMARK  8 active torsions:
REMARK  status: ('A' for Active; 'I' for Inactive)
REMARK    1  A    between atoms: C1_2  and  C2_3 
REMARK    2  A    between atoms: C2_3  and  N1_4 
REMARK    3  A    between atoms: N1_4  and  C3_5 
REMARK    4  A    between atoms: C8_12  and  N4_13 
REMARK    5  A    between atoms: N4_13  and  C9_14 
REMARK    6  A    between atoms: C12_17  and  C13_18 
REMARK    7  A    between atoms: C13_18  and  O2_19 
REMARK    8  A    between atoms: C13_18  and  C14_20 
ROOT
HETATM    1  N4  UNL     1      28.351   6.825  47.608  1.00  0.00    -0.340 N 
HETATM    2  H7  UNL     1      28.112   7.080  46.635  1.00  0.00     0.167 HD
ENDROOT
BRANCH   1   3
HETATM    3  C8  UNL     1      29.530   7.221  48.250  1.00  0.00     0.141 A 
HETATM    4  C5  UNL     1      30.706   6.520  48.382  1.00  0.00     0.037 A 
HETATM    5  C4  UNL     1      31.050   5.187  47.921  1.00  0.00     0.042 A 
HETATM    6  C6  UNL     1      31.711   7.173  49.061  1.00  0.00     0.055 A 
HETATM    7  C3  UNL     1      32.303   5.034  48.337  1.00  0.00     0.011 A 
HETATM    8  C22 UNL     1      32.846   6.222  49.072  1.00  0.00     0.117 A 
HETATM    9  N2  UNL     1      31.559   8.405  49.559  1.00  0.00    -0.245 NA
HETATM   10  C7  UNL     1      30.386   9.093  49.422  1.00  0.00     0.235 A 
HETATM   11  N3  UNL     1      29.390   8.455  48.753  1.00  0.00    -0.224 NA
BRANCH   7  12
HETATM   12  N1  UNL     1      33.117   3.868  48.132  1.00  0.00    -0.390 N 
HETATM   13  H4  UNL     1      32.863   2.844  48.158  1.00  0.00     0.159 HD
BRANCH  12  14
HETATM   14  C2  UNL     1      34.525   4.169  47.844  1.00  0.00     0.156 C 
BRANCH  14  15
HETATM   15  C1  UNL     1      34.781   4.225  46.378  1.00  0.00     0.410 C 
HETATM   16  O1  UNL     1      35.143   3.302  45.659  1.00  0.00    -0.428 OA
ENDBRANCH  14  15
ENDBRANCH  12  14
ENDBRANCH   7  12
ENDBRANCH   1   3
BRANCH   1  17
HETATM   17  C9  UNL     1      27.485   6.029  48.401  1.00  0.00     0.033 A 
HETATM   18  C10 UNL     1      27.681   4.688  48.652  1.00  0.00     0.030 A 
HETATM   19  C11 UNL     1      26.778   3.940  49.417  1.00  0.00     0.012 A 
HETATM   20  C12 UNL     1      25.629   4.541  49.958  1.00  0.00    -0.025 A 
HETATM   21  C20 UNL     1      25.483   5.857  49.685  1.00  0.00     0.012 A 
HETATM   22  C21 UNL     1      26.341   6.632  48.941  1.00  0.00     0.030 A 
BRANCH  20  23
HETATM   23  C13 UNL     1      24.868   3.533  50.722  1.00  0.00     0.184 C 
BRANCH  23  24
HETATM   24  O2  UNL     1      24.360   4.221  51.850  1.00  0.00    -0.386 OA
HETATM   25  H11 UNL     1      24.840   5.065  51.925  1.00  0.00     0.210 HD
ENDBRANCH  23  24
BRANCH  23  26
HETATM   26  C14 UNL     1      23.776   2.876  50.035  1.00  0.00    -0.025 A 
HETATM   27  C15 UNL     1      23.042   1.914  50.728  1.00  0.00     0.010 A 
HETATM   28  C16 UNL     1      21.999   1.190  50.196  1.00  0.00     0.001 A 
HETATM   29  C17 UNL     1      21.617   1.397  48.888  1.00  0.00     0.000 A 
HETATM   30  C18 UNL     1      22.302   2.330  48.153  1.00  0.00     0.001 A 
HETATM   31  C19 UNL     1      23.331   3.018  48.741  1.00  0.00     0.010 A 
ENDBRANCH  23  26
ENDBRANCH  20  23
ENDBRANCH   1  17
TORSDOF 8
ENDMDL
MODEL 6
REMARK VINA RESULT:      -8.1      3.399      6.311
REMARK  8 active torsions:
REMARK  status: ('A' for Active; 'I' for Inactive)
REMARK    1  A    between atoms: C1_2  and  C2_3 
REMARK    2  A    between atoms: C2_3  and  N1_4 
REMARK    3  A    between atoms: N1_4  and  C3_5 
REMARK    4  A    between atoms: C8_12  and  N4_13 
REMARK    5  A    between atoms: N4_13  and  C9_14 
REMARK    6  A    between atoms: C12_17  and  C13_18 
REMARK    7  A    between atoms: C13_18  and  O2_19 
REMARK    8  A    between atoms: C13_18  and  C14_20 
ROOT
HETATM    1  N4  UNL     1      23.682   3.831  50.050  1.00  0.00    -0.340 N 
HETATM    2  H7  UNL     1      23.196   3.300  49.309  1.00  0.00     0.167 HD
ENDROOT
BRANCH   1   3
HETATM    3  C8  UNL     1      23.518   5.205  50.260  1.00  0.00     0.141 A 
HETATM    4  C5  UNL     1      24.446   6.208  50.107  1.00  0.00     0.037 A 
HETATM    5  C4  UNL     1      25.840   6.131  49.711  1.00  0.00     0.042 A 
HETATM    6  C6  UNL     1      23.992   7.480  50.377  1.00  0.00     0.055 A 
HETATM    7  C3  UNL     1      26.237   7.399  49.743  1.00  0.00     0.011 A 
HETATM    8  C22 UNL     1      25.161   8.361  50.148  1.00  0.00     0.117 A 
HETATM    9  N2  UNL     1      22.735   7.729  50.762  1.00  0.00    -0.245 NA
HETATM   10  C7  UNL     1      21.821   6.724  50.912  1.00  0.00     0.235 A 
HETATM   11  N3  UNL     1      22.262   5.466  50.647  1.00  0.00    -0.224 NA
BRANCH   7  12
HETATM   12  N1  UNL     1      27.557   7.872  49.430  1.00  0.00    -0.390 N 
HETATM   13  H4  UNL     1      28.212   8.490  49.982  1.00  0.00     0.159 HD
BRANCH  12  14
HETATM   14  C2  UNL     1      28.060   7.414  48.128  1.00  0.00     0.156 C 
BRANCH  14  15
HETATM   15  C1  UNL     1      29.255   6.539  48.284  1.00  0.00     0.410 C 
HETATM   16  O1  UNL     1      30.427   6.863  48.145  1.00  0.00    -0.428 OA
ENDBRANCH  14  15
ENDBRANCH  12  14
ENDBRANCH   7  12
ENDBRANCH   1   3
BRANCH   1  17
HETATM   17  C9  UNL     1      24.587   3.200  50.944  1.00  0.00     0.033 A 
HETATM   18  C10 UNL     1      24.339   3.009  52.286  1.00  0.00     0.030 A 
HETATM   19  C11 UNL     1      25.279   2.408  53.131  1.00  0.00     0.012 A 
HETATM   20  C12 UNL     1      26.519   1.976  52.631  1.00  0.00    -0.025 A 
HETATM   21  C20 UNL     1      26.712   2.184  51.309  1.00  0.00     0.012 A 
HETATM   22  C21 UNL     1      25.821   2.768  50.440  1.00  0.00     0.030 A 
BRANCH  20  23
HETATM   23  C13 UNL     1      27.303   1.374  53.728  1.00  0.00     0.184 C 
BRANCH  23  24
HETATM   24  O2  UNL     1      26.412   1.291  54.824  1.00  0.00    -0.386 OA
HETATM   25  H11 UNL     1      26.843   0.763  55.519  1.00  0.00     0.210 HD
ENDBRANCH  23  24
BRANCH  23  26
HETATM   26  C14 UNL     1      27.877   0.067  53.484  1.00  0.00    -0.025 A 
HETATM   27  C15 UNL     1      27.038  -0.950  53.031  1.00  0.00     0.010 A 
HETATM   28  C16 UNL     1      27.438  -2.244  52.784  1.00  0.00     0.001 A 
HETATM   29  C17 UNL     1      28.751  -2.608  52.987  1.00  0.00     0.000 A 
HETATM   30  C18 UNL     1      29.626  -1.652  53.434  1.00  0.00     0.001 A 
HETATM   31  C19 UNL     1      29.166  -0.380  53.660  1.00  0.00     0.010 A 
ENDBRANCH  23  26
ENDBRANCH  20  23
ENDBRANCH   1  17
TORSDOF 8
ENDMDL
MODEL 7
REMARK VINA RESULT:      -7.9      3.716      6.326
REMARK  8 active torsions:
REMARK  status: ('A' for Active; 'I' for Inactive)
REMARK    1  A    between atoms: C1_2  and  C2_3 
REMARK    2  A    between atoms: C2_3  and  N1_4 
REMARK    3  A    between atoms: N1_4  and  C3_5 
REMARK    4  A    between atoms: C8_12  and  N4_13 
REMARK    5  A    between atoms: N4_13  and  C9_14 
REMARK    6  A    between atoms: C12_17  and  C13_18 
REMARK    7  A    between atoms: C13_18  and  O2_19 
REMARK    8  A    between atoms: C13_18  and  C14_20 
ROOT
HETATM    1  N4  UNL     1      21.866   4.096  51.926  1.00  0.00    -0.340 N 
HETATM    2  H7  UNL     1      21.042   4.527  52.378  1.00  0.00     0.167 HD
ENDROOT
BRANCH   1   3
HETATM    3  C8  UNL     1      22.278   2.778  52.152  1.00  0.00     0.141 A 
HETATM    4  C5  UNL     1      23.472   2.336  52.672  1.00  0.00     0.037 A 
HETATM    5  C4  UNL     1      24.632   3.092  53.110  1.00  0.00     0.042 A 
HETATM    6  C6  UNL     1      23.595   0.970  52.792  1.00  0.00     0.055 A 
HETATM    7  C3  UNL     1      25.480   2.148  53.505  1.00  0.00     0.011 A 
HETATM    8  C22 UNL     1      24.946   0.755  53.360  1.00  0.00     0.117 A 
HETATM    9  N2  UNL     1      22.623   0.125  52.429  1.00  0.00    -0.245 NA
HETATM   10  C7  UNL     1      21.440   0.576  51.912  1.00  0.00     0.235 A 
HETATM   11  N3  UNL     1      21.312   1.923  51.792  1.00  0.00    -0.224 NA
BRANCH   7  12
HETATM   12  N1  UNL     1      26.797   2.373  54.033  1.00  0.00    -0.390 N 
HETATM   13  H4  UNL     1      27.138   3.072  54.747  1.00  0.00     0.159 HD
BRANCH  12  14
HETATM   14  C2  UNL     1      27.821   1.479  53.478  1.00  0.00     0.156 C 
BRANCH  14  15
HETATM   15  C1  UNL     1      28.443   0.638  54.539  1.00  0.00     0.410 C 
HETATM   16  O1  UNL     1      28.461  -0.585  54.591  1.00  0.00    -0.428 OA
ENDBRANCH  14  15
ENDBRANCH  12  14
ENDBRANCH   7  12
ENDBRANCH   1   3
BRANCH   1  17
HETATM   17  C9  UNL     1      22.675   4.821  51.013  1.00  0.00     0.033 A 
HETATM   18  C10 UNL     1      23.351   5.979  51.331  1.00  0.00     0.030 A 
HETATM   19  C11 UNL     1      24.111   6.674  50.383  1.00  0.00     0.012 A 
HETATM   20  C12 UNL     1      24.211   6.205  49.062  1.00  0.00    -0.025 A 
HETATM   21  C20 UNL     1      23.531   5.065  48.802  1.00  0.00     0.012 A 
HETATM   22  C21 UNL     1      22.773   4.349  49.697  1.00  0.00     0.030 A 
BRANCH  20  23
HETATM   23  C13 UNL     1      25.077   7.115  48.287  1.00  0.00     0.184 C 
BRANCH  23  24
HETATM   24  O2  UNL     1      24.987   8.367  48.941  1.00  0.00    -0.386 OA
HETATM   25  H11 UNL     1      24.088   8.448  49.306  1.00  0.00     0.210 HD
ENDBRANCH  23  24
BRANCH  23  26
HETATM   26  C14 UNL     1      26.471   6.745  48.160  1.00  0.00    -0.025 A 
HETATM   27  C15 UNL     1      26.866   5.489  48.618  1.00  0.00     0.010 A 
HETATM   28  C16 UNL     1      28.158   5.014  48.587  1.00  0.00     0.001 A 
HETATM   29  C17 UNL     1      29.167   5.803  48.079  1.00  0.00     0.000 A 
HETATM   30  C18 UNL     1      28.842   7.050  47.614  1.00  0.00     0.001 A 
HETATM   31  C19 UNL     1      27.537   7.465  47.671  1.00  0.00     0.010 A 
ENDBRANCH  23  26
ENDBRANCH  20  23
ENDBRANCH   1  17
TORSDOF 8
ENDMDL
MODEL 8
REMARK VINA RESULT:      -7.8      3.760      6.592
REMARK  8 active torsions:
REMARK  status: ('A' for Active; 'I' for Inactive)
REMARK    1  A    between atoms: C1_2  and  C2_3 
REMARK    2  A    between atoms: C2_3  and  N1_4 
REMARK    3  A    between atoms: N1_4  and  C3_5 
REMARK    4  A    between atoms: C8_12  and  N4_13 
REMARK    5  A    between atoms: N4_13  and  C9_14 
REMARK    6  A    between atoms: C12_17  and  C13_18 
REMARK    7  A    between atoms: C13_18  and  O2_19 
REMARK    8  A    between atoms: C13_18  and  C14_20 
ROOT
HETATM    1  N4  UNL     1      23.385   3.911  49.459  1.00  0.00    -0.340 N 
HETATM    2  H7  UNL     1      23.097   3.576  48.525  1.00  0.00     0.167 HD
ENDROOT
BRANCH   1   3
HETATM    3  C8  UNL     1      23.288   5.245  49.872  1.00  0.00     0.141 A 
HETATM    4  C5  UNL     1      24.276   6.202  49.902  1.00  0.00     0.037 A 
HETATM    5  C4  UNL     1      25.678   6.101  49.540  1.00  0.00     0.042 A 
HETATM    6  C6  UNL     1      23.883   7.443  50.350  1.00  0.00     0.055 A 
HETATM    7  C3  UNL     1      26.142   7.324  49.778  1.00  0.00     0.011 A 
HETATM    8  C22 UNL     1      25.106   8.276  50.293  1.00  0.00     0.117 A 
HETATM    9  N2  UNL     1      22.627   7.706  50.731  1.00  0.00    -0.245 NA
HETATM   10  C7  UNL     1      21.654   6.748  50.698  1.00  0.00     0.235 A 
HETATM   11  N3  UNL     1      22.034   5.520  50.257  1.00  0.00    -0.224 NA
BRANCH   7  12
HETATM   12  N1  UNL     1      27.498   7.758  49.580  1.00  0.00    -0.390 N 
HETATM   13  H4  UNL     1      28.379   7.198  49.420  1.00  0.00     0.159 HD
BRANCH  12  14
HETATM   14  C2  UNL     1      27.666   9.216  49.611  1.00  0.00     0.156 C 
BRANCH  14  15
HETATM   15  C1  UNL     1      29.095   9.603  49.446  1.00  0.00     0.410 C 
HETATM   16  O1  UNL     1      30.038   8.854  49.222  1.00  0.00    -0.428 OA
ENDBRANCH  14  15
ENDBRANCH  12  14
ENDBRANCH   7  12
ENDBRANCH   1   3
BRANCH   1  17
HETATM   17  C9  UNL     1      23.918   3.028  50.433  1.00  0.00     0.033 A 
HETATM   18  C10 UNL     1      23.156   2.336  51.349  1.00  0.00     0.030 A 
HETATM   19  C11 UNL     1      23.736   1.500  52.311  1.00  0.00     0.012 A 
HETATM   20  C12 UNL     1      25.131   1.338  52.371  1.00  0.00    -0.025 A 
HETATM   21  C20 UNL     1      25.833   2.036  51.450  1.00  0.00     0.012 A 
HETATM   22  C21 UNL     1      25.309   2.867  50.489  1.00  0.00     0.030 A 
BRANCH  20  23
HETATM   23  C13 UNL     1      25.464   0.399  53.461  1.00  0.00     0.184 C 
BRANCH  23  24
HETATM   24  O2  UNL     1      24.697  -0.762  53.205  1.00  0.00    -0.386 OA
HETATM   25  H11 UNL     1      23.995  -0.522  52.575  1.00  0.00     0.210 HD
ENDBRANCH  23  24
BRANCH  23  26
HETATM   26  C14 UNL     1      26.856   0.027  53.603  1.00  0.00    -0.025 A 
HETATM   27  C15 UNL     1      27.303  -1.123  52.953  1.00  0.00     0.010 A 
HETATM   28  C16 UNL     1      28.588  -1.612  53.021  1.00  0.00     0.001 A 
HETATM   29  C17 UNL     1      29.534  -0.954  53.775  1.00  0.00     0.000 A 
HETATM   30  C18 UNL     1      29.155   0.182  54.441  1.00  0.00     0.001 A 
HETATM   31  C19 UNL     1      27.861   0.620  54.332  1.00  0.00     0.010 A 
ENDBRANCH  23  26
ENDBRANCH  20  23
ENDBRANCH   1  17
TORSDOF 8
ENDMDL
MODEL 9
REMARK VINA RESULT:      -7.8      4.016      6.415
REMARK  8 active torsions:
REMARK  status: ('A' for Active; 'I' for Inactive)
REMARK    1  A    between atoms: C1_2  and  C2_3 
REMARK    2  A    between atoms: C2_3  and  N1_4 
REMARK    3  A    between atoms: N1_4  and  C3_5 
REMARK    4  A    between atoms: C8_12  and  N4_13 
REMARK    5  A    between atoms: N4_13  and  C9_14 
REMARK    6  A    between atoms: C12_17  and  C13_18 
REMARK    7  A    between atoms: C13_18  and  O2_19 
REMARK    8  A    between atoms: C13_18  and  C14_20 
ROOT
HETATM    1  N4  UNL     1      23.318   4.469  52.460  1.00  0.00    -0.340 N 
HETATM    2  H7  UNL     1      22.898   5.066  53.192  1.00  0.00     0.167 HD
ENDROOT
BRANCH   1   3
HETATM    3  C8  UNL     1      23.215   3.074  52.438  1.00  0.00     0.141 A 
HETATM    4  C5  UNL     1      24.078   2.147  52.975  1.00  0.00     0.037 A 
HETATM    5  C4  UNL     1      25.327   2.343  53.688  1.00  0.00     0.042 A 
HETATM    6  C6  UNL     1      23.709   0.830  52.808  1.00  0.00     0.055 A 
HETATM    7  C3  UNL     1      25.722   1.103  53.958  1.00  0.00     0.011 A 
HETATM    8  C22 UNL     1      24.785   0.046  53.457  1.00  0.00     0.117 A 
HETATM    9  N2  UNL     1      22.590   0.472  52.167  1.00  0.00    -0.245 NA
HETATM   10  C7  UNL     1      21.741   1.402  51.637  1.00  0.00     0.235 A 
HETATM   11  N3  UNL     1      22.098   2.703  51.798  1.00  0.00    -0.224 NA
BRANCH   7  12
HETATM   12  N1  UNL     1      26.921   0.741  54.661  1.00  0.00    -0.390 N 
HETATM   13  H4  UNL     1      27.119   0.693  55.697  1.00  0.00     0.159 HD
BRANCH  12  14
HETATM   14  C2  UNL     1      28.042   0.386  53.781  1.00  0.00     0.156 C 
BRANCH  14  15
HETATM   15  C1  UNL     1      29.034   1.494  53.690  1.00  0.00     0.410 C 
HETATM   16  O1  UNL     1      29.008   2.556  54.298  1.00  0.00    -0.428 OA
ENDBRANCH  14  15
ENDBRANCH  12  14
ENDBRANCH   7  12
ENDBRANCH   1   3
BRANCH   1  17
HETATM   17  C9  UNL     1      24.058   5.025  51.384  1.00  0.00     0.033 A 
HETATM   18  C10 UNL     1      24.589   4.287  50.349  1.00  0.00     0.030 A 
HETATM   19  C11 UNL     1      25.338   4.881  49.326  1.00  0.00     0.012 A 
HETATM   20  C12 UNL     1      25.574   6.266  49.324  1.00  0.00    -0.025 A 
HETATM   21  C20 UNL     1      25.031   6.945  50.360  1.00  0.00     0.012 A 
HETATM   22  C21 UNL     1      24.289   6.407  51.384  1.00  0.00     0.030 A 
BRANCH  20  23
HETATM   23  C13 UNL     1      26.374   6.621  48.135  1.00  0.00     0.184 C 
BRANCH  23  24
HETATM   24  O2  UNL     1      25.921   7.904  47.747  1.00  0.00    -0.386 OA
HETATM   25  H11 UNL     1      26.015   8.498  48.512  1.00  0.00     0.210 HD
ENDBRANCH  23  24
BRANCH  23  26
HETATM   26  C14 UNL     1      27.812   6.656  48.299  1.00  0.00    -0.025 A 
HETATM   27  C15 UNL     1      28.422   7.888  48.532  1.00  0.00     0.010 A 
HETATM   28  C16 UNL     1      29.778   8.076  48.679  1.00  0.00     0.001 A 
HETATM   29  C17 UNL     1      30.634   7.000  48.594  1.00  0.00     0.000 A 
HETATM   30  C18 UNL     1      30.095   5.761  48.363  1.00  0.00     0.001 A 
HETATM   31  C19 UNL     1      28.736   5.639  48.228  1.00  0.00     0.010 A 
ENDBRANCH  23  26
ENDBRANCH  20  23
ENDBRANCH   1  17
TORSDOF 8
ENDMDL
