MODEL 1
REMARK VINA RESULT:      -7.8      0.000      0.000
REMARK  6 active torsions:
REMARK  status: ('A' for Active; 'I' for Inactive)
REMARK    1  A    between atoms: N1_2  and  C2_3 
REMARK    2  A    between atoms: C2_3  and  C3_4 
REMARK    3  A    between atoms: C4_5  and  C5_6 
REMARK    4  A    between atoms: C5_6  and  C6_7 
REMARK    5  A    between atoms: C7_10  and  N3_11 
REMARK    6  A    between atoms: N3_11  and  C8_12 
ROOT
HETATM    1  C3  UNL     1      22.719   1.036  52.436  1.00  0.00     0.086 A 
HETATM    2  C4  UNL     1      23.996   1.335  52.011  1.00  0.00     0.085 A 
HETATM    3  N2  UNL     1      24.961   0.663  52.684  1.00  0.00    -0.227 NA
HETATM    4  C7  UNL     1      24.699  -0.197  53.658  1.00  0.00     0.157 A 
HETATM    5  C15 UNL     1      23.408  -0.445  54.032  1.00  0.00     0.104 A 
HETATM    6  C16 UNL     1      22.926  -1.276  55.013  1.00  0.00     0.151 A 
HETATM    7  N4  UNL     1      21.594  -1.116  54.952  1.00  0.00    -0.253 NA
HETATM    8  C17 UNL     1      21.309  -0.245  53.993  1.00  0.00     0.215 A 
HETATM    9  N5  UNL     1      22.419   0.186  53.404  1.00  0.00    -0.298 N 
ENDROOT
BRANCH   4  10
HETATM   10  N3  UNL     1      25.776  -0.856  54.292  1.00  0.00    -0.339 N 
HETATM   11  H7  UNL     1      25.445  -1.608  54.936  1.00  0.00     0.167 HD
BRANCH  10  12
HETATM   12  C8  UNL     1      27.130  -0.527  54.072  1.00  0.00     0.042 A 
HETATM   13  C9  UNL     1      27.666   0.568  54.707  1.00  0.00     0.072 A 
HETATM   14  C10 UNL     1      28.989   0.869  54.470  1.00  0.00     0.118 A 
HETATM   15  F1  UNL     1      29.525   1.960  55.104  1.00  0.00    -0.206 F 
HETATM   16  C11 UNL     1      29.808   0.124  53.622  1.00  0.00     0.043 A 
HETATM   17  C12 UNL     1      29.193  -0.955  53.026  1.00  0.00     0.012 A 
HETATM   18  C13 UNL     1      27.879  -1.310  53.220  1.00  0.00    -0.035 A 
HETATM   19  C14 UNL     1      27.273  -2.511  52.541  1.00  0.00     0.050 C 
ENDBRANCH  10  12
ENDBRANCH   4  10
BRANCH   2  20
HETATM   20  C5  UNL     1      24.441   2.173  51.096  1.00  0.00     0.022 C 
BRANCH  20  21
HETATM   21  C6  UNL     1      25.525   3.178  51.073  1.00  0.00     0.144 C 
HETATM   22 CL1  UNL     1      26.458   3.131  49.545  1.00  0.00    -0.126 Cl
ENDBRANCH  20  21
ENDBRANCH   2  20
BRANCH   1  23
HETATM   23  C2  UNL     1      21.811   1.717  51.721  1.00  0.00     0.142 C 
BRANCH  23  24
HETATM   24  N1  UNL     1      20.916   1.171  50.711  1.00  0.00    -0.298 NA
HETATM   25  C1  UNL     1      21.330   0.940  49.474  1.00  0.00     0.170 C 
ENDBRANCH  23  24
ENDBRANCH   1  23
TORSDOF 6
ENDMDL
MODEL 2
REMARK VINA RESULT:      -7.6      2.564      4.137
REMARK  6 active torsions:
REMARK  status: ('A' for Active; 'I' for Inactive)
REMARK    1  A    between atoms: N1_2  and  C2_3 
REMARK    2  A    between atoms: C2_3  and  C3_4 
REMARK    3  A    between atoms: C4_5  and  C5_6 
REMARK    4  A    between atoms: C5_6  and  C6_7 
REMARK    5  A    between atoms: C7_10  and  N3_11 
REMARK    6  A    between atoms: N3_11  and  C8_12 
ROOT
HETATM    1  C3  UNL     1      23.307   1.793  51.243  1.00  0.00     0.086 A 
HETATM    2  C4  UNL     1      23.120   1.050  52.390  1.00  0.00     0.085 A 
HETATM    3  N2  UNL     1      24.229   0.960  53.162  1.00  0.00    -0.227 NA
HETATM    4  C7  UNL     1      25.382   1.530  52.842  1.00  0.00     0.157 A 
HETATM    5  C15 UNL     1      25.499   2.251  51.687  1.00  0.00     0.104 A 
HETATM    6  C16 UNL     1      26.593   2.901  51.169  1.00  0.00     0.151 A 
HETATM    7  N4  UNL     1      26.147   3.423  50.016  1.00  0.00    -0.253 NA
HETATM    8  C17 UNL     1      24.868   3.102  49.863  1.00  0.00     0.215 A 
HETATM    9  N5  UNL     1      24.441   2.375  50.890  1.00  0.00    -0.298 N 
ENDROOT
BRANCH   4  10
HETATM   10  N3  UNL     1      26.480   1.385  53.721  1.00  0.00    -0.339 N 
HETATM   11  H7  UNL     1      26.441   2.072  54.505  1.00  0.00     0.167 HD
BRANCH  10  12
HETATM   12  C8  UNL     1      27.497   0.425  53.546  1.00  0.00     0.042 A 
HETATM   13  C9  UNL     1      27.155  -0.855  53.176  1.00  0.00     0.072 A 
HETATM   14  C10 UNL     1      28.168  -1.775  53.018  1.00  0.00     0.118 A 
HETATM   15  F1  UNL     1      27.827  -3.050  52.648  1.00  0.00    -0.206 F 
HETATM   16  C11 UNL     1      29.516  -1.476  53.212  1.00  0.00     0.043 A 
HETATM   17  C12 UNL     1      29.772  -0.174  53.582  1.00  0.00     0.012 A 
HETATM   18  C13 UNL     1      28.809   0.791  53.756  1.00  0.00    -0.035 A 
HETATM   19  C14 UNL     1      29.162   2.201  54.152  1.00  0.00     0.050 C 
ENDBRANCH  10  12
ENDBRANCH   4  10
BRANCH   2  20
HETATM   20  C5  UNL     1      22.073   0.394  52.848  1.00  0.00     0.022 C 
BRANCH  20  21
HETATM   21  C6  UNL     1      21.581   0.075  54.205  1.00  0.00     0.144 C 
HETATM   22 CL1  UNL     1      21.793  -1.657  54.611  1.00  0.00    -0.126 Cl
ENDBRANCH  20  21
ENDBRANCH   2  20
BRANCH   1  23
HETATM   23  C2  UNL     1      22.171   1.861  50.533  1.00  0.00     0.142 C 
BRANCH  23  24
HETATM   24  N1  UNL     1      21.916   1.231  49.244  1.00  0.00    -0.298 NA
HETATM   25  C1  UNL     1      21.278   1.873  48.277  1.00  0.00     0.170 C 
ENDBRANCH  23  24
ENDBRANCH   1  23
TORSDOF 6
ENDMDL
MODEL 3
REMARK VINA RESULT:      -7.4      1.698      2.337
REMARK  6 active torsions:
REMARK  status: ('A' for Active; 'I' for Inactive)
REMARK    1  A    between atoms: N1_2  and  C2_3 
REMARK    2  A    between atoms: C2_3  and  C3_4 
REMARK    3  A    between atoms: C4_5  and  C5_6 
REMARK    4  A    between atoms: C5_6  and  C6_7 
REMARK    5  A    between atoms: C7_10  and  N3_11 
REMARK    6  A    between atoms: N3_11  and  C8_12 
ROOT
HETATM    1  C3  UNL     1      23.323   1.455  51.219  1.00  0.00     0.086 A 
HETATM    2  C4  UNL     1      24.441   2.242  51.039  1.00  0.00     0.085 A 
HETATM    3  N2  UNL     1      25.395   2.048  51.981  1.00  0.00    -0.227 NA
HETATM    4  C7  UNL     1      25.262   1.186  52.980  1.00  0.00     0.157 A 
HETATM    5  C15 UNL     1      24.124   0.439  53.101  1.00  0.00     0.104 A 
HETATM    6  C16 UNL     1      23.783  -0.487  54.056  1.00  0.00     0.151 A 
HETATM    7  N4  UNL     1      22.555  -0.892  53.695  1.00  0.00    -0.253 NA
HETATM    8  C17 UNL     1      22.194  -0.246  52.593  1.00  0.00     0.215 A 
HETATM    9  N5  UNL     1      23.153   0.587  52.203  1.00  0.00    -0.298 N 
ENDROOT
BRANCH   4  10
HETATM   10  N3  UNL     1      26.320   1.050  53.907  1.00  0.00    -0.339 N 
HETATM   11  H7  UNL     1      26.132   1.576  54.788  1.00  0.00     0.167 HD
BRANCH  10  12
HETATM   12  C8  UNL     1      27.482   0.291  53.658  1.00  0.00     0.042 A 
HETATM   13  C9  UNL     1      27.363  -1.056  53.408  1.00  0.00     0.072 A 
HETATM   14  C10 UNL     1      28.515  -1.774  53.173  1.00  0.00     0.118 A 
HETATM   15  F1  UNL     1      28.397  -3.116  52.922  1.00  0.00    -0.206 F 
HETATM   16  C11 UNL     1      29.789  -1.208  53.177  1.00  0.00     0.043 A 
HETATM   17  C12 UNL     1      29.820   0.145  53.436  1.00  0.00     0.012 A 
HETATM   18  C13 UNL     1      28.709   0.918  53.677  1.00  0.00    -0.035 A 
HETATM   19  C14 UNL     1      28.816   2.397  53.945  1.00  0.00     0.050 C 
ENDBRANCH  10  12
ENDBRANCH   4  10
BRANCH   2  20
HETATM   20  C5  UNL     1      24.730   3.160  50.140  1.00  0.00     0.022 C 
BRANCH  20  21
HETATM   21  C6  UNL     1      25.129   4.581  50.224  1.00  0.00     0.144 C 
HETATM   22 CL1  UNL     1      26.492   4.966  49.128  1.00  0.00    -0.126 Cl
ENDBRANCH  20  21
ENDBRANCH   2  20
BRANCH   1  23
HETATM   23  C2  UNL     1      22.425   1.679  50.248  1.00  0.00     0.142 C 
BRANCH  23  24
HETATM   24  N1  UNL     1      21.167   2.400  50.378  1.00  0.00    -0.298 NA
HETATM   25  C1  UNL     1      20.996   3.327  51.309  1.00  0.00     0.170 C 
ENDBRANCH  23  24
ENDBRANCH   1  23
TORSDOF 6
ENDMDL
MODEL 4
REMARK VINA RESULT:      -7.1      2.724      6.083
REMARK  6 active torsions:
REMARK  status: ('A' for Active; 'I' for Inactive)
REMARK    1  A    between atoms: N1_2  and  C2_3 
REMARK    2  A    between atoms: C2_3  and  C3_4 
REMARK    3  A    between atoms: C4_5  and  C5_6 
REMARK    4  A    between atoms: C5_6  and  C6_7 
REMARK    5  A    between atoms: C7_10  and  N3_11 
REMARK    6  A    between atoms: N3_11  and  C8_12 
ROOT
HETATM    1  C3  UNL     1      24.915  -0.214  53.547  1.00  0.00     0.086 A 
HETATM    2  C4  UNL     1      25.187   0.624  52.485  1.00  0.00     0.085 A 
HETATM    3  N2  UNL     1      24.079   1.179  51.938  1.00  0.00    -0.227 NA
HETATM    4  C7  UNL     1      22.853   0.937  52.382  1.00  0.00     0.157 A 
HETATM    5  C15 UNL     1      22.655   0.092  53.438  1.00  0.00     0.104 A 
HETATM    6  C16 UNL     1      21.483  -0.302  54.035  1.00  0.00     0.151 A 
HETATM    7  N4  UNL     1      21.876  -1.145  55.003  1.00  0.00    -0.253 NA
HETATM    8  C17 UNL     1      23.199  -1.242  54.979  1.00  0.00     0.215 A 
HETATM    9  N5  UNL     1      23.708  -0.481  54.016  1.00  0.00    -0.298 N 
ENDROOT
BRANCH   4  10
HETATM   10  N3  UNL     1      21.761   1.574  51.749  1.00  0.00    -0.339 N 
HETATM   11  H7  UNL     1      20.868   1.410  52.262  1.00  0.00     0.167 HD
BRANCH  10  12
HETATM   12  C8  UNL     1      21.881   2.335  50.568  1.00  0.00     0.042 A 
HETATM   13  C9  UNL     1      22.194   1.700  49.389  1.00  0.00     0.072 A 
HETATM   14  C10 UNL     1      22.310   2.468  48.252  1.00  0.00     0.118 A 
HETATM   15  F1  UNL     1      22.620   1.835  47.076  1.00  0.00    -0.206 F 
HETATM   16  C11 UNL     1      22.127   3.851  48.235  1.00  0.00     0.043 A 
HETATM   17  C12 UNL     1      21.817   4.407  49.457  1.00  0.00     0.012 A 
HETATM   18  C13 UNL     1      21.687   3.698  50.627  1.00  0.00    -0.035 A 
HETATM   19  C14 UNL     1      21.336   4.372  51.928  1.00  0.00     0.050 C 
ENDBRANCH  10  12
ENDBRANCH   4  10
BRANCH   2  20
HETATM   20  C5  UNL     1      26.318   0.953  51.896  1.00  0.00     0.022 C 
BRANCH  20  21
HETATM   21  C6  UNL     1      26.955   2.243  51.556  1.00  0.00     0.144 C 
HETATM   22 CL1  UNL     1      26.348   2.910  50.009  1.00  0.00    -0.126 Cl
ENDBRANCH  20  21
ENDBRANCH   2  20
BRANCH   1  23
HETATM   23  C2  UNL     1      26.050  -0.716  54.055  1.00  0.00     0.142 C 
BRANCH  23  24
HETATM   24  N1  UNL     1      26.882  -0.110  55.086  1.00  0.00    -0.298 NA
HETATM   25  C1  UNL     1      28.182   0.068  54.908  1.00  0.00     0.170 C 
ENDBRANCH  23  24
ENDBRANCH   1  23
TORSDOF 6
ENDMDL
MODEL 5
REMARK VINA RESULT:      -7.0      3.391      7.227
REMARK  6 active torsions:
REMARK  status: ('A' for Active; 'I' for Inactive)
REMARK    1  A    between atoms: N1_2  and  C2_3 
REMARK    2  A    between atoms: C2_3  and  C3_4 
REMARK    3  A    between atoms: C4_5  and  C5_6 
REMARK    4  A    between atoms: C5_6  and  C6_7 
REMARK    5  A    between atoms: C7_10  and  N3_11 
REMARK    6  A    between atoms: N3_11  and  C8_12 
ROOT
HETATM    1  C3  UNL     1      25.813   0.551  53.501  1.00  0.00     0.086 A 
HETATM    2  C4  UNL     1      24.567  -0.026  53.638  1.00  0.00     0.085 A 
HETATM    3  N2  UNL     1      23.673   0.393  52.712  1.00  0.00    -0.227 NA
HETATM    4  C7  UNL     1      23.969   1.274  51.766  1.00  0.00     0.157 A 
HETATM    5  C15 UNL     1      25.224   1.809  51.689  1.00  0.00     0.104 A 
HETATM    6  C16 UNL     1      25.727   2.736  50.808  1.00  0.00     0.151 A 
HETATM    7  N4  UNL     1      26.999   2.906  51.204  1.00  0.00    -0.253 NA
HETATM    8  C17 UNL     1      27.231   2.126  52.252  1.00  0.00     0.215 A 
HETATM    9  N5  UNL     1      26.144   1.433  52.573  1.00  0.00    -0.298 N 
ENDROOT
BRANCH   4  10
HETATM   10  N3  UNL     1      22.966   1.640  50.838  1.00  0.00    -0.339 N 
HETATM   11  H7  UNL     1      23.368   1.852  49.899  1.00  0.00     0.167 HD
BRANCH  10  12
HETATM   12  C8  UNL     1      21.595   1.705  51.158  1.00  0.00     0.042 A 
HETATM   13  C9  UNL     1      20.815   0.584  50.999  1.00  0.00     0.072 A 
HETATM   14  C10 UNL     1      19.477   0.677  51.314  1.00  0.00     0.118 A 
HETATM   15  F1  UNL     1      18.699  -0.441  51.157  1.00  0.00    -0.206 F 
HETATM   16  C11 UNL     1      18.876   1.845  51.783  1.00  0.00     0.043 A 
HETATM   17  C12 UNL     1      19.727   2.920  51.912  1.00  0.00     0.012 A 
HETATM   18  C13 UNL     1      21.069   2.894  51.617  1.00  0.00    -0.035 A 
HETATM   19  C14 UNL     1      21.944   4.108  51.792  1.00  0.00     0.050 C 
ENDBRANCH  10  12
ENDBRANCH   4  10
BRANCH   2  20
HETATM   20  C5  UNL     1      24.091  -0.880  54.521  1.00  0.00     0.022 C 
BRANCH  20  21
HETATM   21  C6  UNL     1      22.783  -1.029  55.194  1.00  0.00     0.144 C 
HETATM   22 CL1  UNL     1      21.591  -1.892  54.173  1.00  0.00    -0.126 Cl
ENDBRANCH  20  21
ENDBRANCH   2  20
BRANCH   1  23
HETATM   23  C2  UNL     1      26.656   0.083  54.433  1.00  0.00     0.142 C 
BRANCH  23  24
HETATM   24  N1  UNL     1      27.777  -0.820  54.213  1.00  0.00    -0.298 NA
HETATM   25  C1  UNL     1      29.028  -0.382  54.220  1.00  0.00     0.170 C 
ENDBRANCH  23  24
ENDBRANCH   1  23
TORSDOF 6
ENDMDL
MODEL 6
REMARK VINA RESULT:      -7.0      2.631      4.439
REMARK  6 active torsions:
REMARK  status: ('A' for Active; 'I' for Inactive)
REMARK    1  A    between atoms: N1_2  and  C2_3 
REMARK    2  A    between atoms: C2_3  and  C3_4 
REMARK    3  A    between atoms: C4_5  and  C5_6 
REMARK    4  A    between atoms: C5_6  and  C6_7 
REMARK    5  A    between atoms: C7_10  and  N3_11 
REMARK    6  A    between atoms: N3_11  and  C8_12 
ROOT
HETATM    1  C3  UNL     1      22.618   3.832  50.687  1.00  0.00     0.086 A 
HETATM    2  C4  UNL     1      23.701   3.002  50.485  1.00  0.00     0.085 A 
HETATM    3  N2  UNL     1      23.543   1.769  51.023  1.00  0.00    -0.227 NA
HETATM    4  C7  UNL     1      22.452   1.400  51.680  1.00  0.00     0.157 A 
HETATM    5  C15 UNL     1      21.416   2.275  51.846  1.00  0.00     0.104 A 
HETATM    6  C16 UNL     1      20.220   2.101  52.498  1.00  0.00     0.151 A 
HETATM    7  N4  UNL     1      19.599   3.283  52.363  1.00  0.00    -0.253 NA
HETATM    8  C17 UNL     1      20.380   4.104  51.673  1.00  0.00     0.215 A 
HETATM    9  N5  UNL     1      21.516   3.501  51.338  1.00  0.00    -0.298 N 
ENDROOT
BRANCH   4  10
HETATM   10  N3  UNL     1      22.380   0.085  52.195  1.00  0.00    -0.339 N 
HETATM   11  H7  UNL     1      21.732  -0.514  51.638  1.00  0.00     0.167 HD
BRANCH  10  12
HETATM   12  C8  UNL     1      23.103  -0.350  53.324  1.00  0.00     0.042 A 
HETATM   13  C9  UNL     1      24.464  -0.164  53.363  1.00  0.00     0.072 A 
HETATM   14  C10 UNL     1      25.146  -0.604  54.476  1.00  0.00     0.118 A 
HETATM   15  F1  UNL     1      26.503  -0.418  54.515  1.00  0.00    -0.206 F 
HETATM   16  C11 UNL     1      24.528  -1.226  55.561  1.00  0.00     0.043 A 
HETATM   17  C12 UNL     1      23.164  -1.373  55.442  1.00  0.00     0.012 A 
HETATM   18  C13 UNL     1      22.425  -0.957  54.360  1.00  0.00    -0.035 A 
HETATM   19  C14 UNL     1      20.931  -1.143  54.302  1.00  0.00     0.050 C 
ENDBRANCH  10  12
ENDBRANCH   4  10
BRANCH   2  20
HETATM   20  C5  UNL     1      24.861   3.204  49.896  1.00  0.00     0.022 C 
BRANCH  20  21
HETATM   21  C6  UNL     1      26.246   3.354  50.391  1.00  0.00     0.144 C 
HETATM   22 CL1  UNL     1      26.749   1.976  51.419  1.00  0.00    -0.126 Cl
ENDBRANCH  20  21
ENDBRANCH   2  20
BRANCH   1  23
HETATM   23  C2  UNL     1      22.827   5.029  50.118  1.00  0.00     0.142 C 
BRANCH  23  24
HETATM   24  N1  UNL     1      23.034   6.294  50.809  1.00  0.00    -0.298 NA
HETATM   25  C1  UNL     1      22.161   7.285  50.711  1.00  0.00     0.170 C 
ENDBRANCH  23  24
ENDBRANCH   1  23
TORSDOF 6
ENDMDL
MODEL 7
REMARK VINA RESULT:      -6.8      8.678     11.749
REMARK  6 active torsions:
REMARK  status: ('A' for Active; 'I' for Inactive)
REMARK    1  A    between atoms: N1_2  and  C2_3 
REMARK    2  A    between atoms: C2_3  and  C3_4 
REMARK    3  A    between atoms: C4_5  and  C5_6 
REMARK    4  A    between atoms: C5_6  and  C6_7 
REMARK    5  A    between atoms: C7_10  and  N3_11 
REMARK    6  A    between atoms: N3_11  and  C8_12 
ROOT
HETATM    1  C3  UNL     1      33.591   4.626  47.110  1.00  0.00     0.086 A 
HETATM    2  C4  UNL     1      32.436   3.872  47.082  1.00  0.00     0.085 A 
HETATM    3  N2  UNL     1      31.407   4.437  47.757  1.00  0.00    -0.227 NA
HETATM    4  C7  UNL     1      31.503   5.601  48.384  1.00  0.00     0.157 A 
HETATM    5  C15 UNL     1      32.680   6.295  48.374  1.00  0.00     0.104 A 
HETATM    6  C16 UNL     1      32.993   7.495  48.965  1.00  0.00     0.151 A 
HETATM    7  N4  UNL     1      34.282   7.691  48.645  1.00  0.00    -0.253 NA
HETATM    8  C17 UNL     1      34.704   6.669  47.910  1.00  0.00     0.215 A 
HETATM    9  N5  UNL     1      33.726   5.789  47.725  1.00  0.00    -0.298 N 
ENDROOT
BRANCH   4  10
HETATM   10  N3  UNL     1      30.366   6.111  49.052  1.00  0.00    -0.339 N 
HETATM   11  H7  UNL     1      30.364   5.854  50.063  1.00  0.00     0.167 HD
BRANCH  10  12
HETATM   12  C8  UNL     1      29.366   6.874  48.416  1.00  0.00     0.042 A 
HETATM   13  C9  UNL     1      29.650   8.160  48.023  1.00  0.00     0.072 A 
HETATM   14  C10 UNL     1      28.652   8.885  47.409  1.00  0.00     0.118 A 
HETATM   15  F1  UNL     1      28.936  10.166  47.015  1.00  0.00    -0.206 F 
HETATM   16  C11 UNL     1      27.374   8.382  47.167  1.00  0.00     0.043 A 
HETATM   17  C12 UNL     1      27.172   7.088  47.592  1.00  0.00     0.012 A 
HETATM   18  C13 UNL     1      28.124   6.312  48.210  1.00  0.00    -0.035 A 
HETATM   19  C14 UNL     1      27.836   4.897  48.641  1.00  0.00     0.050 C 
ENDBRANCH  10  12
ENDBRANCH   4  10
BRANCH   2  20
HETATM   20  C5  UNL     1      32.169   2.698  46.547  1.00  0.00     0.022 C 
BRANCH  20  21
HETATM   21  C6  UNL     1      32.274   1.306  47.035  1.00  0.00     0.144 C 
HETATM   22 CL1  UNL     1      33.148   1.200  48.594  1.00  0.00    -0.126 Cl
ENDBRANCH  20  21
ENDBRANCH   2  20
BRANCH   1  23
HETATM   23  C2  UNL     1      34.566   4.024  46.412  1.00  0.00     0.142 C 
BRANCH  23  24
HETATM   24  N1  UNL     1      34.774   4.100  44.972  1.00  0.00    -0.298 NA
HETATM   25  C1  UNL     1      34.413   5.168  44.278  1.00  0.00     0.170 C 
ENDBRANCH  23  24
ENDBRANCH   1  23
TORSDOF 6
ENDMDL
MODEL 8
REMARK VINA RESULT:      -6.8      7.903     10.261
REMARK  6 active torsions:
REMARK  status: ('A' for Active; 'I' for Inactive)
REMARK    1  A    between atoms: N1_2  and  C2_3 
REMARK    2  A    between atoms: C2_3  and  C3_4 
REMARK    3  A    between atoms: C4_5  and  C5_6 
REMARK    4  A    between atoms: C5_6  and  C6_7 
REMARK    5  A    between atoms: C7_10  and  N3_11 
REMARK    6  A    between atoms: N3_11  and  C8_12 
ROOT
HETATM    1  C3  UNL     1      28.972   7.368  48.187  1.00  0.00     0.086 A 
HETATM    2  C4  UNL     1      28.896   6.011  48.420  1.00  0.00     0.085 A 
HETATM    3  N2  UNL     1      30.089   5.448  48.725  1.00  0.00    -0.227 NA
HETATM    4  C7  UNL     1      31.220   6.137  48.791  1.00  0.00     0.157 A 
HETATM    5  C15 UNL     1      31.224   7.481  48.545  1.00  0.00     0.104 A 
HETATM    6  C16 UNL     1      32.274   8.367  48.545  1.00  0.00     0.151 A 
HETATM    7  N4  UNL     1      31.711   9.542  48.224  1.00  0.00    -0.253 NA
HETATM    8  C17 UNL     1      30.408   9.361  48.046  1.00  0.00     0.215 A 
HETATM    9  N5  UNL     1      30.080   8.088  48.241  1.00  0.00    -0.298 N 
ENDROOT
BRANCH   4  10
HETATM   10  N3  UNL     1      32.413   5.458  49.128  1.00  0.00    -0.339 N 
HETATM   11  H7  UNL     1      32.702   5.649  50.112  1.00  0.00     0.167 HD
BRANCH  10  12
HETATM   12  C8  UNL     1      33.115   4.625  48.233  1.00  0.00     0.042 A 
HETATM   13  C9  UNL     1      32.500   3.498  47.742  1.00  0.00     0.072 A 
HETATM   14  C10 UNL     1      33.212   2.700  46.873  1.00  0.00     0.118 A 
HETATM   15  F1  UNL     1      32.598   1.577  46.382  1.00  0.00    -0.206 F 
HETATM   16  C11 UNL     1      34.518   2.975  46.468  1.00  0.00     0.043 A 
HETATM   17  C12 UNL     1      35.059   4.122  47.007  1.00  0.00     0.012 A 
HETATM   18  C13 UNL     1      34.404   4.961  47.877  1.00  0.00    -0.035 A 
HETATM   19  C14 UNL     1      35.056   6.206  48.420  1.00  0.00     0.050 C 
ENDBRANCH  10  12
ENDBRANCH   4  10
BRANCH   2  20
HETATM   20  C5  UNL     1      27.884   5.169  48.369  1.00  0.00     0.022 C 
BRANCH  20  21
HETATM   21  C6  UNL     1      26.776   4.846  49.294  1.00  0.00     0.144 C 
HETATM   22 CL1  UNL     1      26.567   3.080  49.507  1.00  0.00    -0.126 Cl
ENDBRANCH  20  21
ENDBRANCH   2  20
BRANCH   1  23
HETATM   23  C2  UNL     1      27.759   7.869  47.909  1.00  0.00     0.142 C 
BRANCH  23  24
HETATM   24  N1  UNL     1      26.997   8.800  48.730  1.00  0.00    -0.298 NA
HETATM   25  C1  UNL     1      26.746   8.549  50.006  1.00  0.00     0.170 C 
ENDBRANCH  23  24
ENDBRANCH   1  23
TORSDOF 6
ENDMDL
MODEL 9
REMARK VINA RESULT:      -6.7      3.343      7.240
REMARK  6 active torsions:
REMARK  status: ('A' for Active; 'I' for Inactive)
REMARK    1  A    between atoms: N1_2  and  C2_3 
REMARK    2  A    between atoms: C2_3  and  C3_4 
REMARK    3  A    between atoms: C4_5  and  C5_6 
REMARK    4  A    between atoms: C5_6  and  C6_7 
REMARK    5  A    between atoms: C7_10  and  N3_11 
REMARK    6  A    between atoms: N3_11  and  C8_12 
ROOT
HETATM    1  C3  UNL     1      25.180   0.499  52.962  1.00  0.00     0.086 A 
HETATM    2  C4  UNL     1      23.829   0.408  53.223  1.00  0.00     0.085 A 
HETATM    3  N2  UNL     1      23.098   1.381  52.628  1.00  0.00    -0.227 NA
HETATM    4  C7  UNL     1      23.632   2.328  51.870  1.00  0.00     0.157 A 
HETATM    5  C15 UNL     1      24.981   2.361  51.654  1.00  0.00     0.104 A 
HETATM    6  C16 UNL     1      25.729   3.252  50.924  1.00  0.00     0.151 A 
HETATM    7  N4  UNL     1      26.991   2.817  51.070  1.00  0.00    -0.253 NA
HETATM    8  C17 UNL     1      26.987   1.734  51.838  1.00  0.00     0.215 A 
HETATM    9  N5  UNL     1      25.750   1.429  52.213  1.00  0.00    -0.298 N 
ENDROOT
BRANCH   4  10
HETATM   10  N3  UNL     1      22.781   3.293  51.284  1.00  0.00    -0.339 N 
HETATM   11  H7  UNL     1      22.824   4.204  51.791  1.00  0.00     0.167 HD
BRANCH  10  12
HETATM   12  C8  UNL     1      21.978   3.041  50.153  1.00  0.00     0.042 A 
HETATM   13  C9  UNL     1      22.575   2.916  48.921  1.00  0.00     0.072 A 
HETATM   14  C10 UNL     1      21.765   2.675  47.833  1.00  0.00     0.118 A 
HETATM   15  F1  UNL     1      22.360   2.549  46.604  1.00  0.00    -0.206 F 
HETATM   16  C11 UNL     1      20.379   2.553  47.916  1.00  0.00     0.043 A 
HETATM   17  C12 UNL     1      19.862   2.692  49.185  1.00  0.00     0.012 A 
HETATM   18  C13 UNL     1      20.613   2.932  50.312  1.00  0.00    -0.035 A 
HETATM   19  C14 UNL     1      19.981   3.064  51.673  1.00  0.00     0.050 C 
ENDBRANCH  10  12
ENDBRANCH   4  10
BRANCH   2  20
HETATM   20  C5  UNL     1      23.135  -0.430  53.965  1.00  0.00     0.022 C 
BRANCH  20  21
HETATM   21  C6  UNL     1      22.039  -1.380  53.680  1.00  0.00     0.144 C 
HETATM   22 CL1  UNL     1      20.424  -0.632  53.886  1.00  0.00    -0.126 Cl
ENDBRANCH  20  21
ENDBRANCH   2  20
BRANCH   1  23
HETATM   23  C2  UNL     1      25.846  -0.499  53.561  1.00  0.00     0.142 C 
BRANCH  23  24
HETATM   24  N1  UNL     1      26.610  -0.411  54.798  1.00  0.00    -0.298 NA
HETATM   25  C1  UNL     1      27.847   0.064  54.813  1.00  0.00     0.170 C 
ENDBRANCH  23  24
ENDBRANCH   1  23
TORSDOF 6
ENDMDL
