MODEL 1
REMARK VINA RESULT:      -7.0      0.000      0.000
REMARK  2 active torsions:
REMARK  status: ('A' for Active; 'I' for Inactive)
REMARK    1  A    between atoms: C2_2  and  O1_3 
REMARK    2  A    between atoms: O1_3  and  C3_4 
ROOT
HETATM    1  C3  UNL     1      23.230   0.628  52.648  1.00  0.00     0.079 C 
HETATM    2  C4  UNL     1      22.308  -0.348  52.959  1.00  0.00     0.017 C 
HETATM    3  C5  UNL     1      20.851   0.011  52.574  1.00  0.00     0.041 C 
HETATM    4  C6  UNL     1      20.591   1.387  53.002  1.00  0.00     0.032 C 
HETATM    5  C7  UNL     1      20.071   2.202  52.102  1.00  0.00     0.126 A 
HETATM    6  N1  UNL     1      19.766   3.584  52.248  1.00  0.00    -0.392 N 
HETATM    7  P1  UNL     1      21.311   3.789  51.498  1.00  0.00    -0.031 P 
HETATM    8  C8  UNL     1      21.890   5.262  51.364  1.00  0.00    -0.009 C 
HETATM    9  C9  UNL     1      22.965   5.344  50.593  1.00  0.00     0.015 C 
HETATM   10  C10 UNL     1      23.806   4.469  49.763  1.00  0.00     0.018 C 
HETATM   11  C11 UNL     1      24.184   3.197  49.950  1.00  0.00     0.084 C 
HETATM   12  N2  UNL     1      24.028   2.078  50.802  1.00  0.00    -0.378 N 
HETATM   13  C12 UNL     1      22.906   1.670  51.615  1.00  0.00     0.137 C 
HETATM   14  C13 UNL     1      21.894   1.010  50.766  1.00  0.00     0.056 C 
HETATM   15  C14 UNL     1      21.941   1.305  49.333  1.00  0.00     0.098 C 
HETATM   16  N3  UNL     1      21.998   1.547  48.182  1.00  0.00    -0.192 NA
HETATM   17  C15 UNL     1      20.906   0.112  51.052  1.00  0.00     0.004 C 
HETATM   18  C16 UNL     1      22.569   2.892  52.394  1.00  0.00     0.164 C 
HETATM   19 CL1  UNL     1      24.116   3.886  52.535  1.00  0.00    -0.115 Cl
HETATM   20  H10 UNL     1      18.876   3.944  52.679  1.00  0.00     0.158 HD
HETATM   21  H11 UNL     1      21.172   3.388  50.124  1.00  0.00     0.077 HD
HETATM   22  H15 UNL     1      24.920   1.551  50.759  1.00  0.00     0.160 HD
ENDROOT
BRANCH   1  23
HETATM   23  O1  UNL     1      24.456   0.638  53.299  1.00  0.00    -0.353 OA
BRANCH  23  24
HETATM   24  C2  UNL     1      25.340  -0.453  53.379  1.00  0.00     0.171 C 
HETATM   25  C1  UNL     1      26.443  -0.188  52.361  1.00  0.00     0.034 C 
ENDBRANCH  23  24
ENDBRANCH   1  23
TORSDOF 2
ENDMDL
MODEL 2
REMARK VINA RESULT:      -6.9      2.286      4.248
REMARK  2 active torsions:
REMARK  status: ('A' for Active; 'I' for Inactive)
REMARK    1  A    between atoms: C2_2  and  O1_3 
REMARK    2  A    between atoms: O1_3  and  C3_4 
ROOT
HETATM    1  C3  UNL     1      23.686   0.527  52.877  1.00  0.00     0.079 C 
HETATM    2  C4  UNL     1      24.838   0.171  53.545  1.00  0.00     0.017 C 
HETATM    3  C5  UNL     1      26.064   1.056  53.211  1.00  0.00     0.041 C 
HETATM    4  C6  UNL     1      26.118   1.231  51.757  1.00  0.00     0.032 C 
HETATM    5  C7  UNL     1      26.242   2.468  51.311  1.00  0.00     0.126 A 
HETATM    6  N1  UNL     1      26.275   2.910  49.958  1.00  0.00    -0.392 N 
HETATM    7  P1  UNL     1      24.594   3.209  50.235  1.00  0.00    -0.031 P 
HETATM    8  C8  UNL     1      23.704   3.679  49.007  1.00  0.00    -0.009 C 
HETATM    9  C9  UNL     1      22.491   4.089  49.353  1.00  0.00     0.015 C 
HETATM   10  C10 UNL     1      21.690   4.281  50.570  1.00  0.00     0.018 C 
HETATM   11  C11 UNL     1      21.639   3.561  51.699  1.00  0.00     0.084 C 
HETATM   12  N2  UNL     1      22.211   2.453  52.367  1.00  0.00    -0.378 N 
HETATM   13  C12 UNL     1      23.546   1.906  52.298  1.00  0.00     0.137 C 
HETATM   14  C13 UNL     1      24.458   2.721  53.124  1.00  0.00     0.056 C 
HETATM   15  C14 UNL     1      24.033   4.089  53.423  1.00  0.00     0.098 C 
HETATM   16  N3  UNL     1      23.672   5.185  53.662  1.00  0.00    -0.192 NA
HETATM   17  C15 UNL     1      25.652   2.434  53.723  1.00  0.00     0.004 C 
HETATM   18  C16 UNL     1      23.784   1.736  50.838  1.00  0.00     0.164 C 
HETATM   19 CL1  UNL     1      22.134   1.517  50.045  1.00  0.00    -0.115 Cl
HETATM   20  H10 UNL     1      27.142   2.906  49.363  1.00  0.00     0.158 HD
HETATM   21  H11 UNL     1      24.504   4.334  51.127  1.00  0.00     0.077 HD
HETATM   22  H15 UNL     1      21.463   2.052  52.963  1.00  0.00     0.160 HD
ENDROOT
BRANCH   1  23
HETATM   23  O1  UNL     1      22.661  -0.400  52.745  1.00  0.00    -0.353 OA
BRANCH  23  24
HETATM   24  C2  UNL     1      22.156  -1.202  53.785  1.00  0.00     0.171 C 
HETATM   25  C1  UNL     1      21.318  -0.284  54.667  1.00  0.00     0.034 C 
ENDBRANCH  23  24
ENDBRANCH   1  23
TORSDOF 2
ENDMDL
MODEL 3
REMARK VINA RESULT:      -6.6      3.306      6.243
REMARK  2 active torsions:
REMARK  status: ('A' for Active; 'I' for Inactive)
REMARK    1  A    between atoms: C2_2  and  O1_3 
REMARK    2  A    between atoms: O1_3  and  C3_4 
ROOT
HETATM    1  C3  UNL     1      23.220   5.854  47.809  1.00  0.00     0.079 C 
HETATM    2  C4  UNL     1      23.927   6.951  47.366  1.00  0.00     0.017 C 
HETATM    3  C5  UNL     1      24.901   7.543  48.416  1.00  0.00     0.041 C 
HETATM    4  C6  UNL     1      24.194   7.630  49.696  1.00  0.00     0.032 C 
HETATM    5  C7  UNL     1      24.806   7.118  50.749  1.00  0.00     0.126 A 
HETATM    6  N1  UNL     1      24.323   7.036  52.085  1.00  0.00    -0.392 N 
HETATM    7  P1  UNL     1      23.876   5.437  51.603  1.00  0.00    -0.031 P 
HETATM    8  C8  UNL     1      23.043   4.551  52.624  1.00  0.00    -0.009 C 
HETATM    9  C9  UNL     1      22.932   3.280  52.262  1.00  0.00     0.015 C 
HETATM   10  C10 UNL     1      23.384   2.391  51.182  1.00  0.00     0.018 C 
HETATM   11  C11 UNL     1      23.544   2.626  49.873  1.00  0.00     0.084 C 
HETATM   12  N2  UNL     1      23.481   3.635  48.883  1.00  0.00    -0.378 N 
HETATM   13  C12 UNL     1      23.721   5.056  48.979  1.00  0.00     0.137 C 
HETATM   14  C13 UNL     1      25.174   5.314  48.976  1.00  0.00     0.056 C 
HETATM   15  C14 UNL     1      26.043   4.201  49.360  1.00  0.00     0.098 C 
HETATM   16  N3  UNL     1      26.728   3.292  49.663  1.00  0.00    -0.192 NA
HETATM   17  C15 UNL     1      25.906   6.416  48.636  1.00  0.00     0.004 C 
HETATM   18  C16 UNL     1      22.872   5.482  50.126  1.00  0.00     0.164 C 
HETATM   19 CL1  UNL     1      21.476   4.284  50.238  1.00  0.00    -0.115 Cl
HETATM   20  H10 UNL     1      24.389   7.823  52.779  1.00  0.00     0.158 HD
HETATM   21  H11 UNL     1      25.091   4.680  51.462  1.00  0.00     0.077 HD
HETATM   22  H15 UNL     1      23.206   3.163  48.002  1.00  0.00     0.160 HD
ENDROOT
BRANCH   1  23
HETATM   23  O1  UNL     1      22.044   5.497  47.164  1.00  0.00    -0.353 OA
BRANCH  23  24
HETATM   24  C2  UNL     1      21.907   5.300  45.778  1.00  0.00     0.171 C 
HETATM   25  C1  UNL     1      21.899   3.792  45.558  1.00  0.00     0.034 C 
ENDBRANCH  23  24
ENDBRANCH   1  23
TORSDOF 2
ENDMDL
MODEL 4
REMARK VINA RESULT:      -6.5     10.812     13.302
REMARK  2 active torsions:
REMARK  status: ('A' for Active; 'I' for Inactive)
REMARK    1  A    between atoms: C2_2  and  O1_3 
REMARK    2  A    between atoms: O1_3  and  C3_4 
ROOT
HETATM    1  C3  UNL     1      33.893   7.629  45.699  1.00  0.00     0.079 C 
HETATM    2  C4  UNL     1      33.598   8.829  46.309  1.00  0.00     0.017 C 
HETATM    3  C5  UNL     1      32.769   8.693  47.610  1.00  0.00     0.041 C 
HETATM    4  C6  UNL     1      31.681   7.744  47.361  1.00  0.00     0.032 C 
HETATM    5  C7  UNL     1      31.533   6.766  48.237  1.00  0.00     0.126 A 
HETATM    6  N1  UNL     1      30.591   5.700  48.204  1.00  0.00    -0.392 N 
HETATM    7  P1  UNL     1      31.913   4.832  47.504  1.00  0.00    -0.031 P 
HETATM    8  C8  UNL     1      31.648   3.358  46.977  1.00  0.00    -0.009 C 
HETATM    9  C9  UNL     1      32.753   2.698  46.659  1.00  0.00     0.015 C 
HETATM   10  C10 UNL     1      34.209   2.901  46.671  1.00  0.00     0.018 C 
HETATM   11  C11 UNL     1      34.935   3.999  46.420  1.00  0.00     0.084 C 
HETATM   12  N2  UNL     1      34.843   5.379  46.120  1.00  0.00    -0.378 N 
HETATM   13  C12 UNL     1      33.839   6.351  46.486  1.00  0.00     0.137 C 
HETATM   14  C13 UNL     1      34.063   6.792  47.877  1.00  0.00     0.056 C 
HETATM   15  C14 UNL     1      34.845   5.902  48.735  1.00  0.00     0.098 C 
HETATM   16  N3  UNL     1      35.483   5.177  49.409  1.00  0.00    -0.192 NA
HETATM   17  C15 UNL     1      33.705   7.930  48.544  1.00  0.00     0.004 C 
HETATM   18  C16 UNL     1      32.558   5.706  46.086  1.00  0.00     0.164 C 
HETATM   19 CL1  UNL     1      32.947   4.540  44.712  1.00  0.00    -0.115 Cl
HETATM   20  H10 UNL     1      29.601   5.784  48.550  1.00  0.00     0.158 HD
HETATM   21  H11 UNL     1      32.879   4.615  48.548  1.00  0.00     0.077 HD
HETATM   22  H15 UNL     1      35.672   5.608  45.541  1.00  0.00     0.160 HD
ENDROOT
BRANCH   1  23
HETATM   23  O1  UNL     1      34.237   7.615  44.355  1.00  0.00    -0.353 OA
BRANCH  23  24
HETATM   24  C2  UNL     1      33.648   8.415  43.359  1.00  0.00     0.171 C 
HETATM   25  C1  UNL     1      32.363   7.708  42.944  1.00  0.00     0.034 C 
ENDBRANCH  23  24
ENDBRANCH   1  23
TORSDOF 2
ENDMDL
MODEL 5
REMARK VINA RESULT:      -6.3      2.390      4.444
REMARK  2 active torsions:
REMARK  status: ('A' for Active; 'I' for Inactive)
REMARK    1  A    between atoms: C2_2  and  O1_3 
REMARK    2  A    between atoms: O1_3  and  C3_4 
ROOT
HETATM    1  C3  UNL     1      19.616   2.704  51.759  1.00  0.00     0.079 C 
HETATM    2  C4  UNL     1      19.201   1.392  51.695  1.00  0.00     0.017 C 
HETATM    3  C5  UNL     1      20.136   0.471  50.871  1.00  0.00     0.041 C 
HETATM    4  C6  UNL     1      20.478   1.163  49.626  1.00  0.00     0.032 C 
HETATM    5  C7  UNL     1      21.760   1.227  49.315  1.00  0.00     0.126 A 
HETATM    6  N1  UNL     1      22.355   1.873  48.195  1.00  0.00    -0.392 N 
HETATM    7  P1  UNL     1      22.598   3.156  49.329  1.00  0.00    -0.031 P 
HETATM    8  C8  UNL     1      23.194   4.526  48.794  1.00  0.00    -0.009 C 
HETATM    9  C9  UNL     1      23.544   5.368  49.757  1.00  0.00     0.015 C 
HETATM   10  C10 UNL     1      23.584   5.419  51.226  1.00  0.00     0.018 C 
HETATM   11  C11 UNL     1      22.737   4.918  52.135  1.00  0.00     0.084 C 
HETATM   12  N2  UNL     1      21.568   4.137  52.291  1.00  0.00    -0.378 N 
HETATM   13  C12 UNL     1      21.051   3.056  51.485  1.00  0.00     0.137 C 
HETATM   14  C13 UNL     1      21.778   1.811  51.803  1.00  0.00     0.056 C 
HETATM   15  C14 UNL     1      23.095   1.955  52.422  1.00  0.00     0.098 C 
HETATM   16  N3  UNL     1      24.151   2.089  52.927  1.00  0.00    -0.192 NA
HETATM   17  C15 UNL     1      21.439   0.494  51.666  1.00  0.00     0.004 C 
HETATM   18  C16 UNL     1      21.053   3.610  50.103  1.00  0.00     0.164 C 
HETATM   19 CL1  UNL     1      20.905   5.441  50.257  1.00  0.00    -0.115 Cl
HETATM   20  H10 UNL     1      22.432   1.436  47.241  1.00  0.00     0.158 HD
HETATM   21  H11 UNL     1      23.610   2.720  50.253  1.00  0.00     0.077 HD
HETATM   22  H15 UNL     1      21.090   4.491  53.141  1.00  0.00     0.160 HD
ENDROOT
BRANCH   1  23
HETATM   23  O1  UNL     1      18.696   3.694  52.078  1.00  0.00    -0.353 OA
BRANCH  23  24
HETATM   24  C2  UNL     1      17.368   3.744  51.618  1.00  0.00     0.171 C 
HETATM   25  C1  UNL     1      17.423   4.311  50.205  1.00  0.00     0.034 C 
ENDBRANCH  23  24
ENDBRANCH   1  23
TORSDOF 2
ENDMDL
MODEL 6
REMARK VINA RESULT:      -6.2     11.073     13.030
REMARK  2 active torsions:
REMARK  status: ('A' for Active; 'I' for Inactive)
REMARK    1  A    between atoms: C2_2  and  O1_3 
REMARK    2  A    between atoms: O1_3  and  C3_4 
ROOT
HETATM    1  C3  UNL     1      32.887   4.997  45.414  1.00  0.00     0.079 C 
HETATM    2  C4  UNL     1      33.014   3.759  46.006  1.00  0.00     0.017 C 
HETATM    3  C5  UNL     1      33.485   3.807  47.481  1.00  0.00     0.041 C 
HETATM    4  C6  UNL     1      34.602   4.750  47.574  1.00  0.00     0.032 C 
HETATM    5  C7  UNL     1      34.524   5.673  48.515  1.00  0.00     0.126 A 
HETATM    6  N1  UNL     1      35.446   6.723  48.787  1.00  0.00    -0.392 N 
HETATM    7  P1  UNL     1      34.347   7.652  47.827  1.00  0.00    -0.031 P 
HETATM    8  C8  UNL     1      34.740   9.149  47.473  1.00  0.00    -0.009 C 
HETATM    9  C9  UNL     1      33.754   9.845  46.925  1.00  0.00     0.015 C 
HETATM   10  C10 UNL     1      32.342   9.667  46.554  1.00  0.00     0.018 C 
HETATM   11  C11 UNL     1      31.702   8.597  46.062  1.00  0.00     0.084 C 
HETATM   12  N2  UNL     1      31.865   7.236  45.713  1.00  0.00    -0.378 N 
HETATM   13  C12 UNL     1      32.740   6.227  46.264  1.00  0.00     0.137 C 
HETATM   14  C13 UNL     1      32.169   5.711  47.523  1.00  0.00     0.056 C 
HETATM   15  C14 UNL     1      31.196   6.564  48.206  1.00  0.00     0.098 C 
HETATM   16  N3  UNL     1      30.408   7.259  48.738  1.00  0.00    -0.192 NA
HETATM   17  C15 UNL     1      32.343   4.531  48.190  1.00  0.00     0.004 C 
HETATM   18  C16 UNL     1      34.082   6.872  46.242  1.00  0.00     0.164 C 
HETATM   19 CL1  UNL     1      34.058   8.121  44.886  1.00  0.00    -0.115 Cl
HETATM   20  H10 UNL     1      36.315   6.603  49.367  1.00  0.00     0.158 HD
HETATM   21  H11 UNL     1      33.147   7.825  48.602  1.00  0.00     0.077 HD
HETATM   22  H15 UNL     1      31.210   7.054  44.930  1.00  0.00     0.160 HD
ENDROOT
BRANCH   1  23
HETATM   23  O1  UNL     1      32.897   5.094  44.030  1.00  0.00    -0.353 OA
BRANCH  23  24
HETATM   24  C2  UNL     1      33.976   4.739  43.200  1.00  0.00     0.171 C 
HETATM   25  C1  UNL     1      33.372   4.341  41.858  1.00  0.00     0.034 C 
ENDBRANCH  23  24
ENDBRANCH   1  23
TORSDOF 2
ENDMDL
MODEL 7
REMARK VINA RESULT:      -6.1      2.328      5.057
REMARK  2 active torsions:
REMARK  status: ('A' for Active; 'I' for Inactive)
REMARK    1  A    between atoms: C2_2  and  O1_3 
REMARK    2  A    between atoms: O1_3  and  C3_4 
ROOT
HETATM    1  C3  UNL     1      22.487   4.919  50.852  1.00  0.00     0.079 C 
HETATM    2  C4  UNL     1      23.810   5.276  50.698  1.00  0.00     0.017 C 
HETATM    3  C5  UNL     1      24.792   4.078  50.680  1.00  0.00     0.041 C 
HETATM    4  C6  UNL     1      24.429   3.174  51.774  1.00  0.00     0.032 C 
HETATM    5  C7  UNL     1      24.287   1.897  51.468  1.00  0.00     0.126 A 
HETATM    6  N1  UNL     1      23.902   0.830  52.328  1.00  0.00    -0.392 N 
HETATM    7  P1  UNL     1      22.337   1.134  51.657  1.00  0.00    -0.031 P 
HETATM    8  C8  UNL     1      21.100   0.331  52.246  1.00  0.00    -0.009 C 
HETATM    9  C9  UNL     1      19.989   0.466  51.536  1.00  0.00     0.015 C 
HETATM   10  C10 UNL     1      19.532   1.128  50.305  1.00  0.00     0.018 C 
HETATM   11  C11 UNL     1      19.871   2.313  49.780  1.00  0.00     0.084 C 
HETATM   12  N2  UNL     1      20.723   3.430  49.948  1.00  0.00    -0.378 N 
HETATM   13  C12 UNL     1      22.042   3.520  50.531  1.00  0.00     0.137 C 
HETATM   14  C13 UNL     1      23.047   3.053  49.556  1.00  0.00     0.056 C 
HETATM   15  C14 UNL     1      22.569   2.185  48.480  1.00  0.00     0.098 C 
HETATM   16  N3  UNL     1      22.166   1.494  47.615  1.00  0.00    -0.192 NA
HETATM   17  C15 UNL     1      24.383   3.308  49.427  1.00  0.00     0.004 C 
HETATM   18  C16 UNL     1      21.892   2.852  51.853  1.00  0.00     0.164 C 
HETATM   19 CL1  UNL     1      20.124   3.025  52.347  1.00  0.00    -0.115 Cl
HETATM   20  H10 UNL     1      24.570   0.317  52.959  1.00  0.00     0.158 HD
HETATM   21  H11 UNL     1      22.368   0.689  50.290  1.00  0.00     0.077 HD
HETATM   22  H15 UNL     1      20.215   4.247  49.563  1.00  0.00     0.160 HD
ENDROOT
BRANCH   1  23
HETATM   23  O1  UNL     1      21.576   5.862  51.305  1.00  0.00    -0.353 OA
BRANCH  23  24
HETATM   24  C2  UNL     1      21.486   7.189  50.846  1.00  0.00     0.171 C 
HETATM   25  C1  UNL     1      20.449   7.186  49.729  1.00  0.00     0.034 C 
ENDBRANCH  23  24
ENDBRANCH   1  23
TORSDOF 2
ENDMDL
MODEL 8
REMARK VINA RESULT:      -6.0      8.639     10.233
REMARK  2 active torsions:
REMARK  status: ('A' for Active; 'I' for Inactive)
REMARK    1  A    between atoms: C2_2  and  O1_3 
REMARK    2  A    between atoms: O1_3  and  C3_4 
ROOT
HETATM    1  C3  UNL     1      29.450   6.326  48.164  1.00  0.00     0.079 C 
HETATM    2  C4  UNL     1      28.156   5.874  48.306  1.00  0.00     0.017 C 
HETATM    3  C5  UNL     1      27.095   7.000  48.374  1.00  0.00     0.041 C 
HETATM    4  C6  UNL     1      27.583   8.034  49.289  1.00  0.00     0.032 C 
HETATM    5  C7  UNL     1      27.560   9.278  48.848  1.00  0.00     0.126 A 
HETATM    6  N1  UNL     1      28.013  10.451  49.515  1.00  0.00    -0.392 N 
HETATM    7  P1  UNL     1      29.442  10.177  48.580  1.00  0.00    -0.031 P 
HETATM    8  C8  UNL     1      30.699  11.112  48.840  1.00  0.00    -0.009 C 
HETATM    9  C9  UNL     1      31.662  10.973  47.940  1.00  0.00     0.015 C 
HETATM   10  C10 UNL     1      31.930  10.216  46.708  1.00  0.00     0.018 C 
HETATM   11  C11 UNL     1      31.596   8.964  46.369  1.00  0.00     0.084 C 
HETATM   12  N2  UNL     1      30.884   7.820  46.801  1.00  0.00    -0.378 N 
HETATM   13  C12 UNL     1      29.712   7.709  47.638  1.00  0.00     0.137 C 
HETATM   14  C13 UNL     1      28.506   8.009  46.841  1.00  0.00     0.056 C 
HETATM   15  C14 UNL     1      28.699   8.788  45.618  1.00  0.00     0.098 C 
HETATM   16  N3  UNL     1      28.873   9.409  44.633  1.00  0.00    -0.192 NA
HETATM   17  C15 UNL     1      27.195   7.659  47.001  1.00  0.00     0.004 C 
HETATM   18  C16 UNL     1      30.055   8.519  48.839  1.00  0.00     0.164 C 
HETATM   19 CL1  UNL     1      31.892   8.510  48.989  1.00  0.00    -0.115 Cl
HETATM   20  H10 UNL     1      27.437  10.984  50.216  1.00  0.00     0.158 HD
HETATM   21  H11 UNL     1      29.117  10.474  47.211  1.00  0.00     0.077 HD
HETATM   22  H15 UNL     1      31.375   7.001  46.399  1.00  0.00     0.160 HD
ENDROOT
BRANCH   1  23
HETATM   23  O1  UNL     1      30.505   5.494  48.513  1.00  0.00    -0.353 OA
BRANCH  23  24
HETATM   24  C2  UNL     1      31.250   4.710  47.614  1.00  0.00     0.171 C 
HETATM   25  C1  UNL     1      32.708   4.839  48.039  1.00  0.00     0.034 C 
ENDBRANCH  23  24
ENDBRANCH   1  23
TORSDOF 2
ENDMDL
MODEL 9
REMARK VINA RESULT:      -5.9      8.621     10.839
REMARK  2 active torsions:
REMARK  status: ('A' for Active; 'I' for Inactive)
REMARK    1  A    between atoms: C2_2  and  O1_3 
REMARK    2  A    between atoms: O1_3  and  C3_4 
ROOT
HETATM    1  C3  UNL     1      30.842   8.152  48.501  1.00  0.00     0.079 C 
HETATM    2  C4  UNL     1      31.898   8.723  47.825  1.00  0.00     0.017 C 
HETATM    3  C5  UNL     1      31.477   9.643  46.652  1.00  0.00     0.041 C 
HETATM    4  C6  UNL     1      30.438   8.954  45.882  1.00  0.00     0.032 C 
HETATM    5  C7  UNL     1      29.338   9.637  45.623  1.00  0.00     0.126 A 
HETATM    6  N1  UNL     1      28.173   9.192  44.937  1.00  0.00    -0.392 N 
HETATM    7  P1  UNL     1      27.590   8.918  46.542  1.00  0.00    -0.031 P 
HETATM    8  C8  UNL     1      26.180   8.208  46.717  1.00  0.00    -0.009 C 
HETATM    9  C9  UNL     1      25.720   8.235  47.960  1.00  0.00     0.015 C 
HETATM   10  C10 UNL     1      26.106   8.764  49.276  1.00  0.00     0.018 C 
HETATM   11  C11 UNL     1      27.313   8.874  49.847  1.00  0.00     0.084 C 
HETATM   12  N2  UNL     1      28.697   8.680  49.627  1.00  0.00    -0.378 N 
HETATM   13  C12 UNL     1      29.471   8.760  48.410  1.00  0.00     0.137 C 
HETATM   14  C13 UNL     1      29.742  10.175  48.088  1.00  0.00     0.056 C 
HETATM   15  C14 UNL     1      28.851  11.170  48.686  1.00  0.00     0.098 C 
HETATM   16  N3  UNL     1      28.130  11.958  49.181  1.00  0.00    -0.192 NA
HETATM   17  C15 UNL     1      30.721  10.772  47.346  1.00  0.00     0.004 C 
HETATM   18  C16 UNL     1      28.727   7.889  47.458  1.00  0.00     0.164 C 
HETATM   19 CL1  UNL     1      27.822   6.639  48.467  1.00  0.00    -0.115 Cl
HETATM   20  H10 UNL     1      28.080   9.181  43.890  1.00  0.00     0.158 HD
HETATM   21  H11 UNL     1      27.359  10.208  47.136  1.00  0.00     0.077 HD
HETATM   22  H15 UNL     1      29.110   8.444  50.548  1.00  0.00     0.160 HD
ENDROOT
BRANCH   1  23
HETATM   23  O1  UNL     1      31.058   7.012  49.263  1.00  0.00    -0.353 OA
BRANCH  23  24
HETATM   24  C2  UNL     1      31.883   5.934  48.893  1.00  0.00     0.171 C 
HETATM   25  C1  UNL     1      31.132   5.172  47.808  1.00  0.00     0.034 C 
ENDBRANCH  23  24
ENDBRANCH   1  23
TORSDOF 2
ENDMDL
