MODEL 1
REMARK VINA RESULT:      -6.8      0.000      0.000
REMARK  7 active torsions:
REMARK  status: ('A' for Active; 'I' for Inactive)
REMARK    1  A    between atoms: C2_2  and  O1_3 
REMARK    2  A    between atoms: O1_3  and  C3_4 
REMARK    3  A    between atoms: C12_14  and  N2_15 
REMARK    4  A    between atoms: N2_15  and  C13_16 
REMARK    5  A    between atoms: C13_16  and  C14_17 
REMARK    6  A    between atoms: C15_19  and  O3_20 
REMARK    7  A    between atoms: O3_20  and  C16_21 
ROOT
HETATM    1  C3  UNL     1      25.238   2.884  50.469  1.00  0.00     0.099 C 
HETATM    2  C4  UNL     1      26.329   2.194  51.119  1.00  0.00     0.145 C 
HETATM    3  C5  UNL     1      25.856   1.410  52.388  1.00  0.00    -0.053 C 
HETATM    4  C6  UNL     1      25.141   1.398  53.665  1.00  0.00    -0.011 C 
HETATM    5  C7  UNL     1      24.057   0.700  52.935  1.00  0.00     0.004 C 
HETATM    6  C8  UNL     1      23.484   1.797  52.348  1.00  0.00     0.072 C 
HETATM    7  C9  UNL     1      24.166   2.952  52.773  1.00  0.00    -0.003 C 
HETATM    8  C10 UNL     1      23.922   4.147  52.317  1.00  0.00     0.083 C 
HETATM    9  N1  UNL     1      22.991   3.511  51.486  1.00  0.00    -0.363 N 
HETATM   10  C11 UNL     1      21.637   3.170  51.848  1.00  0.00     0.151 C 
HETATM   11  C12 UNL     1      23.777   3.376  50.231  1.00  0.00     0.351 C 
HETATM   12  C15 UNL     1      24.483  -0.655  53.453  1.00  0.00     0.156 C 
HETATM   13  C17 UNL     1      25.924  -0.825  53.151  1.00  0.00     0.006 C 
HETATM   14  C18 UNL     1      26.314   0.001  52.144  1.00  0.00     0.006 C 
ENDROOT
BRANCH  11  15
HETATM   15  N2  UNL     1      23.147   2.544  49.315  1.00  0.00     0.115 N 
HETATM   16  H15 UNL     1      23.641   1.706  48.977  1.00  0.00     0.319 HD
BRANCH  15  17
HETATM   17  C13 UNL     1      22.523   3.145  48.172  1.00  0.00     0.341 C 
BRANCH  17  18
HETATM   18  C14 UNL     1      22.660   4.644  48.251  1.00  0.00     0.261 C 
HETATM   19  O2  UNL     1      23.002   5.512  47.472  1.00  0.00    -0.305 OA
ENDBRANCH  17  18
ENDBRANCH  15  17
ENDBRANCH  11  15
BRANCH   1  20
HETATM   20  O1  UNL     1      25.828   3.538  49.336  1.00  0.00    -0.381 OA
BRANCH  20  21
HETATM   21  C2  UNL     1      26.273   4.848  49.463  1.00  0.00     0.164 C 
HETATM   22  C1  UNL     1      27.507   5.148  48.640  1.00  0.00     0.033 C 
ENDBRANCH  20  21
ENDBRANCH   1  20
BRANCH  12  23
HETATM   23  O3  UNL     1      24.160  -0.773  54.797  1.00  0.00    -0.353 OA
BRANCH  23  24
HETATM   24  C16 UNL     1      22.855  -1.308  54.809  1.00  0.00     0.392 C 
HETATM   25  F1  UNL     1      21.960  -0.355  55.228  1.00  0.00    -0.227 F 
ENDBRANCH  23  24
ENDBRANCH  12  23
TORSDOF 7
ENDMDL
MODEL 2
REMARK VINA RESULT:      -6.3      2.865      6.520
REMARK  7 active torsions:
REMARK  status: ('A' for Active; 'I' for Inactive)
REMARK    1  A    between atoms: C2_2  and  O1_3 
REMARK    2  A    between atoms: O1_3  and  C3_4 
REMARK    3  A    between atoms: C12_14  and  N2_15 
REMARK    4  A    between atoms: N2_15  and  C13_16 
REMARK    5  A    between atoms: C13_16  and  C14_17 
REMARK    6  A    between atoms: C15_19  and  O3_20 
REMARK    7  A    between atoms: O3_20  and  C16_21 
ROOT
HETATM    1  C3  UNL     1      23.255   0.778  52.675  1.00  0.00     0.099 C 
HETATM    2  C4  UNL     1      21.924   0.937  52.135  1.00  0.00     0.145 C 
HETATM    3  C5  UNL     1      21.901   1.901  50.904  1.00  0.00    -0.053 C 
HETATM    4  C6  UNL     1      22.251   3.193  50.311  1.00  0.00    -0.011 C 
HETATM    5  C7  UNL     1      23.332   2.462  49.609  1.00  0.00     0.004 C 
HETATM    6  C8  UNL     1      24.233   2.416  50.640  1.00  0.00     0.072 C 
HETATM    7  C9  UNL     1      23.699   3.102  51.746  1.00  0.00    -0.003 C 
HETATM    8  C10 UNL     1      24.273   3.155  52.912  1.00  0.00     0.083 C 
HETATM    9  N1  UNL     1      25.247   2.327  52.339  1.00  0.00    -0.363 N 
HETATM   10  C11 UNL     1      26.373   2.772  51.556  1.00  0.00     0.151 C 
HETATM   11  C12 UNL     1      24.795   0.990  52.810  1.00  0.00     0.351 C 
HETATM   12  C15 UNL     1      22.538   2.377  48.325  1.00  0.00     0.156 C 
HETATM   13  C17 UNL     1      21.216   1.787  48.645  1.00  0.00     0.006 C 
HETATM   14  C18 UNL     1      21.260   1.092  49.813  1.00  0.00     0.006 C 
ENDROOT
BRANCH  11  15
HETATM   15  N2  UNL     1      25.467  -0.039  52.163  1.00  0.00     0.115 N 
HETATM   16  H15 UNL     1      24.930  -0.708  51.594  1.00  0.00     0.319 HD
BRANCH  15  17
HETATM   17  C13 UNL     1      26.417  -0.805  52.916  1.00  0.00     0.341 C 
BRANCH  17  18
HETATM   18  C14 UNL     1      26.544  -0.230  54.304  1.00  0.00     0.261 C 
HETATM   19  O2  UNL     1      27.441  -0.166  55.123  1.00  0.00    -0.305 OA
ENDBRANCH  17  18
ENDBRANCH  15  17
ENDBRANCH  11  15
BRANCH   1  20
HETATM   20  O1  UNL     1      23.109  -0.130  53.778  1.00  0.00    -0.381 OA
BRANCH  20  21
HETATM   21  C2  UNL     1      21.843  -0.370  54.296  1.00  0.00     0.164 C 
HETATM   22  C1  UNL     1      21.483  -1.839  54.351  1.00  0.00     0.033 C 
ENDBRANCH  20  21
ENDBRANCH   1  20
BRANCH  12  23
HETATM   23  O3  UNL     1      22.480   3.623  47.719  1.00  0.00    -0.353 OA
BRANCH  23  24
HETATM   24  C16 UNL     1      21.596   3.455  46.632  1.00  0.00     0.392 C 
HETATM   25  F1  UNL     1      22.305   3.178  45.488  1.00  0.00    -0.227 F 
ENDBRANCH  23  24
ENDBRANCH  12  23
TORSDOF 7
ENDMDL
MODEL 3
REMARK VINA RESULT:      -6.2      3.008      4.516
REMARK  7 active torsions:
REMARK  status: ('A' for Active; 'I' for Inactive)
REMARK    1  A    between atoms: C2_2  and  O1_3 
REMARK    2  A    between atoms: O1_3  and  C3_4 
REMARK    3  A    between atoms: C12_14  and  N2_15 
REMARK    4  A    between atoms: N2_15  and  C13_16 
REMARK    5  A    between atoms: C13_16  and  C14_17 
REMARK    6  A    between atoms: C15_19  and  O3_20 
REMARK    7  A    between atoms: O3_20  and  C16_21 
ROOT
HETATM    1  C3  UNL     1      23.959   4.408  51.539  1.00  0.00     0.099 C 
HETATM    2  C4  UNL     1      23.765   3.352  52.507  1.00  0.00     0.145 C 
HETATM    3  C5  UNL     1      24.944   2.324  52.498  1.00  0.00    -0.053 C 
HETATM    4  C6  UNL     1      25.821   1.422  51.750  1.00  0.00    -0.011 C 
HETATM    5  C7  UNL     1      26.854   2.475  51.891  1.00  0.00     0.004 C 
HETATM    6  C8  UNL     1      26.431   3.295  50.879  1.00  0.00     0.072 C 
HETATM    7  C9  UNL     1      25.326   2.702  50.241  1.00  0.00    -0.003 C 
HETATM    8  C10 UNL     1      24.636   3.280  49.301  1.00  0.00     0.083 C 
HETATM    9  N1  UNL     1      25.490   4.371  49.507  1.00  0.00    -0.363 N 
HETATM   10  C11 UNL     1      26.794   4.541  48.914  1.00  0.00     0.151 C 
HETATM   11  C12 UNL     1      24.659   5.217  50.404  1.00  0.00     0.351 C 
HETATM   12  C15 UNL     1      27.527   1.761  53.042  1.00  0.00     0.156 C 
HETATM   13  C17 UNL     1      26.494   1.475  54.066  1.00  0.00     0.006 C 
HETATM   14  C18 UNL     1      25.421   2.297  53.922  1.00  0.00     0.006 C 
ENDROOT
BRANCH  11  15
HETATM   15  N2  UNL     1      25.392   6.259  50.956  1.00  0.00     0.115 N 
HETATM   16  H15 UNL     1      25.440   6.349  51.981  1.00  0.00     0.319 HD
BRANCH  15  17
HETATM   17  C13 UNL     1      25.190   7.579  50.434  1.00  0.00     0.341 C 
BRANCH  17  18
HETATM   18  C14 UNL     1      26.508   8.146  49.969  1.00  0.00     0.261 C 
HETATM   19  O2  UNL     1      27.270   8.993  50.393  1.00  0.00    -0.305 OA
ENDBRANCH  17  18
ENDBRANCH  15  17
ENDBRANCH  11  15
BRANCH   1  20
HETATM   20  O1  UNL     1      22.811   5.260  51.676  1.00  0.00    -0.381 OA
BRANCH  20  21
HETATM   21  C2  UNL     1      21.542   4.695  51.681  1.00  0.00     0.164 C 
HETATM   22  C1  UNL     1      20.952   4.528  50.298  1.00  0.00     0.033 C 
ENDBRANCH  20  21
ENDBRANCH   1  20
BRANCH  12  23
HETATM   23  O3  UNL     1      28.201   0.641  52.577  1.00  0.00    -0.353 OA
BRANCH  23  24
HETATM   24  C16 UNL     1      28.785   0.069  53.726  1.00  0.00     0.392 C 
HETATM   25  F1  UNL     1      29.958  -0.564  53.392  1.00  0.00    -0.227 F 
ENDBRANCH  23  24
ENDBRANCH  12  23
TORSDOF 7
ENDMDL
MODEL 4
REMARK VINA RESULT:      -5.9      6.580     10.105
REMARK  7 active torsions:
REMARK  status: ('A' for Active; 'I' for Inactive)
REMARK    1  A    between atoms: C2_2  and  O1_3 
REMARK    2  A    between atoms: O1_3  and  C3_4 
REMARK    3  A    between atoms: C12_14  and  N2_15 
REMARK    4  A    between atoms: N2_15  and  C13_16 
REMARK    5  A    between atoms: C13_16  and  C14_17 
REMARK    6  A    between atoms: C15_19  and  O3_20 
REMARK    7  A    between atoms: O3_20  and  C16_21 
ROOT
HETATM    1  C3  UNL     1      28.948   6.780  48.138  1.00  0.00     0.099 C 
HETATM    2  C4  UNL     1      29.754   5.600  47.919  1.00  0.00     0.145 C 
HETATM    3  C5  UNL     1      31.240   5.957  47.586  1.00  0.00    -0.053 C 
HETATM    4  C6  UNL     1      32.202   6.714  46.783  1.00  0.00    -0.011 C 
HETATM    5  C7  UNL     1      32.348   7.589  47.969  1.00  0.00     0.004 C 
HETATM    6  C8  UNL     1      31.225   8.352  47.783  1.00  0.00     0.072 C 
HETATM    7  C9  UNL     1      30.592   7.952  46.593  1.00  0.00    -0.003 C 
HETATM    8  C10 UNL     1      29.447   8.419  46.188  1.00  0.00     0.083 C 
HETATM    9  N1  UNL     1      29.459   9.155  47.381  1.00  0.00    -0.363 N 
HETATM   10  C11 UNL     1      30.120  10.422  47.579  1.00  0.00     0.151 C 
HETATM   11  C12 UNL     1      28.610   8.299  48.251  1.00  0.00     0.351 C 
HETATM   12  C15 UNL     1      33.629   6.912  48.401  1.00  0.00     0.156 C 
HETATM   13  C17 UNL     1      33.369   5.454  48.478  1.00  0.00     0.006 C 
HETATM   14  C18 UNL     1      32.040   5.200  48.606  1.00  0.00     0.006 C 
ENDROOT
BRANCH  11  15
HETATM   15  N2  UNL     1      28.671   8.694  49.581  1.00  0.00     0.115 N 
HETATM   16  H15 UNL     1      29.075   8.050  50.276  1.00  0.00     0.319 HD
BRANCH  15  17
HETATM   17  C13 UNL     1      27.495   9.259  50.173  1.00  0.00     0.341 C 
BRANCH  17  18
HETATM   18  C14 UNL     1      26.641   9.889  49.103  1.00  0.00     0.261 C 
HETATM   19  O2  UNL     1      26.281  11.024  48.855  1.00  0.00    -0.305 OA
ENDBRANCH  17  18
ENDBRANCH  15  17
ENDBRANCH  11  15
BRANCH   1  20
HETATM   20  O1  UNL     1      27.633   6.288  48.437  1.00  0.00    -0.381 OA
BRANCH  20  21
HETATM   21  C2  UNL     1      27.457   4.934  48.699  1.00  0.00     0.164 C 
HETATM   22  C1  UNL     1      26.157   4.622  49.408  1.00  0.00     0.033 C 
ENDBRANCH  20  21
ENDBRANCH   1  20
BRANCH  12  23
HETATM   23  O3  UNL     1      34.664   7.266  47.549  1.00  0.00    -0.353 OA
BRANCH  23  24
HETATM   24  C16 UNL     1      35.277   8.376  48.168  1.00  0.00     0.392 C 
HETATM   25  F1  UNL     1      36.591   8.091  48.449  1.00  0.00    -0.227 F 
ENDBRANCH  23  24
ENDBRANCH  12  23
TORSDOF 7
ENDMDL
MODEL 5
REMARK VINA RESULT:      -5.9      3.165      6.276
REMARK  7 active torsions:
REMARK  status: ('A' for Active; 'I' for Inactive)
REMARK    1  A    between atoms: C2_2  and  O1_3 
REMARK    2  A    between atoms: O1_3  and  C3_4 
REMARK    3  A    between atoms: C12_14  and  N2_15 
REMARK    4  A    between atoms: N2_15  and  C13_16 
REMARK    5  A    between atoms: C13_16  and  C14_17 
REMARK    6  A    between atoms: C15_19  and  O3_20 
REMARK    7  A    between atoms: O3_20  and  C16_21 
ROOT
HETATM    1  C3  UNL     1      23.277   0.904  52.228  1.00  0.00     0.099 C 
HETATM    2  C4  UNL     1      24.174   1.943  51.776  1.00  0.00     0.145 C 
HETATM    3  C5  UNL     1      23.402   3.174  51.196  1.00  0.00    -0.053 C 
HETATM    4  C6  UNL     1      22.389   3.706  50.283  1.00  0.00    -0.011 C 
HETATM    5  C7  UNL     1      21.527   3.840  51.480  1.00  0.00     0.004 C 
HETATM    6  C8  UNL     1      21.114   2.536  51.565  1.00  0.00     0.072 C 
HETATM    7  C9  UNL     1      21.660   1.812  50.489  1.00  0.00    -0.003 C 
HETATM    8  C10 UNL     1      21.533   0.525  50.343  1.00  0.00     0.083 C 
HETATM    9  N1  UNL     1      20.843   0.574  51.562  1.00  0.00    -0.363 N 
HETATM   10  C11 UNL     1      19.444   0.883  51.724  1.00  0.00     0.151 C 
HETATM   11  C12 UNL     1      21.920   0.188  52.512  1.00  0.00     0.351 C 
HETATM   12  C15 UNL     1      21.816   5.318  51.612  1.00  0.00     0.156 C 
HETATM   13  C17 UNL     1      23.288   5.493  51.632  1.00  0.00     0.006 C 
HETATM   14  C18 UNL     1      23.914   4.340  51.990  1.00  0.00     0.006 C 
ENDROOT
BRANCH  11  15
HETATM   15  N2  UNL     1      21.545   0.404  53.832  1.00  0.00     0.115 N 
HETATM   16  H15 UNL     1      22.205   0.870  54.470  1.00  0.00     0.319 HD
BRANCH  15  17
HETATM   17  C13 UNL     1      20.969  -0.689  54.559  1.00  0.00     0.341 C 
BRANCH  17  18
HETATM   18  C14 UNL     1      22.055  -1.649  54.974  1.00  0.00     0.261 C 
HETATM   19  O2  UNL     1      23.006  -1.589  55.729  1.00  0.00    -0.305 OA
ENDBRANCH  17  18
ENDBRANCH  15  17
ENDBRANCH  11  15
BRANCH   1  20
HETATM   20  O1  UNL     1      24.130  -0.136  52.733  1.00  0.00    -0.381 OA
BRANCH  20  21
HETATM   21  C2  UNL     1      25.433   0.174  53.102  1.00  0.00     0.164 C 
HETATM   22  C1  UNL     1      26.438  -0.885  52.706  1.00  0.00     0.033 C 
ENDBRANCH  20  21
ENDBRANCH   1  20
BRANCH  12  23
HETATM   23  O3  UNL     1      21.167   6.021  50.609  1.00  0.00    -0.353 OA
BRANCH  23  24
HETATM   24  C16 UNL     1      21.597   7.355  50.766  1.00  0.00     0.392 C 
HETATM   25  F1  UNL     1      22.094   7.832  49.578  1.00  0.00    -0.227 F 
ENDBRANCH  23  24
ENDBRANCH  12  23
TORSDOF 7
ENDMDL
MODEL 6
REMARK VINA RESULT:      -5.7      8.625     10.691
REMARK  7 active torsions:
REMARK  status: ('A' for Active; 'I' for Inactive)
REMARK    1  A    between atoms: C2_2  and  O1_3 
REMARK    2  A    between atoms: O1_3  and  C3_4 
REMARK    3  A    between atoms: C12_14  and  N2_15 
REMARK    4  A    between atoms: N2_15  and  C13_16 
REMARK    5  A    between atoms: C13_16  and  C14_17 
REMARK    6  A    between atoms: C15_19  and  O3_20 
REMARK    7  A    between atoms: O3_20  and  C16_21 
ROOT
HETATM    1  C3  UNL     1      32.348   4.922  46.818  1.00  0.00     0.099 C 
HETATM    2  C4  UNL     1      31.153   4.677  47.593  1.00  0.00     0.145 C 
HETATM    3  C5  UNL     1      30.660   5.963  48.335  1.00  0.00    -0.053 C 
HETATM    4  C6  UNL     1      30.950   7.097  49.215  1.00  0.00    -0.011 C 
HETATM    5  C7  UNL     1      30.966   7.918  47.983  1.00  0.00     0.004 C 
HETATM    6  C8  UNL     1      32.232   7.608  47.562  1.00  0.00     0.072 C 
HETATM    7  C9  UNL     1      32.834   6.758  48.508  1.00  0.00    -0.003 C 
HETATM    8  C10 UNL     1      34.003   6.209  48.349  1.00  0.00     0.083 C 
HETATM    9  N1  UNL     1      33.998   6.839  47.097  1.00  0.00    -0.363 N 
HETATM   10  C11 UNL     1      34.395   8.202  46.841  1.00  0.00     0.151 C 
HETATM   11  C12 UNL     1      33.544   5.726  46.222  1.00  0.00     0.351 C 
HETATM   12  C15 UNL     1      29.561   8.425  48.217  1.00  0.00     0.156 C 
HETATM   13  C17 UNL     1      28.680   7.250  48.414  1.00  0.00     0.006 C 
HETATM   14  C18 UNL     1      29.237   6.127  47.887  1.00  0.00     0.006 C 
ENDROOT
BRANCH  11  15
HETATM   15  N2  UNL     1      33.219   6.172  44.948  1.00  0.00     0.115 N 
HETATM   16  H15 UNL     1      32.249   6.074  44.615  1.00  0.00     0.319 HD
BRANCH  15  17
HETATM   17  C13 UNL     1      34.070   5.791  43.859  1.00  0.00     0.341 C 
BRANCH  17  18
HETATM   18  C14 UNL     1      33.338   4.832  42.956  1.00  0.00     0.261 C 
HETATM   19  O2  UNL     1      33.477   4.468  41.803  1.00  0.00    -0.305 OA
ENDBRANCH  17  18
ENDBRANCH  15  17
ENDBRANCH  11  15
BRANCH   1  20
HETATM   20  O1  UNL     1      32.661   3.664  46.201  1.00  0.00    -0.381 OA
BRANCH  20  21
HETATM   21  C2  UNL     1      33.157   2.629  46.984  1.00  0.00     0.164 C 
HETATM   22  C1  UNL     1      32.389   1.334  46.829  1.00  0.00     0.033 C 
ENDBRANCH  20  21
ENDBRANCH   1  20
BRANCH  12  23
HETATM   23  O3  UNL     1      29.552   9.332  49.266  1.00  0.00    -0.353 OA
BRANCH  23  24
HETATM   24  C16 UNL     1      28.196   9.687  49.425  1.00  0.00     0.392 C 
HETATM   25  F1  UNL     1      27.770   9.364  50.691  1.00  0.00    -0.227 F 
ENDBRANCH  23  24
ENDBRANCH  12  23
TORSDOF 7
ENDMDL
MODEL 7
REMARK VINA RESULT:      -5.6      2.276      4.037
REMARK  7 active torsions:
REMARK  status: ('A' for Active; 'I' for Inactive)
REMARK    1  A    between atoms: C2_2  and  O1_3 
REMARK    2  A    between atoms: O1_3  and  C3_4 
REMARK    3  A    between atoms: C12_14  and  N2_15 
REMARK    4  A    between atoms: N2_15  and  C13_16 
REMARK    5  A    between atoms: C13_16  and  C14_17 
REMARK    6  A    between atoms: C15_19  and  O3_20 
REMARK    7  A    between atoms: O3_20  and  C16_21 
ROOT
HETATM    1  C3  UNL     1      21.971   4.420  50.579  1.00  0.00     0.099 C 
HETATM    2  C4  UNL     1      20.800   3.644  50.918  1.00  0.00     0.145 C 
HETATM    3  C5  UNL     1      21.174   2.224  51.459  1.00  0.00    -0.053 C 
HETATM    4  C6  UNL     1      21.909   0.969  51.294  1.00  0.00    -0.011 C 
HETATM    5  C7  UNL     1      22.850   1.506  52.304  1.00  0.00     0.004 C 
HETATM    6  C8  UNL     1      23.575   2.322  51.476  1.00  0.00     0.072 C 
HETATM    7  C9  UNL     1      23.096   2.180  50.160  1.00  0.00    -0.003 C 
HETATM    8  C10 UNL     1      23.515   2.894  49.156  1.00  0.00     0.083 C 
HETATM    9  N1  UNL     1      24.313   3.546  50.105  1.00  0.00    -0.363 N 
HETATM   10  C11 UNL     1      25.604   3.099  50.567  1.00  0.00     0.151 C 
HETATM   11  C12 UNL     1      23.485   4.747  50.394  1.00  0.00     0.351 C 
HETATM   12  C15 UNL     1      22.227   0.697  53.420  1.00  0.00     0.156 C 
HETATM   13  C17 UNL     1      20.770   0.971  53.421  1.00  0.00     0.006 C 
HETATM   14  C18 UNL     1      20.492   2.145  52.794  1.00  0.00     0.006 C 
ENDROOT
BRANCH  11  15
HETATM   15  N2  UNL     1      23.952   5.440  51.503  1.00  0.00     0.115 N 
HETATM   16  H15 UNL     1      23.426   5.385  52.386  1.00  0.00     0.319 HD
BRANCH  15  17
HETATM   17  C13 UNL     1      24.331   6.812  51.332  1.00  0.00     0.341 C 
BRANCH  17  18
HETATM   18  C14 UNL     1      25.467   6.904  50.346  1.00  0.00     0.261 C 
HETATM   19  O2  UNL     1      26.100   7.819  49.854  1.00  0.00    -0.305 OA
ENDBRANCH  17  18
ENDBRANCH  15  17
ENDBRANCH  11  15
BRANCH   1  20
HETATM   20  O1  UNL     1      21.465   5.681  50.114  1.00  0.00    -0.381 OA
BRANCH  20  21
HETATM   21  C2  UNL     1      21.688   6.058  48.795  1.00  0.00     0.164 C 
HETATM   22  C1  UNL     1      20.606   5.594  47.845  1.00  0.00     0.033 C 
ENDBRANCH  20  21
ENDBRANCH   1  20
BRANCH  12  23
HETATM   23  O3  UNL     1      22.560  -0.642  53.279  1.00  0.00    -0.353 OA
BRANCH  23  24
HETATM   24  C16 UNL     1      22.395  -1.192  54.567  1.00  0.00     0.392 C 
HETATM   25  F1  UNL     1      21.344  -2.076  54.570  1.00  0.00    -0.227 F 
ENDBRANCH  23  24
ENDBRANCH  12  23
TORSDOF 7
ENDMDL
MODEL 8
REMARK VINA RESULT:      -5.5      2.773      4.334
REMARK  7 active torsions:
REMARK  status: ('A' for Active; 'I' for Inactive)
REMARK    1  A    between atoms: C2_2  and  O1_3 
REMARK    2  A    between atoms: O1_3  and  C3_4 
REMARK    3  A    between atoms: C12_14  and  N2_15 
REMARK    4  A    between atoms: N2_15  and  C13_16 
REMARK    5  A    between atoms: C13_16  and  C14_17 
REMARK    6  A    between atoms: C15_19  and  O3_20 
REMARK    7  A    between atoms: O3_20  and  C16_21 
ROOT
HETATM    1  C3  UNL     1      24.316   2.452  52.381  1.00  0.00     0.099 C 
HETATM    2  C4  UNL     1      23.511   1.473  53.076  1.00  0.00     0.145 C 
HETATM    3  C5  UNL     1      22.006   1.546  52.657  1.00  0.00    -0.053 C 
HETATM    4  C6  UNL     1      20.793   2.341  52.457  1.00  0.00    -0.011 C 
HETATM    5  C7  UNL     1      21.102   2.261  51.011  1.00  0.00     0.004 C 
HETATM    6  C8  UNL     1      22.050   3.249  50.963  1.00  0.00     0.072 C 
HETATM    7  C9  UNL     1      22.179   3.822  52.241  1.00  0.00    -0.003 C 
HETATM    8  C10 UNL     1      23.068   4.723  52.545  1.00  0.00     0.083 C 
HETATM    9  N1  UNL     1      23.505   4.568  51.223  1.00  0.00    -0.363 N 
HETATM   10  C11 UNL     1      22.949   5.235  50.071  1.00  0.00     0.151 C 
HETATM   11  C12 UNL     1      24.641   3.627  51.408  1.00  0.00     0.351 C 
HETATM   12  C15 UNL     1      20.102   1.149  50.786  1.00  0.00     0.156 C 
HETATM   13  C17 UNL     1      20.400   0.067  51.754  1.00  0.00     0.006 C 
HETATM   14  C18 UNL     1      21.680   0.152  52.205  1.00  0.00     0.006 C 
ENDROOT
BRANCH  11  15
HETATM   15  N2  UNL     1      25.094   3.120  50.197  1.00  0.00     0.115 N 
HETATM   16  H15 UNL     1      24.915   2.132  49.970  1.00  0.00     0.319 HD
BRANCH  15  17
HETATM   17  C13 UNL     1      26.447   3.394  49.812  1.00  0.00     0.341 C 
BRANCH  17  18
HETATM   18  C14 UNL     1      26.509   4.712  49.083  1.00  0.00     0.261 C 
HETATM   19  O2  UNL     1      26.363   5.876  49.407  1.00  0.00    -0.305 OA
ENDBRANCH  17  18
ENDBRANCH  15  17
ENDBRANCH  11  15
BRANCH   1  20
HETATM   20  O1  UNL     1      25.653   2.251  52.863  1.00  0.00    -0.381 OA
BRANCH  20  21
HETATM   21  C2  UNL     1      26.070   0.969  53.197  1.00  0.00     0.164 C 
HETATM   22  C1  UNL     1      27.535   0.719  52.915  1.00  0.00     0.033 C 
ENDBRANCH  20  21
ENDBRANCH   1  20
BRANCH  12  23
HETATM   23  O3  UNL     1      18.811   1.649  50.861  1.00  0.00    -0.353 OA
BRANCH  23  24
HETATM   24  C16 UNL     1      17.991   0.509  51.001  1.00  0.00     0.392 C 
HETATM   25  F1  UNL     1      17.780  -0.072  49.774  1.00  0.00    -0.227 F 
ENDBRANCH  23  24
ENDBRANCH  12  23
TORSDOF 7
ENDMDL
MODEL 9
REMARK VINA RESULT:      -5.5      3.211      6.766
REMARK  7 active torsions:
REMARK  status: ('A' for Active; 'I' for Inactive)
REMARK    1  A    between atoms: C2_2  and  O1_3 
REMARK    2  A    between atoms: O1_3  and  C3_4 
REMARK    3  A    between atoms: C12_14  and  N2_15 
REMARK    4  A    between atoms: N2_15  and  C13_16 
REMARK    5  A    between atoms: C13_16  and  C14_17 
REMARK    6  A    between atoms: C15_19  and  O3_20 
REMARK    7  A    between atoms: O3_20  and  C16_21 
ROOT
HETATM    1  C3  UNL     1      22.189   0.991  51.576  1.00  0.00     0.099 C 
HETATM    2  C4  UNL     1      21.422   0.731  50.378  1.00  0.00     0.145 C 
HETATM    3  C5  UNL     1      21.373   1.975  49.431  1.00  0.00    -0.053 C 
HETATM    4  C6  UNL     1      21.107   3.402  49.242  1.00  0.00    -0.011 C 
HETATM    5  C7  UNL     1      22.579   3.571  49.245  1.00  0.00     0.004 C 
HETATM    6  C8  UNL     1      22.773   3.539  50.601  1.00  0.00     0.072 C 
HETATM    7  C9  UNL     1      21.524   3.422  51.239  1.00  0.00    -0.003 C 
HETATM    8  C10 UNL     1      21.378   3.269  52.523  1.00  0.00     0.083 C 
HETATM    9  N1  UNL     1      22.779   3.262  52.562  1.00  0.00    -0.363 N 
HETATM   10  C11 UNL     1      23.623   4.430  52.608  1.00  0.00     0.151 C 
HETATM   11  C12 UNL     1      23.054   1.801  52.591  1.00  0.00     0.351 C 
HETATM   12  C15 UNL     1      22.646   3.645  47.736  1.00  0.00     0.156 C 
HETATM   13  C17 UNL     1      21.953   2.453  47.191  1.00  0.00     0.006 C 
HETATM   14  C18 UNL     1      21.886   1.460  48.118  1.00  0.00     0.006 C 
ENDROOT
BRANCH  11  15
HETATM   15  N2  UNL     1      24.399   1.526  52.381  1.00  0.00     0.115 N 
HETATM   16  H15 UNL     1      24.665   0.863  51.640  1.00  0.00     0.319 HD
BRANCH  15  17
HETATM   17  C13 UNL     1      25.212   1.219  53.522  1.00  0.00     0.341 C 
BRANCH  17  18
HETATM   18  C14 UNL     1      25.255  -0.274  53.726  1.00  0.00     0.261 C 
HETATM   19  O2  UNL     1      25.925  -1.024  54.409  1.00  0.00    -0.305 OA
ENDBRANCH  17  18
ENDBRANCH  15  17
ENDBRANCH  11  15
BRANCH   1  20
HETATM   20  O1  UNL     1      22.146  -0.233  52.325  1.00  0.00    -0.381 OA
BRANCH  20  21
HETATM   21  C2  UNL     1      21.490  -0.258  53.549  1.00  0.00     0.164 C 
HETATM   22  C1  UNL     1      21.568  -1.599  54.247  1.00  0.00     0.033 C 
ENDBRANCH  20  21
ENDBRANCH   1  20
BRANCH  12  23
HETATM   23  O3  UNL     1      22.134   4.857  47.297  1.00  0.00    -0.353 OA
BRANCH  23  24
HETATM   24  C16 UNL     1      21.905   4.673  45.917  1.00  0.00     0.392 C 
HETATM   25  F1  UNL     1      22.598   5.615  45.196  1.00  0.00    -0.227 F 
ENDBRANCH  23  24
ENDBRANCH  12  23
TORSDOF 7
ENDMDL
