MODEL 1
REMARK VINA RESULT:      -7.9      0.000      0.000
REMARK  5 active torsions:
REMARK  status: ('A' for Active; 'I' for Inactive)
REMARK    1  A    between atoms: C4_5  and  O1_6 
REMARK    2  A    between atoms: O1_6  and  C5_7 
REMARK    3  A    between atoms: C7_11  and  C9_13 
REMARK    4  A    between atoms: C9_13  and  N4_14 
REMARK    5  A    between atoms: N4_14  and  C10_15 
ROOT
HETATM    1  C5  UNL     1      25.367   2.440  51.072  1.00  0.00     0.274 C 
HETATM    2  N2  UNL     1      26.046   3.119  49.956  1.00  0.00    -0.251 NA
HETATM    3  C6  UNL     1      25.742   4.400  50.036  1.00  0.00     0.200 C 
HETATM    4  N3  UNL     1      24.870   4.654  51.168  1.00  0.00    -0.370 N 
HETATM    5  C7  UNL     1      24.173   3.399  51.245  1.00  0.00     0.088 C 
HETATM    6  C8  UNL     1      23.346   3.298  49.974  1.00  0.00     0.045 C 
HETATM    7  H11 UNL     1      25.123   5.637  51.439  1.00  0.00     0.161 HD
ENDROOT
BRANCH   5   8
HETATM    8  C9  UNL     1      23.396   3.118  52.466  1.00  0.00     0.155 C 
BRANCH   8   9
HETATM    9  N4  UNL     1      23.514   1.759  52.931  1.00  0.00    -0.387 N 
HETATM   10  H17 UNL     1      24.535   1.481  53.062  1.00  0.00     0.159 HD
BRANCH   9  11
HETATM   11  C10 UNL     1      22.559   0.763  53.232  1.00  0.00     0.029 A 
HETATM   12  C11 UNL     1      22.730  -0.284  54.090  1.00  0.00     0.032 A 
HETATM   13  C12 UNL     1      21.813  -1.248  54.412  1.00  0.00     0.046 A 
HETATM   14  C13 UNL     1      20.563  -1.148  53.793  1.00  0.00     0.138 A 
HETATM   15  F1  UNL     1      19.582  -2.046  54.038  1.00  0.00    -0.204 F 
HETATM   16  C14 UNL     1      20.339  -0.107  52.917  1.00  0.00     0.074 A 
HETATM   17 CL1  UNL     1      18.775   0.035  52.129  1.00  0.00    -0.081 Cl
HETATM   18  C15 UNL     1      21.313   0.823  52.645  1.00  0.00     0.056 A 
ENDBRANCH   9  11
ENDBRANCH   8   9
ENDBRANCH   5   8
BRANCH   1  19
HETATM   19  O1  UNL     1      26.188   2.410  52.168  1.00  0.00    -0.357 OA
BRANCH  19  20
HETATM   20  C4  UNL     1      27.121   1.402  52.166  1.00  0.00     0.127 C 
HETATM   21  C3  UNL     1      26.523   0.052  52.525  1.00  0.00     0.062 C 
HETATM   22  C2  UNL     1      27.618  -0.942  52.836  1.00  0.00     0.274 C 
HETATM   23  N1  UNL     1      28.418  -0.560  53.957  1.00  0.00     0.084 N 
HETATM   24  C1  UNL     1      29.836  -0.649  53.706  1.00  0.00     0.309 C 
HETATM   25  C17 UNL     1      28.037   0.788  54.355  1.00  0.00     0.274 C 
HETATM   26  C16 UNL     1      28.216   1.694  53.170  1.00  0.00     0.062 C 
ENDBRANCH  19  20
ENDBRANCH   1  19
TORSDOF 5
ENDMDL
MODEL 2
REMARK VINA RESULT:      -7.5      1.605      4.472
REMARK  5 active torsions:
REMARK  status: ('A' for Active; 'I' for Inactive)
REMARK    1  A    between atoms: C4_5  and  O1_6 
REMARK    2  A    between atoms: O1_6  and  C5_7 
REMARK    3  A    between atoms: C7_11  and  C9_13 
REMARK    4  A    between atoms: C9_13  and  N4_14 
REMARK    5  A    between atoms: N4_14  and  C10_15 
ROOT
HETATM    1  C5  UNL     1      26.532   1.963  53.340  1.00  0.00     0.274 C 
HETATM    2  N2  UNL     1      27.838   2.428  53.836  1.00  0.00    -0.251 NA
HETATM    3  C6  UNL     1      28.698   1.444  53.651  1.00  0.00     0.200 C 
HETATM    4  N3  UNL     1      28.048   0.298  53.042  1.00  0.00    -0.370 N 
HETATM    5  C7  UNL     1      26.716   0.449  53.563  1.00  0.00     0.088 C 
HETATM    6  C8  UNL     1      26.824   0.239  55.064  1.00  0.00     0.045 C 
HETATM    7  H11 UNL     1      28.825  -0.143  52.491  1.00  0.00     0.161 HD
ENDROOT
BRANCH   5   8
HETATM    8  C9  UNL     1      25.641  -0.347  52.941  1.00  0.00     0.155 C 
BRANCH   8   9
HETATM    9  N4  UNL     1      24.589  -0.717  53.855  1.00  0.00    -0.387 N 
HETATM   10  H17 UNL     1      24.985  -1.080  54.776  1.00  0.00     0.159 HD
BRANCH   9  11
HETATM   11  C10 UNL     1      23.180  -0.690  53.755  1.00  0.00     0.029 A 
HETATM   12  C11 UNL     1      22.298  -1.118  54.704  1.00  0.00     0.032 A 
HETATM   13  C12 UNL     1      20.932  -1.083  54.638  1.00  0.00     0.046 A 
HETATM   14  C13 UNL     1      20.379  -0.549  53.469  1.00  0.00     0.138 A 
HETATM   15  F1  UNL     1      19.040  -0.466  53.296  1.00  0.00    -0.204 F 
HETATM   16  C14 UNL     1      21.229  -0.103  52.479  1.00  0.00     0.074 A 
HETATM   17 CL1  UNL     1      20.554   0.570  51.002  1.00  0.00    -0.081 Cl
HETATM   18  C15 UNL     1      22.594  -0.173  52.621  1.00  0.00     0.056 A 
ENDBRANCH   9  11
ENDBRANCH   8   9
ENDBRANCH   5   8
BRANCH   1  19
HETATM   19  O1  UNL     1      26.391   2.294  52.018  1.00  0.00    -0.357 OA
BRANCH  19  20
HETATM   20  C4  UNL     1      25.421   3.229  51.755  1.00  0.00     0.127 C 
HETATM   21  C3  UNL     1      24.221   3.099  52.678  1.00  0.00     0.062 C 
HETATM   22  C2  UNL     1      23.059   3.908  52.146  1.00  0.00     0.274 C 
HETATM   23  N1  UNL     1      22.613   3.467  50.861  1.00  0.00     0.084 N 
HETATM   24  C1  UNL     1      22.449   4.541  49.912  1.00  0.00     0.309 C 
HETATM   25  C17 UNL     1      23.548   2.467  50.368  1.00  0.00     0.274 C 
HETATM   26  C16 UNL     1      24.918   3.083  50.335  1.00  0.00     0.062 C 
ENDBRANCH  19  20
ENDBRANCH   1  19
TORSDOF 5
ENDMDL
MODEL 3
REMARK VINA RESULT:      -7.5      2.824      6.042
REMARK  5 active torsions:
REMARK  status: ('A' for Active; 'I' for Inactive)
REMARK    1  A    between atoms: C4_5  and  O1_6 
REMARK    2  A    between atoms: O1_6  and  C5_7 
REMARK    3  A    between atoms: C7_11  and  C9_13 
REMARK    4  A    between atoms: C9_13  and  N4_14 
REMARK    5  A    between atoms: N4_14  and  C10_15 
ROOT
HETATM    1  C5  UNL     1      25.176  -0.339  53.415  1.00  0.00     0.274 C 
HETATM    2  N2  UNL     1      25.595  -0.819  54.743  1.00  0.00    -0.251 NA
HETATM    3  C6  UNL     1      26.432   0.074  55.234  1.00  0.00     0.200 C 
HETATM    4  N3  UNL     1      26.624   1.170  54.301  1.00  0.00    -0.370 N 
HETATM    5  C7  UNL     1      26.428   0.485  53.053  1.00  0.00     0.088 C 
HETATM    6  C8  UNL     1      27.578  -0.501  52.928  1.00  0.00     0.045 C 
HETATM    7  H11 UNL     1      26.823   1.983  54.937  1.00  0.00     0.161 HD
ENDROOT
BRANCH   5   8
HETATM    8  C9  UNL     1      26.233   1.305  51.843  1.00  0.00     0.155 C 
BRANCH   8   9
HETATM    9  N4  UNL     1      25.788   2.648  52.115  1.00  0.00    -0.387 N 
HETATM   10  H17 UNL     1      26.511   3.189  52.682  1.00  0.00     0.159 HD
BRANCH   9  11
HETATM   11  C10 UNL     1      24.610   3.354  51.782  1.00  0.00     0.029 A 
HETATM   12  C11 UNL     1      23.749   3.943  52.661  1.00  0.00     0.032 A 
HETATM   13  C12 UNL     1      22.615   4.648  52.361  1.00  0.00     0.046 A 
HETATM   14  C13 UNL     1      22.305   4.779  51.003  1.00  0.00     0.138 A 
HETATM   15  F1  UNL     1      21.208   5.455  50.593  1.00  0.00    -0.204 F 
HETATM   16  C14 UNL     1      23.144   4.201  50.074  1.00  0.00     0.074 A 
HETATM   17 CL1  UNL     1      22.773   4.354  48.364  1.00  0.00    -0.081 Cl
HETATM   18  C15 UNL     1      24.267   3.508  50.457  1.00  0.00     0.056 A 
ENDBRANCH   9  11
ENDBRANCH   8   9
ENDBRANCH   5   8
BRANCH   1  19
HETATM   19  O1  UNL     1      24.049   0.429  53.531  1.00  0.00    -0.357 OA
BRANCH  19  20
HETATM   20  C4  UNL     1      22.891  -0.172  53.101  1.00  0.00     0.127 C 
HETATM   21  C3  UNL     1      22.120   0.688  52.113  1.00  0.00     0.062 C 
HETATM   22  C2  UNL     1      20.719   0.151  51.931  1.00  0.00     0.274 C 
HETATM   23  N1  UNL     1      19.954   0.162  53.138  1.00  0.00     0.084 N 
HETATM   24  C1  UNL     1      19.282  -1.087  53.404  1.00  0.00     0.309 C 
HETATM   25  C17 UNL     1      20.835   0.531  54.237  1.00  0.00     0.274 C 
HETATM   26  C16 UNL     1      21.973  -0.449  54.272  1.00  0.00     0.062 C 
ENDBRANCH  19  20
ENDBRANCH   1  19
TORSDOF 5
ENDMDL
MODEL 4
REMARK VINA RESULT:      -7.3      3.180      5.686
REMARK  5 active torsions:
REMARK  status: ('A' for Active; 'I' for Inactive)
REMARK    1  A    between atoms: C4_5  and  O1_6 
REMARK    2  A    between atoms: O1_6  and  C5_7 
REMARK    3  A    between atoms: C7_11  and  C9_13 
REMARK    4  A    between atoms: C9_13  and  N4_14 
REMARK    5  A    between atoms: N4_14  and  C10_15 
ROOT
HETATM    1  C5  UNL     1      22.365   2.795  50.944  1.00  0.00     0.274 C 
HETATM    2  N2  UNL     1      21.805   3.328  49.691  1.00  0.00    -0.251 NA
HETATM    3  C6  UNL     1      22.820   3.733  48.952  1.00  0.00     0.200 C 
HETATM    4  N3  UNL     1      24.080   3.508  49.637  1.00  0.00    -0.370 N 
HETATM    5  C7  UNL     1      23.658   3.633  51.005  1.00  0.00     0.088 C 
HETATM    6  C8  UNL     1      23.230   5.081  51.183  1.00  0.00     0.045 C 
HETATM    7  H11 UNL     1      24.750   3.353  48.843  1.00  0.00     0.161 HD
ENDROOT
BRANCH   5   8
HETATM    8  C9  UNL     1      24.582   3.168  52.056  1.00  0.00     0.155 C 
BRANCH   8   9
HETATM    9  N4  UNL     1      25.696   2.403  51.554  1.00  0.00    -0.387 N 
HETATM   10  H17 UNL     1      25.801   2.517  50.499  1.00  0.00     0.159 HD
BRANCH   9  11
HETATM   11  C10 UNL     1      26.639   1.558  52.181  1.00  0.00     0.029 A 
HETATM   12  C11 UNL     1      27.717   1.960  52.913  1.00  0.00     0.032 A 
HETATM   13  C12 UNL     1      28.630   1.161  53.546  1.00  0.00     0.046 A 
HETATM   14  C13 UNL     1      28.436  -0.220  53.428  1.00  0.00     0.138 A 
HETATM   15  F1  UNL     1      29.278  -1.102  54.012  1.00  0.00    -0.204 F 
HETATM   16  C14 UNL     1      27.360  -0.677  52.697  1.00  0.00     0.074 A 
HETATM   17 CL1  UNL     1      27.099  -2.407  52.536  1.00  0.00    -0.081 Cl
HETATM   18  C15 UNL     1      26.485   0.192  52.090  1.00  0.00     0.056 A 
ENDBRANCH   9  11
ENDBRANCH   8   9
ENDBRANCH   5   8
BRANCH   1  19
HETATM   19  O1  UNL     1      22.607   1.453  50.813  1.00  0.00    -0.357 OA
BRANCH  19  20
HETATM   20  C4  UNL     1      21.871   0.648  51.647  1.00  0.00     0.127 C 
HETATM   21  C3  UNL     1      21.116   1.437  52.704  1.00  0.00     0.062 C 
HETATM   22  C2  UNL     1      20.603   0.513  53.784  1.00  0.00     0.274 C 
HETATM   23  N1  UNL     1      21.649  -0.169  54.480  1.00  0.00     0.084 N 
HETATM   24  C1  UNL     1      21.425  -1.589  54.606  1.00  0.00     0.309 C 
HETATM   25  C17 UNL     1      22.908   0.107  53.802  1.00  0.00     0.274 C 
HETATM   26  C16 UNL     1      22.774  -0.328  52.371  1.00  0.00     0.062 C 
ENDBRANCH  19  20
ENDBRANCH   1  19
TORSDOF 5
ENDMDL
MODEL 5
REMARK VINA RESULT:      -7.2      4.187      6.390
REMARK  5 active torsions:
REMARK  status: ('A' for Active; 'I' for Inactive)
REMARK    1  A    between atoms: C4_5  and  O1_6 
REMARK    2  A    between atoms: O1_6  and  C5_7 
REMARK    3  A    between atoms: C7_11  and  C9_13 
REMARK    4  A    between atoms: C9_13  and  N4_14 
REMARK    5  A    between atoms: N4_14  and  C10_15 
ROOT
HETATM    1  C5  UNL     1      24.344   1.138  53.108  1.00  0.00     0.274 C 
HETATM    2  N2  UNL     1      22.897   0.995  53.340  1.00  0.00    -0.251 NA
HETATM    3  C6  UNL     1      22.289   1.307  52.212  1.00  0.00     0.200 C 
HETATM    4  N3  UNL     1      23.253   1.668  51.188  1.00  0.00    -0.370 N 
HETATM    5  C7  UNL     1      24.305   2.212  52.003  1.00  0.00     0.088 C 
HETATM    6  C8  UNL     1      23.738   3.471  52.638  1.00  0.00     0.045 C 
HETATM    7  H11 UNL     1      22.768   1.379  50.302  1.00  0.00     0.161 HD
ENDROOT
BRANCH   5   8
HETATM    8  C9  UNL     1      25.622   2.422  51.374  1.00  0.00     0.155 C 
BRANCH   8   9
HETATM    9  N4  UNL     1      25.550   2.930  50.027  1.00  0.00    -0.387 N 
HETATM   10  H17 UNL     1      25.171   2.195  49.355  1.00  0.00     0.159 HD
BRANCH   9  11
HETATM   11  C10 UNL     1      25.880   4.179  49.455  1.00  0.00     0.029 A 
HETATM   12  C11 UNL     1      25.034   5.236  49.288  1.00  0.00     0.032 A 
HETATM   13  C12 UNL     1      25.336   6.460  48.756  1.00  0.00     0.046 A 
HETATM   14  C13 UNL     1      26.658   6.647  48.337  1.00  0.00     0.138 A 
HETATM   15  F1  UNL     1      27.067   7.817  47.796  1.00  0.00    -0.204 F 
HETATM   16  C14 UNL     1      27.552   5.608  48.484  1.00  0.00     0.074 A 
HETATM   17 CL1  UNL     1      29.217   5.822  47.963  1.00  0.00    -0.081 Cl
HETATM   18  C15 UNL     1      27.171   4.406  49.029  1.00  0.00     0.056 A 
ENDBRANCH   9  11
ENDBRANCH   8   9
ENDBRANCH   5   8
BRANCH   1  19
HETATM   19  O1  UNL     1      24.867  -0.052  52.676  1.00  0.00    -0.357 OA
BRANCH  19  20
HETATM   20  C4  UNL     1      25.946  -0.506  53.394  1.00  0.00     0.127 C 
HETATM   21  C3  UNL     1      26.361   0.457  54.493  1.00  0.00     0.062 C 
HETATM   22  C2  UNL     1      27.728   0.089  55.025  1.00  0.00     0.274 C 
HETATM   23  N1  UNL     1      28.754   0.165  54.032  1.00  0.00     0.084 N 
HETATM   24  C1  UNL     1      29.600  -1.002  53.990  1.00  0.00     0.309 C 
HETATM   25  C17 UNL     1      28.126   0.407  52.741  1.00  0.00     0.274 C 
HETATM   26  C16 UNL     1      27.141  -0.699  52.485  1.00  0.00     0.062 C 
ENDBRANCH  19  20
ENDBRANCH   1  19
TORSDOF 5
ENDMDL
MODEL 6
REMARK VINA RESULT:      -7.1      3.602      6.411
REMARK  5 active torsions:
REMARK  status: ('A' for Active; 'I' for Inactive)
REMARK    1  A    between atoms: C4_5  and  O1_6 
REMARK    2  A    between atoms: O1_6  and  C5_7 
REMARK    3  A    between atoms: C7_11  and  C9_13 
REMARK    4  A    between atoms: C9_13  and  N4_14 
REMARK    5  A    between atoms: N4_14  and  C10_15 
ROOT
HETATM    1  C5  UNL     1      24.011   3.662  50.448  1.00  0.00     0.274 C 
HETATM    2  N2  UNL     1      22.790   3.679  49.626  1.00  0.00    -0.251 NA
HETATM    3  C6  UNL     1      21.763   3.670  50.453  1.00  0.00     0.200 C 
HETATM    4  N3  UNL     1      22.212   3.646  51.834  1.00  0.00    -0.370 N 
HETATM    5  C7  UNL     1      23.455   2.938  51.690  1.00  0.00     0.088 C 
HETATM    6  C8  UNL     1      23.089   1.531  51.246  1.00  0.00     0.045 C 
HETATM    7  H11 UNL     1      21.440   4.151  52.337  1.00  0.00     0.161 HD
ENDROOT
BRANCH   5   8
HETATM    8  C9  UNL     1      24.395   2.961  52.825  1.00  0.00     0.155 C 
BRANCH   8   9
HETATM    9  N4  UNL     1      25.777   2.825  52.439  1.00  0.00    -0.387 N 
HETATM   10  H17 UNL     1      26.077   3.612  51.786  1.00  0.00     0.159 HD
BRANCH   9  11
HETATM   11  C10 UNL     1      26.771   1.873  52.756  1.00  0.00     0.029 A 
HETATM   12  C11 UNL     1      28.001   2.138  53.284  1.00  0.00     0.032 A 
HETATM   13  C12 UNL     1      28.971   1.231  53.617  1.00  0.00     0.046 A 
HETATM   14  C13 UNL     1      28.666  -0.115  53.392  1.00  0.00     0.138 A 
HETATM   15  F1  UNL     1      29.551  -1.096  53.685  1.00  0.00    -0.204 F 
HETATM   16  C14 UNL     1      27.436  -0.436  52.860  1.00  0.00     0.074 A 
HETATM   17 CL1  UNL     1      27.035  -2.122  52.569  1.00  0.00    -0.081 Cl
HETATM   18  C15 UNL     1      26.514   0.535  52.551  1.00  0.00     0.056 A 
ENDBRANCH   9  11
ENDBRANCH   8   9
ENDBRANCH   5   8
BRANCH   1  19
HETATM   19  O1  UNL     1      24.411   4.945  50.715  1.00  0.00    -0.357 OA
BRANCH  19  20
HETATM   20  C4  UNL     1      24.886   5.641  49.631  1.00  0.00     0.127 C 
HETATM   21  C3  UNL     1      26.352   5.356  49.352  1.00  0.00     0.062 C 
HETATM   22  C2  UNL     1      26.911   6.376  48.385  1.00  0.00     0.274 C 
HETATM   23  N1  UNL     1      26.863   7.712  48.891  1.00  0.00     0.084 N 
HETATM   24  C1  UNL     1      26.310   8.661  47.955  1.00  0.00     0.309 C 
HETATM   25  C17 UNL     1      26.111   7.703  50.138  1.00  0.00     0.274 C 
HETATM   26  C16 UNL     1      24.750   7.132  49.861  1.00  0.00     0.062 C 
ENDBRANCH  19  20
ENDBRANCH   1  19
TORSDOF 5
ENDMDL
MODEL 7
REMARK VINA RESULT:      -7.0      3.718      6.266
REMARK  5 active torsions:
REMARK  status: ('A' for Active; 'I' for Inactive)
REMARK    1  A    between atoms: C4_5  and  O1_6 
REMARK    2  A    between atoms: O1_6  and  C5_7 
REMARK    3  A    between atoms: C7_11  and  C9_13 
REMARK    4  A    between atoms: C9_13  and  N4_14 
REMARK    5  A    between atoms: N4_14  and  C10_15 
ROOT
HETATM    1  C5  UNL     1      23.174   2.528  50.645  1.00  0.00     0.274 C 
HETATM    2  N2  UNL     1      21.883   2.927  50.060  1.00  0.00    -0.251 NA
HETATM    3  C6  UNL     1      21.023   3.039  51.053  1.00  0.00     0.200 C 
HETATM    4  N3  UNL     1      21.657   2.734  52.323  1.00  0.00    -0.370 N 
HETATM    5  C7  UNL     1      22.653   1.790  51.894  1.00  0.00     0.088 C 
HETATM    6  C8  UNL     1      21.893   0.572  51.395  1.00  0.00     0.045 C 
HETATM    7  H11 UNL     1      21.117   3.328  53.000  1.00  0.00     0.161 HD
ENDROOT
BRANCH   5   8
HETATM    8  C9  UNL     1      23.733   1.452  52.840  1.00  0.00     0.155 C 
BRANCH   8   9
HETATM    9  N4  UNL     1      24.975   1.094  52.202  1.00  0.00    -0.387 N 
HETATM   10  H17 UNL     1      24.938   1.276  51.152  1.00  0.00     0.159 HD
BRANCH   9  11
HETATM   11  C10 UNL     1      26.187   0.564  52.696  1.00  0.00     0.029 A 
HETATM   12  C11 UNL     1      26.581  -0.741  52.631  1.00  0.00     0.032 A 
HETATM   13  C12 UNL     1      27.758  -1.273  53.083  1.00  0.00     0.046 A 
HETATM   14  C13 UNL     1      28.656  -0.380  53.677  1.00  0.00     0.138 A 
HETATM   15  F1  UNL     1      29.849  -0.796  54.159  1.00  0.00    -0.204 F 
HETATM   16  C14 UNL     1      28.305   0.950  53.768  1.00  0.00     0.074 A 
HETATM   17 CL1  UNL     1      29.419   2.088  54.512  1.00  0.00    -0.081 Cl
HETATM   18  C15 UNL     1      27.101   1.408  53.289  1.00  0.00     0.056 A 
ENDBRANCH   9  11
ENDBRANCH   8   9
ENDBRANCH   5   8
BRANCH   1  19
HETATM   19  O1  UNL     1      23.910   3.641  50.953  1.00  0.00    -0.357 OA
BRANCH  19  20
HETATM   20  C4  UNL     1      24.517   4.249  49.882  1.00  0.00     0.127 C 
HETATM   21  C3  UNL     1      26.033   4.176  49.953  1.00  0.00     0.062 C 
HETATM   22  C2  UNL     1      26.653   5.130  48.957  1.00  0.00     0.274 C 
HETATM   23  N1  UNL     1      26.316   6.496  49.205  1.00  0.00     0.084 N 
HETATM   24  C1  UNL     1      25.865   7.200  48.029  1.00  0.00     0.309 C 
HETATM   25  C17 UNL     1      25.313   6.537  50.260  1.00  0.00     0.274 C 
HETATM   26  C16 UNL     1      24.136   5.713  49.820  1.00  0.00     0.062 C 
ENDBRANCH  19  20
ENDBRANCH   1  19
TORSDOF 5
ENDMDL
MODEL 8
REMARK VINA RESULT:      -6.9      4.095      6.563
REMARK  5 active torsions:
REMARK  status: ('A' for Active; 'I' for Inactive)
REMARK    1  A    between atoms: C4_5  and  O1_6 
REMARK    2  A    between atoms: O1_6  and  C5_7 
REMARK    3  A    between atoms: C7_11  and  C9_13 
REMARK    4  A    between atoms: C9_13  and  N4_14 
REMARK    5  A    between atoms: N4_14  and  C10_15 
ROOT
HETATM    1  C5  UNL     1      25.528   5.737  48.890  1.00  0.00     0.274 C 
HETATM    2  N2  UNL     1      24.340   6.532  49.242  1.00  0.00    -0.251 NA
HETATM    3  C6  UNL     1      23.974   6.171  50.456  1.00  0.00     0.200 C 
HETATM    4  N3  UNL     1      24.860   5.146  50.979  1.00  0.00    -0.370 N 
HETATM    5  C7  UNL     1      25.249   4.494  49.759  1.00  0.00     0.088 C 
HETATM    6  C8  UNL     1      23.989   3.849  49.205  1.00  0.00     0.045 C 
HETATM    7  H11 UNL     1      24.832   5.323  52.014  1.00  0.00     0.161 HD
ENDROOT
BRANCH   5   8
HETATM    8  C9  UNL     1      26.399   3.572  49.809  1.00  0.00     0.155 C 
BRANCH   8   9
HETATM    9  N4  UNL     1      26.801   3.215  51.146  1.00  0.00    -0.387 N 
HETATM   10  H17 UNL     1      27.524   3.899  51.530  1.00  0.00     0.159 HD
BRANCH   9  11
HETATM   11  C10 UNL     1      26.427   2.162  52.010  1.00  0.00     0.029 A 
HETATM   12  C11 UNL     1      25.219   1.530  52.033  1.00  0.00     0.032 A 
HETATM   13  C12 UNL     1      24.842   0.495  52.846  1.00  0.00     0.046 A 
HETATM   14  C13 UNL     1      25.802   0.036  53.753  1.00  0.00     0.138 A 
HETATM   15  F1  UNL     1      25.538  -0.981  54.605  1.00  0.00    -0.204 F 
HETATM   16  C14 UNL     1      27.040   0.643  53.771  1.00  0.00     0.074 A 
HETATM   17 CL1  UNL     1      28.260   0.081  54.904  1.00  0.00    -0.081 Cl
HETATM   18  C15 UNL     1      27.342   1.679  52.920  1.00  0.00     0.056 A 
ENDBRANCH   9  11
ENDBRANCH   8   9
ENDBRANCH   5   8
BRANCH   1  19
HETATM   19  O1  UNL     1      26.663   6.404  49.264  1.00  0.00    -0.357 OA
BRANCH  19  20
HETATM   20  C4  UNL     1      27.411   6.903  48.226  1.00  0.00     0.127 C 
HETATM   21  C3  UNL     1      28.771   6.234  48.113  1.00  0.00     0.062 C 
HETATM   22  C2  UNL     1      29.672   7.028  47.195  1.00  0.00     0.274 C 
HETATM   23  N1  UNL     1      29.927   8.352  47.669  1.00  0.00     0.084 N 
HETATM   24  C1  UNL     1      29.741   9.369  46.662  1.00  0.00     0.309 C 
HETATM   25  C17 UNL     1      29.079   8.597  48.827  1.00  0.00     0.274 C 
HETATM   26  C16 UNL     1      27.650   8.386  48.413  1.00  0.00     0.062 C 
ENDBRANCH  19  20
ENDBRANCH   1  19
TORSDOF 5
ENDMDL
MODEL 9
REMARK VINA RESULT:      -6.8      6.539      8.415
REMARK  5 active torsions:
REMARK  status: ('A' for Active; 'I' for Inactive)
REMARK    1  A    between atoms: C4_5  and  O1_6 
REMARK    2  A    between atoms: O1_6  and  C5_7 
REMARK    3  A    between atoms: C7_11  and  C9_13 
REMARK    4  A    between atoms: C9_13  and  N4_14 
REMARK    5  A    between atoms: N4_14  and  C10_15 
ROOT
HETATM    1  C5  UNL     1      31.227   7.665  47.620  1.00  0.00     0.274 C 
HETATM    2  N2  UNL     1      31.891   8.723  48.401  1.00  0.00    -0.251 NA
HETATM    3  C6  UNL     1      31.109   8.998  49.427  1.00  0.00     0.200 C 
HETATM    4  N3  UNL     1      29.913   8.175  49.401  1.00  0.00    -0.370 N 
HETATM    5  C7  UNL     1      29.763   7.982  47.984  1.00  0.00     0.088 C 
HETATM    6  C8  UNL     1      29.455   9.351  47.402  1.00  0.00     0.045 C 
HETATM    7  H11 UNL     1      29.676   8.080  50.420  1.00  0.00     0.161 HD
ENDROOT
BRANCH   5   8
HETATM    8  C9  UNL     1      28.830   6.935  47.529  1.00  0.00     0.155 C 
BRANCH   8   9
HETATM    9  N4  UNL     1      28.416   6.031  48.572  1.00  0.00    -0.387 N 
HETATM   10  H17 UNL     1      29.208   5.843  49.261  1.00  0.00     0.159 HD
BRANCH   9  11
HETATM   11  C10 UNL     1      27.196   5.369  48.839  1.00  0.00     0.029 A 
HETATM   12  C11 UNL     1      27.055   4.077  49.253  1.00  0.00     0.032 A 
HETATM   13  C12 UNL     1      25.887   3.423  49.536  1.00  0.00     0.046 A 
HETATM   14  C13 UNL     1      24.708   4.161  49.385  1.00  0.00     0.138 A 
HETATM   15  F1  UNL     1      23.497   3.614  49.637  1.00  0.00    -0.204 F 
HETATM   16  C14 UNL     1      24.797   5.472  48.968  1.00  0.00     0.074 A 
HETATM   17 CL1  UNL     1      23.328   6.416  48.771  1.00  0.00    -0.081 Cl
HETATM   18  C15 UNL     1      26.011   6.059  48.703  1.00  0.00     0.056 A 
ENDBRANCH   9  11
ENDBRANCH   8   9
ENDBRANCH   5   8
BRANCH   1  19
HETATM   19  O1  UNL     1      31.632   6.434  48.063  1.00  0.00    -0.357 OA
BRANCH  19  20
HETATM   20  C4  UNL     1      32.226   5.642  47.112  1.00  0.00     0.127 C 
HETATM   21  C3  UNL     1      31.806   4.186  47.221  1.00  0.00     0.062 C 
HETATM   22  C2  UNL     1      32.721   3.312  46.393  1.00  0.00     0.274 C 
HETATM   23  N1  UNL     1      34.083   3.359  46.827  1.00  0.00     0.084 N 
HETATM   24  C1  UNL     1      35.020   3.570  45.751  1.00  0.00     0.309 C 
HETATM   25  C17 UNL     1      34.206   4.394  47.843  1.00  0.00     0.274 C 
HETATM   26  C16 UNL     1      33.733   5.691  47.250  1.00  0.00     0.062 C 
ENDBRANCH  19  20
ENDBRANCH   1  19
TORSDOF 5
ENDMDL
