MODEL 1
REMARK VINA RESULT:     -10.7      0.000      0.000
REMARK  0 active torsions:
REMARK  status: ('A' for Active; 'I' for Inactive)
ROOT
HETATM    1  C1  UNL     1      26.683   0.690  54.556  1.00  0.00     0.065 C 
HETATM    2  C2  UNL     1      25.690   1.155  53.819  1.00  0.00     0.115 A 
HETATM    3  N1  UNL     1      25.692   2.424  53.197  1.00  0.00    -0.354 N 
HETATM    4  C3  UNL     1      24.538   2.665  52.366  1.00  0.00     0.115 A 
HETATM    5  C4  UNL     1      23.873   4.024  52.801  1.00  0.00     0.032 C 
HETATM    6  C5  UNL     1      23.442   5.073  51.987  1.00  0.00     0.086 C 
HETATM    7  N2  UNL     1      22.842   5.216  50.674  1.00  0.00    -0.377 N 
HETATM    8  C6  UNL     1      23.543   6.363  50.023  1.00  0.00     0.114 C 
HETATM    9  C7  UNL     1      23.764   7.548  50.810  1.00  0.00     0.037 C 
HETATM   10  C8  UNL     1      24.859   5.745  49.489  1.00  0.00    -0.025 A 
HETATM   11  C9  UNL     1      25.942   6.483  49.098  1.00  0.00     0.010 A 
HETATM   12  C10 UNL     1      27.103   5.793  48.828  1.00  0.00     0.001 A 
HETATM   13  C11 UNL     1      27.282   4.431  48.911  1.00  0.00     0.001 A 
HETATM   14  C12 UNL     1      26.261   3.576  49.291  1.00  0.00     0.012 A 
HETATM   15  C13 UNL     1      25.109   4.307  49.551  1.00  0.00    -0.021 A 
HETATM   16  C14 UNL     1      24.019   3.312  49.982  1.00  0.00    -0.042 C 
HETATM   17  C15 UNL     1      24.919   2.847  50.944  1.00  0.00     0.023 C 
HETATM   18  C16 UNL     1      22.599   3.193  49.432  1.00  0.00     0.038 C 
HETATM   19  C17 UNL     1      22.639   3.268  47.931  1.00  0.00     0.017 C 
HETATM   20  C18 UNL     1      21.801   4.383  49.990  1.00  0.00     0.088 C 
HETATM   21  C19 UNL     1      20.675   4.009  50.862  1.00  0.00     0.033 C 
HETATM   22  C20 UNL     1      23.688   1.545  52.596  1.00  0.00     0.072 A 
HETATM   23  C21 UNL     1      22.519   0.987  52.376  1.00  0.00     0.032 A 
HETATM   24  C22 UNL     1      21.953  -0.282  52.811  1.00  0.00     0.021 A 
HETATM   25  C23 UNL     1      22.685  -1.073  53.571  1.00  0.00     0.108 A 
HETATM   26  N3  UNL     1      23.989  -0.636  53.921  1.00  0.00    -0.304 N 
HETATM   27  N4  UNL     1      24.429   0.622  53.435  1.00  0.00    -0.242 N 
HETATM   28  H3  UNL     1      26.411   3.199  53.261  1.00  0.00     0.163 HD
HETATM   29  H26 UNL     1      24.533  -1.284  54.520  1.00  0.00     0.186 HD
ENDROOT
TORSDOF 0
ENDMDL
MODEL 2
REMARK VINA RESULT:      -9.1      6.215     10.237
REMARK  0 active torsions:
REMARK  status: ('A' for Active; 'I' for Inactive)
ROOT
HETATM    1  C1  UNL     1      27.014   5.429  48.942  1.00  0.00     0.065 C 
HETATM    2  C2  UNL     1      28.087   5.991  48.414  1.00  0.00     0.115 A 
HETATM    3  N1  UNL     1      29.412   5.576  48.681  1.00  0.00    -0.354 N 
HETATM    4  C3  UNL     1      30.407   6.281  47.910  1.00  0.00     0.115 A 
HETATM    5  C4  UNL     1      31.489   6.866  48.893  1.00  0.00     0.032 C 
HETATM    6  C5  UNL     1      32.879   6.804  48.781  1.00  0.00     0.086 C 
HETATM    7  N2  UNL     1      33.857   6.832  47.710  1.00  0.00    -0.377 N 
HETATM    8  C6  UNL     1      34.867   5.785  48.045  1.00  0.00     0.114 C 
HETATM    9  C7  UNL     1      35.339   5.719  49.404  1.00  0.00     0.037 C 
HETATM   10  C8  UNL     1      34.209   4.463  47.575  1.00  0.00    -0.025 A 
HETATM   11  C9  UNL     1      34.634   3.222  47.961  1.00  0.00     0.010 A 
HETATM   12  C10 UNL     1      33.837   2.154  47.616  1.00  0.00     0.001 A 
HETATM   13  C11 UNL     1      32.651   2.210  46.919  1.00  0.00     0.001 A 
HETATM   14  C12 UNL     1      32.117   3.407  46.472  1.00  0.00     0.012 A 
HETATM   15  C13 UNL     1      32.949   4.458  46.835  1.00  0.00    -0.021 A 
HETATM   16  C14 UNL     1      32.301   5.756  46.327  1.00  0.00    -0.042 C 
HETATM   17  C15 UNL     1      31.146   5.365  47.007  1.00  0.00     0.023 C 
HETATM   18  C16 UNL     1      32.957   6.861  45.499  1.00  0.00     0.038 C 
HETATM   19  C17 UNL     1      33.762   6.241  44.392  1.00  0.00     0.017 C 
HETATM   20  C18 UNL     1      33.886   7.638  46.446  1.00  0.00     0.088 C 
HETATM   21  C19 UNL     1      33.520   9.051  46.637  1.00  0.00     0.033 C 
HETATM   22  C20 UNL     1      29.681   7.300  47.230  1.00  0.00     0.072 A 
HETATM   23  C21 UNL     1      29.736   8.362  46.457  1.00  0.00     0.032 A 
HETATM   24  C22 UNL     1      28.694   9.222  45.915  1.00  0.00     0.021 A 
HETATM   25  C23 UNL     1      27.437   8.951  46.207  1.00  0.00     0.108 A 
HETATM   26  N3  UNL     1      27.175   7.833  47.040  1.00  0.00    -0.304 N 
HETATM   27  N4  UNL     1      28.276   7.071  47.508  1.00  0.00    -0.242 N 
HETATM   28  H3  UNL     1      29.757   4.836  49.354  1.00  0.00     0.163 HD
HETATM   29  H26 UNL     1      26.175   7.653  47.248  1.00  0.00     0.186 HD
ENDROOT
TORSDOF 0
ENDMDL
MODEL 3
REMARK VINA RESULT:      -8.7      3.789      7.177
REMARK  0 active torsions:
REMARK  status: ('A' for Active; 'I' for Inactive)
ROOT
HETATM    1  C1  UNL     1      24.722   4.348  50.679  1.00  0.00     0.065 C 
HETATM    2  C2  UNL     1      25.133   5.321  49.885  1.00  0.00     0.115 A 
HETATM    3  N1  UNL     1      26.369   5.990  50.025  1.00  0.00    -0.354 N 
HETATM    4  C3  UNL     1      26.634   6.946  48.979  1.00  0.00     0.115 A 
HETATM    5  C4  UNL     1      26.983   8.334  49.636  1.00  0.00     0.032 C 
HETATM    6  C5  UNL     1      28.038   9.193  49.325  1.00  0.00     0.086 C 
HETATM    7  N2  UNL     1      28.766   9.590  48.135  1.00  0.00    -0.377 N 
HETATM    8  C6  UNL     1      30.207   9.626  48.523  1.00  0.00     0.114 C 
HETATM    9  C7  UNL     1      30.548  10.250  49.775  1.00  0.00     0.037 C 
HETATM   10  C8  UNL     1      30.653   8.145  48.450  1.00  0.00    -0.025 A 
HETATM   11  C9  UNL     1      31.801   7.667  49.019  1.00  0.00     0.010 A 
HETATM   12  C10 UNL     1      31.969   6.301  49.035  1.00  0.00     0.001 A 
HETATM   13  C11 UNL     1      31.093   5.364  48.535  1.00  0.00     0.001 A 
HETATM   14  C12 UNL     1      29.899   5.722  47.932  1.00  0.00     0.012 A 
HETATM   15  C13 UNL     1      29.768   7.104  47.932  1.00  0.00    -0.021 A 
HETATM   16  C14 UNL     1      28.423   7.440  47.268  1.00  0.00    -0.042 C 
HETATM   17  C15 UNL     1      27.830   6.570  48.186  1.00  0.00     0.023 C 
HETATM   18  C16 UNL     1      28.167   8.433  46.135  1.00  0.00     0.038 C 
HETATM   19  C17 UNL     1      29.215   8.254  45.073  1.00  0.00     0.017 C 
HETATM   20  C18 UNL     1      28.276   9.841  46.740  1.00  0.00     0.088 C 
HETATM   21  C19 UNL     1      27.032  10.628  46.683  1.00  0.00     0.033 C 
HETATM   22  C20 UNL     1      25.429   6.991  48.220  1.00  0.00     0.072 A 
HETATM   23  C21 UNL     1      24.766   7.566  47.241  1.00  0.00     0.032 A 
HETATM   24  C22 UNL     1      23.438   7.324  46.697  1.00  0.00     0.021 A 
HETATM   25  C23 UNL     1      22.702   6.369  47.231  1.00  0.00     0.108 A 
HETATM   26  N3  UNL     1      23.251   5.632  48.312  1.00  0.00    -0.304 N 
HETATM   27  N4  UNL     1      24.558   5.963  48.754  1.00  0.00    -0.242 N 
HETATM   28  H3  UNL     1      27.106   5.882  50.778  1.00  0.00     0.163 HD
HETATM   29  H26 UNL     1      22.642   4.891  48.705  1.00  0.00     0.186 HD
ENDROOT
TORSDOF 0
ENDMDL
MODEL 4
REMARK VINA RESULT:      -8.3      7.077     10.180
REMARK  0 active torsions:
REMARK  status: ('A' for Active; 'I' for Inactive)
ROOT
HETATM    1  C1  UNL     1      32.739   2.678  47.449  1.00  0.00     0.065 C 
HETATM    2  C2  UNL     1      32.766   3.999  47.459  1.00  0.00     0.115 A 
HETATM    3  N1  UNL     1      31.769   4.817  46.881  1.00  0.00    -0.354 N 
HETATM    4  C3  UNL     1      31.972   6.227  47.107  1.00  0.00     0.115 A 
HETATM    5  C4  UNL     1      31.931   6.974  45.722  1.00  0.00     0.032 C 
HETATM    6  C5  UNL     1      31.236   8.139  45.390  1.00  0.00     0.086 C 
HETATM    7  N2  UNL     1      30.865   9.375  46.052  1.00  0.00    -0.377 N 
HETATM    8  C6  UNL     1      29.452   9.648  45.656  1.00  0.00     0.114 C 
HETATM    9  C7  UNL     1      29.099   9.478  44.270  1.00  0.00     0.037 C 
HETATM   10  C8  UNL     1      28.616   8.748  46.601  1.00  0.00    -0.025 A 
HETATM   11  C9  UNL     1      27.301   8.440  46.392  1.00  0.00     0.010 A 
HETATM   12  C10 UNL     1      26.746   7.481  47.209  1.00  0.00     0.001 A 
HETATM   13  C11 UNL     1      27.387   6.799  48.219  1.00  0.00     0.001 A 
HETATM   14  C12 UNL     1      28.716   7.023  48.530  1.00  0.00     0.012 A 
HETATM   15  C13 UNL     1      29.238   7.997  47.689  1.00  0.00    -0.021 A 
HETATM   16  C14 UNL     1      30.715   8.193  48.070  1.00  0.00    -0.042 C 
HETATM   17  C15 UNL     1      30.869   6.814  47.906  1.00  0.00     0.023 C 
HETATM   18  C16 UNL     1      31.432   9.509  48.367  1.00  0.00     0.038 C 
HETATM   19  C17 UNL     1      30.572  10.352  49.265  1.00  0.00     0.017 C 
HETATM   20  C18 UNL     1      31.634  10.223  47.020  1.00  0.00     0.088 C 
HETATM   21  C19 UNL     1      33.043  10.425  46.641  1.00  0.00     0.033 C 
HETATM   22  C20 UNL     1      33.248   6.311  47.734  1.00  0.00     0.072 A 
HETATM   23  C21 UNL     1      34.203   7.094  48.184  1.00  0.00     0.032 A 
HETATM   24  C22 UNL     1      35.477   6.799  48.824  1.00  0.00     0.021 A 
HETATM   25  C23 UNL     1      35.806   5.538  49.023  1.00  0.00     0.108 A 
HETATM   26  N3  UNL     1      34.894   4.538  48.597  1.00  0.00    -0.304 N 
HETATM   27  N4  UNL     1      33.683   4.951  47.984  1.00  0.00    -0.242 N 
HETATM   28  H3  UNL     1      30.917   4.536  46.319  1.00  0.00     0.163 HD
HETATM   29  H26 UNL     1      35.189   3.559  48.770  1.00  0.00     0.186 HD
ENDROOT
TORSDOF 0
ENDMDL
MODEL 5
REMARK VINA RESULT:      -8.2      2.742      5.157
REMARK  0 active torsions:
REMARK  status: ('A' for Active; 'I' for Inactive)
ROOT
HETATM    1  C1  UNL     1      17.786  -1.243  52.581  1.00  0.00     0.065 C 
HETATM    2  C2  UNL     1      18.920  -0.589  52.400  1.00  0.00     0.115 A 
HETATM    3  N1  UNL     1      19.178   0.261  51.301  1.00  0.00    -0.354 N 
HETATM    4  C3  UNL     1      20.450   0.938  51.377  1.00  0.00     0.115 A 
HETATM    5  C4  UNL     1      21.242   0.679  50.041  1.00  0.00     0.032 C 
HETATM    6  C5  UNL     1      21.917   1.607  49.246  1.00  0.00     0.086 C 
HETATM    7  N2  UNL     1      22.692   2.816  49.455  1.00  0.00    -0.377 N 
HETATM    8  C6  UNL     1      22.250   3.777  48.401  1.00  0.00     0.114 C 
HETATM    9  C7  UNL     1      22.104   3.279  47.058  1.00  0.00     0.037 C 
HETATM   10  C8  UNL     1      20.937   4.375  48.964  1.00  0.00    -0.025 A 
HETATM   11  C9  UNL     1      20.028   5.062  48.208  1.00  0.00     0.010 A 
HETATM   12  C10 UNL     1      18.824   5.367  48.803  1.00  0.00     0.001 A 
HETATM   13  C11 UNL     1      18.443   5.048  50.087  1.00  0.00     0.001 A 
HETATM   14  C12 UNL     1      19.275   4.357  50.951  1.00  0.00     0.012 A 
HETATM   15  C13 UNL     1      20.478   4.072  50.318  1.00  0.00    -0.021 A 
HETATM   16  C14 UNL     1      21.351   3.295  51.316  1.00  0.00    -0.042 C 
HETATM   17  C15 UNL     1      20.281   2.409  51.459  1.00  0.00     0.023 C 
HETATM   18  C16 UNL     1      22.798   3.588  51.711  1.00  0.00     0.038 C 
HETATM   19  C17 UNL     1      22.957   5.062  51.954  1.00  0.00     0.017 C 
HETATM   20  C18 UNL     1      23.681   3.158  50.528  1.00  0.00     0.088 C 
HETATM   21  C19 UNL     1      24.623   2.068  50.834  1.00  0.00     0.033 C 
HETATM   22  C20 UNL     1      21.095   0.366  52.511  1.00  0.00     0.072 A 
HETATM   23  C21 UNL     1      22.191   0.293  53.233  1.00  0.00     0.032 A 
HETATM   24  C22 UNL     1      22.511  -0.463  54.435  1.00  0.00     0.021 A 
HETATM   25  C23 UNL     1      21.583  -1.241  54.957  1.00  0.00     0.108 A 
HETATM   26  N3  UNL     1      20.321  -1.297  54.310  1.00  0.00    -0.304 N 
HETATM   27  N4  UNL     1      20.131  -0.513  53.143  1.00  0.00    -0.242 N 
HETATM   28  H3  UNL     1      18.575   0.460  50.454  1.00  0.00     0.163 HD
HETATM   29  H26 UNL     1      19.619  -1.920  54.750  1.00  0.00     0.186 HD
ENDROOT
TORSDOF 0
ENDMDL
MODEL 6
REMARK VINA RESULT:      -8.0      2.238      4.406
REMARK  0 active torsions:
REMARK  status: ('A' for Active; 'I' for Inactive)
ROOT
HETATM    1  C1  UNL     1      27.542   4.802  48.953  1.00  0.00     0.065 C 
HETATM    2  C2  UNL     1      26.414   4.394  49.508  1.00  0.00     0.115 A 
HETATM    3  N1  UNL     1      25.132   4.838  49.114  1.00  0.00    -0.354 N 
HETATM    4  C3  UNL     1      24.051   4.175  49.802  1.00  0.00     0.115 A 
HETATM    5  C4  UNL     1      23.104   5.265  50.428  1.00  0.00     0.032 C 
HETATM    6  C5  UNL     1      21.710   5.330  50.375  1.00  0.00     0.086 C 
HETATM    7  N2  UNL     1      20.606   4.389  50.377  1.00  0.00    -0.377 N 
HETATM    8  C6  UNL     1      19.641   4.882  49.350  1.00  0.00     0.114 C 
HETATM    9  C7  UNL     1      19.343   6.291  49.332  1.00  0.00     0.037 C 
HETATM   10  C8  UNL     1      20.229   4.378  48.009  1.00  0.00    -0.025 A 
HETATM   11  C9  UNL     1      19.849   4.854  46.784  1.00  0.00     0.010 A 
HETATM   12  C10 UNL     1      20.591   4.448  45.698  1.00  0.00     0.001 A 
HETATM   13  C11 UNL     1      21.681   3.607  45.722  1.00  0.00     0.001 A 
HETATM   14  C12 UNL     1      22.160   3.057  46.898  1.00  0.00     0.012 A 
HETATM   15  C13 UNL     1      21.386   3.486  47.968  1.00  0.00    -0.021 A 
HETATM   16  C14 UNL     1      21.972   2.859  49.243  1.00  0.00    -0.042 C 
HETATM   17  C15 UNL     1      23.201   3.402  48.864  1.00  0.00     0.023 C 
HETATM   18  C16 UNL     1      21.223   2.084  50.326  1.00  0.00     0.038 C 
HETATM   19  C17 UNL     1      20.283   1.107  49.679  1.00  0.00     0.017 C 
HETATM   20  C18 UNL     1      20.424   3.112  51.142  1.00  0.00     0.088 C 
HETATM   21  C19 UNL     1      20.817   3.210  52.558  1.00  0.00     0.033 C 
HETATM   22  C20 UNL     1      24.692   3.376  50.792  1.00  0.00     0.072 A 
HETATM   23  C21 UNL     1      24.545   2.582  51.829  1.00  0.00     0.032 A 
HETATM   24  C22 UNL     1      25.515   1.885  52.661  1.00  0.00     0.021 A 
HETATM   25  C23 UNL     1      26.798   2.027  52.389  1.00  0.00     0.108 A 
HETATM   26  N3  UNL     1      27.157   2.857  51.296  1.00  0.00    -0.304 N 
HETATM   27  N4  UNL     1      26.119   3.484  50.560  1.00  0.00    -0.242 N 
HETATM   28  H3  UNL     1      24.870   5.574  48.399  1.00  0.00     0.163 HD
HETATM   29  H26 UNL     1      28.174   2.944  51.114  1.00  0.00     0.186 HD
ENDROOT
TORSDOF 0
ENDMDL
MODEL 7
REMARK VINA RESULT:      -7.9      7.446     10.786
REMARK  0 active torsions:
REMARK  status: ('A' for Active; 'I' for Inactive)
ROOT
HETATM    1  C1  UNL     1      34.710   7.555  42.755  1.00  0.00     0.065 C 
HETATM    2  C2  UNL     1      34.165   7.215  43.910  1.00  0.00     0.115 A 
HETATM    3  N1  UNL     1      33.327   8.062  44.671  1.00  0.00    -0.354 N 
HETATM    4  C3  UNL     1      32.777   7.431  45.845  1.00  0.00     0.115 A 
HETATM    5  C4  UNL     1      33.090   8.331  47.099  1.00  0.00     0.032 C 
HETATM    6  C5  UNL     1      32.220   8.725  48.116  1.00  0.00     0.086 C 
HETATM    7  N2  UNL     1      31.094   8.151  48.828  1.00  0.00    -0.377 N 
HETATM    8  C6  UNL     1      30.080   9.241  48.945  1.00  0.00     0.114 C 
HETATM    9  C7  UNL     1      30.542  10.548  49.333  1.00  0.00     0.037 C 
HETATM   10  C8  UNL     1      29.367   9.241  47.570  1.00  0.00    -0.025 A 
HETATM   11  C9  UNL     1      28.586  10.268  47.118  1.00  0.00     0.010 A 
HETATM   12  C10 UNL     1      28.176  10.210  45.805  1.00  0.00     0.001 A 
HETATM   13  C11 UNL     1      28.476   9.218  44.898  1.00  0.00     0.001 A 
HETATM   14  C12 UNL     1      29.255   8.124  45.235  1.00  0.00     0.012 A 
HETATM   15  C13 UNL     1      29.644   8.217  46.565  1.00  0.00    -0.021 A 
HETATM   16  C14 UNL     1      30.516   6.989  46.876  1.00  0.00    -0.042 C 
HETATM   17  C15 UNL     1      31.297   7.349  45.776  1.00  0.00     0.023 C 
HETATM   18  C16 UNL     1      30.367   6.016  48.045  1.00  0.00     0.038 C 
HETATM   19  C17 UNL     1      28.919   5.652  48.208  1.00  0.00     0.017 C 
HETATM   20  C18 UNL     1      30.863   6.748  49.303  1.00  0.00     0.088 C 
HETATM   21  C19 UNL     1      32.042   6.138  49.941  1.00  0.00     0.033 C 
HETATM   22  C20 UNL     1      33.423   6.164  45.909  1.00  0.00     0.072 A 
HETATM   23  C21 UNL     1      33.611   5.058  46.595  1.00  0.00     0.032 A 
HETATM   24  C22 UNL     1      34.411   3.873  46.322  1.00  0.00     0.021 A 
HETATM   25  C23 UNL     1      35.104   3.823  45.201  1.00  0.00     0.108 A 
HETATM   26  N3  UNL     1      35.030   4.937  44.325  1.00  0.00    -0.304 N 
HETATM   27  N4  UNL     1      34.216   6.035  44.702  1.00  0.00    -0.242 N 
HETATM   28  H3  UNL     1      33.059   9.071  44.494  1.00  0.00     0.163 HD
HETATM   29  H26 UNL     1      35.589   4.861  43.455  1.00  0.00     0.186 HD
ENDROOT
TORSDOF 0
ENDMDL
MODEL 8
REMARK VINA RESULT:      -7.8      1.878      5.043
REMARK  0 active torsions:
REMARK  status: ('A' for Active; 'I' for Inactive)
ROOT
HETATM    1  C1  UNL     1      21.886  -1.593  53.728  1.00  0.00     0.065 C 
HETATM    2  C2  UNL     1      22.246  -0.522  53.044  1.00  0.00     0.115 A 
HETATM    3  N1  UNL     1      21.460   0.072  52.031  1.00  0.00    -0.354 N 
HETATM    4  C3  UNL     1      22.023   1.289  51.499  1.00  0.00     0.115 A 
HETATM    5  C4  UNL     1      22.104   1.168  49.931  1.00  0.00     0.032 C 
HETATM    6  C5  UNL     1      21.710   2.103  48.972  1.00  0.00     0.086 C 
HETATM    7  N2  UNL     1      21.696   3.548  48.845  1.00  0.00    -0.377 N 
HETATM    8  C6  UNL     1      20.379   3.896  48.235  1.00  0.00     0.114 C 
HETATM    9  C7  UNL     1      19.926   3.106  47.120  1.00  0.00     0.037 C 
HETATM   10  C8  UNL     1      19.392   3.870  49.428  1.00  0.00    -0.025 A 
HETATM   11  C9  UNL     1      18.032   3.824  49.290  1.00  0.00     0.010 A 
HETATM   12  C10 UNL     1      17.295   3.613  50.434  1.00  0.00     0.001 A 
HETATM   13  C11 UNL     1      17.792   3.444  51.707  1.00  0.00     0.001 A 
HETATM   14  C12 UNL     1      19.150   3.474  51.976  1.00  0.00     0.012 A 
HETATM   15  C13 UNL     1      19.858   3.691  50.801  1.00  0.00    -0.021 A 
HETATM   16  C14 UNL     1      21.353   3.699  51.159  1.00  0.00    -0.042 C 
HETATM   17  C15 UNL     1      21.146   2.456  51.761  1.00  0.00     0.023 C 
HETATM   18  C16 UNL     1      22.393   4.753  50.784  1.00  0.00     0.038 C 
HETATM   19  C17 UNL     1      21.819   6.122  51.018  1.00  0.00     0.017 C 
HETATM   20  C18 UNL     1      22.701   4.567  49.290  1.00  0.00     0.088 C 
HETATM   21  C19 UNL     1      24.095   4.192  48.995  1.00  0.00     0.033 C 
HETATM   22  C20 UNL     1      23.309   1.386  52.104  1.00  0.00     0.072 A 
HETATM   23  C21 UNL     1      24.452   2.033  52.162  1.00  0.00     0.032 A 
HETATM   24  C22 UNL     1      25.641   1.828  52.977  1.00  0.00     0.021 A 
HETATM   25  C23 UNL     1      25.650   0.831  53.840  1.00  0.00     0.108 A 
HETATM   26  N3  UNL     1      24.495   0.011  53.921  1.00  0.00    -0.304 N 
HETATM   27  N4  UNL     1      23.399   0.311  53.073  1.00  0.00    -0.242 N 
HETATM   28  H3  UNL     1      20.538  -0.251  51.625  1.00  0.00     0.163 HD
HETATM   29  H26 UNL     1      24.541  -0.762  54.611  1.00  0.00     0.186 HD
ENDROOT
TORSDOF 0
ENDMDL
MODEL 9
REMARK VINA RESULT:      -7.6      2.531      6.232
REMARK  0 active torsions:
REMARK  status: ('A' for Active; 'I' for Inactive)
ROOT
HETATM    1  C1  UNL     1      25.564   9.679  48.806  1.00  0.00     0.065 C 
HETATM    2  C2  UNL     1      25.412   8.382  49.005  1.00  0.00     0.115 A 
HETATM    3  N1  UNL     1      24.237   7.793  49.525  1.00  0.00    -0.354 N 
HETATM    4  C3  UNL     1      24.277   6.351  49.558  1.00  0.00     0.115 A 
HETATM    5  C4  UNL     1      23.927   5.867  51.015  1.00  0.00     0.032 C 
HETATM    6  C5  UNL     1      23.038   4.862  51.399  1.00  0.00     0.086 C 
HETATM    7  N2  UNL     1      22.605   3.577  50.884  1.00  0.00    -0.377 N 
HETATM    8  C6  UNL     1      21.125   3.534  51.070  1.00  0.00     0.114 C 
HETATM    9  C7  UNL     1      20.594   3.981  52.331  1.00  0.00     0.037 C 
HETATM   10  C8  UNL     1      20.571   4.340  49.868  1.00  0.00    -0.025 A 
HETATM   11  C9  UNL     1      19.294   4.822  49.799  1.00  0.00     0.010 A 
HETATM   12  C10 UNL     1      19.004   5.678  48.760  1.00  0.00     0.001 A 
HETATM   13  C11 UNL     1      19.876   6.098  47.781  1.00  0.00     0.001 A 
HETATM   14  C12 UNL     1      21.195   5.678  47.740  1.00  0.00     0.012 A 
HETATM   15  C13 UNL     1      21.446   4.816  48.799  1.00  0.00    -0.021 A 
HETATM   16  C14 UNL     1      22.922   4.396  48.711  1.00  0.00    -0.042 C 
HETATM   17  C15 UNL     1      23.237   5.757  48.683  1.00  0.00     0.023 C 
HETATM   18  C16 UNL     1      23.490   2.978  48.750  1.00  0.00     0.038 C 
HETATM   19  C17 UNL     1      22.668   2.090  47.860  1.00  0.00     0.017 C 
HETATM   20  C18 UNL     1      23.388   2.494  50.205  1.00  0.00     0.088 C 
HETATM   21  C19 UNL     1      24.683   2.208  50.846  1.00  0.00     0.033 C 
HETATM   22  C20 UNL     1      25.609   6.019  49.179  1.00  0.00     0.072 A 
HETATM   23  C21 UNL     1      26.505   5.069  49.026  1.00  0.00     0.032 A 
HETATM   24  C22 UNL     1      27.889   5.107  48.576  1.00  0.00     0.021 A 
HETATM   25  C23 UNL     1      28.414   6.270  48.243  1.00  0.00     0.108 A 
HETATM   26  N3  UNL     1      27.593   7.423  48.346  1.00  0.00    -0.304 N 
HETATM   27  N4  UNL     1      26.259   7.258  48.799  1.00  0.00    -0.242 N 
HETATM   28  H3  UNL     1      23.356   8.259  49.882  1.00  0.00     0.163 HD
HETATM   29  H26 UNL     1      28.041   8.318  48.076  1.00  0.00     0.186 HD
ENDROOT
TORSDOF 0
ENDMDL
