MODEL 1
REMARK VINA RESULT:      -8.3      0.000      0.000
REMARK  5 active torsions:
REMARK  status: ('A' for Active; 'I' for Inactive)
REMARK    1  A    between atoms: O1_1  and  C1_2 
REMARK    2  A    between atoms: C4_5  and  C5_6 
REMARK    3  A    between atoms: C5_6  and  C6_7 
REMARK    4  A    between atoms: C13_16  and  N2_17 
REMARK    5  A    between atoms: N2_17  and  P1_18 
ROOT
HETATM    1  C6  UNL     1      22.839   0.730  52.019  1.00  0.00     0.051 C 
HETATM    2  C7  UNL     1      21.916  -0.168  52.327  1.00  0.00     0.035 C 
HETATM    3  C8  UNL     1      22.063  -1.023  53.503  1.00  0.00     0.032 C 
HETATM    4  C9  UNL     1      23.159  -0.810  54.208  1.00  0.00     0.064 C 
HETATM    5  N1  UNL     1      23.730  -1.381  55.387  1.00  0.00    -0.267 N 
HETATM    6  O2  UNL     1      25.114  -1.335  55.365  1.00  0.00    -0.266 OA
HETATM    7  C10 UNL     1      25.431  -0.485  54.284  1.00  0.00     0.123 C 
HETATM    8  C11 UNL     1      25.945  -1.221  53.090  1.00  0.00     0.046 C 
HETATM    9  C12 UNL     1      27.244  -0.514  52.685  1.00  0.00     0.030 C 
HETATM   10  C13 UNL     1      27.789  -0.191  54.076  1.00  0.00     0.110 C 
HETATM   11  C14 UNL     1      26.582   0.381  54.752  1.00  0.00     0.071 C 
HETATM   12  C15 UNL     1      24.189   0.291  54.024  1.00  0.00     0.217 C 
HETATM   13  O3  UNL     1      23.978   0.868  52.801  1.00  0.00    -0.341 OA
HETATM   14  H8  UNL     1      23.197  -1.805  56.189  1.00  0.00     0.194 HD
ENDROOT
BRANCH   1  15
HETATM   15  C5  UNL     1      22.658   1.592  50.821  1.00  0.00     0.103 C 
BRANCH  15  16
HETATM   16  C4  UNL     1      23.108   2.983  51.090  1.00  0.00    -0.052 A 
HETATM   17  C3  UNL     1      24.163   3.521  50.352  1.00  0.00     0.010 A 
HETATM   18  C2  UNL     1      24.538   4.817  50.644  1.00  0.00     0.037 A 
HETATM   19  C1  UNL     1      23.934   5.611  51.620  1.00  0.00     0.065 A 
HETATM   20  C17 UNL     1      22.891   5.057  52.340  1.00  0.00     0.037 A 
HETATM   21  C16 UNL     1      22.511   3.767  52.054  1.00  0.00     0.010 A 
BRANCH  19  22
HETATM   22  O1  UNL     1      24.334   6.900  51.887  1.00  0.00    -0.361 OA
HETATM   23  H1  UNL     1      23.987   7.433  52.680  1.00  0.00     0.217 HD
ENDBRANCH  19  22
ENDBRANCH  15  16
ENDBRANCH   1  15
BRANCH  10  24
HETATM   24  N2  UNL     1      28.904   0.697  54.020  1.00  0.00    -0.293 NA
BRANCH  24  25
HETATM   25  P1  UNL     1      28.639   2.239  53.617  1.00  0.00     0.040 P 
HETATM   26  H14 UNL     1      27.323   2.849  53.719  1.00  0.00     0.088 HD
ENDBRANCH  24  25
ENDBRANCH  10  24
TORSDOF 5
ENDMDL
MODEL 2
REMARK VINA RESULT:      -7.9      3.206      6.682
REMARK  5 active torsions:
REMARK  status: ('A' for Active; 'I' for Inactive)
REMARK    1  A    between atoms: O1_1  and  C1_2 
REMARK    2  A    between atoms: C4_5  and  C5_6 
REMARK    3  A    between atoms: C5_6  and  C6_7 
REMARK    4  A    between atoms: C13_16  and  N2_17 
REMARK    5  A    between atoms: N2_17  and  P1_18 
ROOT
HETATM    1  C6  UNL     1      26.370   2.517  52.258  1.00  0.00     0.051 C 
HETATM    2  C7  UNL     1      26.877   2.813  51.071  1.00  0.00     0.035 C 
HETATM    3  C8  UNL     1      26.019   3.267  49.979  1.00  0.00     0.032 C 
HETATM    4  C9  UNL     1      24.739   3.364  50.285  1.00  0.00     0.064 C 
HETATM    5  N1  UNL     1      23.555   3.738  49.577  1.00  0.00    -0.267 N 
HETATM    6  O2  UNL     1      22.438   3.069  50.049  1.00  0.00    -0.266 OA
HETATM    7  C10 UNL     1      22.862   2.459  51.250  1.00  0.00     0.123 C 
HETATM    8  C11 UNL     1      23.059   0.984  51.121  1.00  0.00     0.046 C 
HETATM    9  C12 UNL     1      22.283   0.351  52.282  1.00  0.00     0.030 C 
HETATM   10  C13 UNL     1      21.073   1.284  52.303  1.00  0.00     0.110 C 
HETATM   11  C14 UNL     1      21.723   2.631  52.235  1.00  0.00     0.071 C 
HETATM   12  C15 UNL     1      24.089   3.199  51.648  1.00  0.00     0.217 C 
HETATM   13  O3  UNL     1      25.003   2.620  52.486  1.00  0.00    -0.341 OA
HETATM   14  H8  UNL     1      23.501   4.423  48.781  1.00  0.00     0.194 HD
ENDROOT
BRANCH   1  15
HETATM   15  C5  UNL     1      27.268   2.066  53.353  1.00  0.00     0.103 C 
BRANCH  15  16
HETATM   16  C4  UNL     1      27.587   0.620  53.222  1.00  0.00    -0.052 A 
HETATM   17  C3  UNL     1      28.857   0.160  53.573  1.00  0.00     0.010 A 
HETATM   18  C2  UNL     1      29.097  -1.192  53.431  1.00  0.00     0.037 A 
HETATM   19  C1  UNL     1      28.159  -2.114  52.964  1.00  0.00     0.065 A 
HETATM   20  C17 UNL     1      26.907  -1.636  52.622  1.00  0.00     0.037 A 
HETATM   21  C16 UNL     1      26.660  -0.291  52.761  1.00  0.00     0.010 A 
BRANCH  19  22
HETATM   22  O1  UNL     1      28.432  -3.456  52.834  1.00  0.00    -0.361 OA
HETATM   23  H1  UNL     1      27.708  -4.171  52.850  1.00  0.00     0.217 HD
ENDBRANCH  19  22
ENDBRANCH  15  16
ENDBRANCH   1  15
BRANCH  10  24
HETATM   24  N2  UNL     1      20.263   1.084  53.461  1.00  0.00    -0.293 NA
BRANCH  24  25
HETATM   25  P1  UNL     1      20.772   0.037  54.583  1.00  0.00     0.040 P 
HETATM   26  H14 UNL     1      20.435  -1.375  54.531  1.00  0.00     0.088 HD
ENDBRANCH  24  25
ENDBRANCH  10  24
TORSDOF 5
ENDMDL
MODEL 3
REMARK VINA RESULT:      -7.8      3.458      5.680
REMARK  5 active torsions:
REMARK  status: ('A' for Active; 'I' for Inactive)
REMARK    1  A    between atoms: O1_1  and  C1_2 
REMARK    2  A    between atoms: C4_5  and  C5_6 
REMARK    3  A    between atoms: C5_6  and  C6_7 
REMARK    4  A    between atoms: C13_16  and  N2_17 
REMARK    5  A    between atoms: N2_17  and  P1_18 
ROOT
HETATM    1  C6  UNL     1      24.891  -0.931  53.340  1.00  0.00     0.051 C 
HETATM    2  C7  UNL     1      24.859  -1.103  54.653  1.00  0.00     0.035 C 
HETATM    3  C8  UNL     1      23.603  -1.009  55.392  1.00  0.00     0.032 C 
HETATM    4  C9  UNL     1      22.541  -0.759  54.649  1.00  0.00     0.064 C 
HETATM    5  N1  UNL     1      21.147  -0.572  54.906  1.00  0.00    -0.267 N 
HETATM    6  O2  UNL     1      20.566   0.295  53.996  1.00  0.00    -0.266 OA
HETATM    7  C10 UNL     1      21.535   0.459  52.983  1.00  0.00     0.123 C 
HETATM    8  C11 UNL     1      22.220   1.785  53.035  1.00  0.00     0.046 C 
HETATM    9  C12 UNL     1      22.136   2.360  51.616  1.00  0.00     0.030 C 
HETATM   10  C13 UNL     1      20.735   1.880  51.242  1.00  0.00     0.110 C 
HETATM   11  C14 UNL     1      20.778   0.446  51.670  1.00  0.00     0.071 C 
HETATM   12  C15 UNL     1      22.454  -0.701  53.134  1.00  0.00     0.217 C 
HETATM   13  O3  UNL     1      23.729  -0.641  52.638  1.00  0.00    -0.341 OA
HETATM   14  H8  UNL     1      20.599  -1.012  55.688  1.00  0.00     0.194 HD
ENDROOT
BRANCH   1  15
HETATM   15  C5  UNL     1      26.184  -1.041  52.613  1.00  0.00     0.103 C 
BRANCH  15  16
HETATM   16  C4  UNL     1      27.192  -0.100  53.169  1.00  0.00    -0.052 A 
HETATM   17  C3  UNL     1      28.365  -0.603  53.732  1.00  0.00     0.010 A 
HETATM   18  C2  UNL     1      29.266   0.316  54.232  1.00  0.00     0.037 A 
HETATM   19  C1  UNL     1      29.076   1.698  54.209  1.00  0.00     0.065 A 
HETATM   20  C17 UNL     1      27.906   2.174  53.646  1.00  0.00     0.037 A 
HETATM   21  C16 UNL     1      27.004   1.265  53.145  1.00  0.00     0.010 A 
BRANCH  19  22
HETATM   22  O1  UNL     1      29.995   2.587  54.717  1.00  0.00    -0.361 OA
HETATM   23  H1  UNL     1      30.897   2.298  55.088  1.00  0.00     0.217 HD
ENDBRANCH  19  22
ENDBRANCH  15  16
ENDBRANCH   1  15
BRANCH  10  24
HETATM   24  N2  UNL     1      20.458   2.067  49.854  1.00  0.00    -0.293 NA
BRANCH  24  25
HETATM   25  P1  UNL     1      21.483   1.438  48.775  1.00  0.00     0.040 P 
HETATM   26  H14 UNL     1      21.858   2.145  47.562  1.00  0.00     0.088 HD
ENDBRANCH  24  25
ENDBRANCH  10  24
TORSDOF 5
ENDMDL
MODEL 4
REMARK VINA RESULT:      -7.8      3.206      5.653
REMARK  5 active torsions:
REMARK  status: ('A' for Active; 'I' for Inactive)
REMARK    1  A    between atoms: O1_1  and  C1_2 
REMARK    2  A    between atoms: C4_5  and  C5_6 
REMARK    3  A    between atoms: C5_6  and  C6_7 
REMARK    4  A    between atoms: C13_16  and  N2_17 
REMARK    5  A    between atoms: N2_17  and  P1_18 
ROOT
HETATM    1  C6  UNL     1      25.005   0.111  52.404  1.00  0.00     0.051 C 
HETATM    2  C7  UNL     1      24.459  -0.429  53.483  1.00  0.00     0.035 C 
HETATM    3  C8  UNL     1      23.092  -0.100  53.878  1.00  0.00     0.032 C 
HETATM    4  C9  UNL     1      22.472   0.745  53.075  1.00  0.00     0.064 C 
HETATM    5  N1  UNL     1      21.180   1.354  53.050  1.00  0.00    -0.267 N 
HETATM    6  O2  UNL     1      21.212   2.610  52.467  1.00  0.00    -0.266 OA
HETATM    7  C10 UNL     1      22.487   2.699  51.868  1.00  0.00     0.123 C 
HETATM    8  C11 UNL     1      23.427   3.585  52.618  1.00  0.00     0.046 C 
HETATM    9  C12 UNL     1      24.012   4.553  51.583  1.00  0.00     0.030 C 
HETATM   10  C13 UNL     1      22.765   4.775  50.727  1.00  0.00     0.110 C 
HETATM   11  C14 UNL     1      22.277   3.373  50.528  1.00  0.00     0.071 C 
HETATM   12  C15 UNL     1      22.955   1.292  51.743  1.00  0.00     0.217 C 
HETATM   13  O3  UNL     1      24.291   1.016  51.630  1.00  0.00    -0.341 OA
HETATM   14  H8  UNL     1      20.292   0.937  53.431  1.00  0.00     0.194 HD
ENDROOT
BRANCH   1  15
HETATM   15  C5  UNL     1      26.396  -0.249  52.022  1.00  0.00     0.103 C 
BRANCH  15  16
HETATM   16  C4  UNL     1      27.386   0.489  52.850  1.00  0.00    -0.052 A 
HETATM   17  C3  UNL     1      27.522   1.869  52.693  1.00  0.00     0.010 A 
HETATM   18  C2  UNL     1      28.456   2.502  53.489  1.00  0.00     0.037 A 
HETATM   19  C1  UNL     1      29.262   1.855  54.426  1.00  0.00     0.065 A 
HETATM   20  C17 UNL     1      29.111   0.487  54.563  1.00  0.00     0.037 A 
HETATM   21  C16 UNL     1      28.182  -0.151  53.776  1.00  0.00     0.010 A 
BRANCH  19  22
HETATM   22  O1  UNL     1      30.185   2.517  55.202  1.00  0.00    -0.361 OA
HETATM   23  H1  UNL     1      31.137   2.185  55.333  1.00  0.00     0.217 HD
ENDBRANCH  19  22
ENDBRANCH  15  16
ENDBRANCH   1  15
BRANCH  10  24
HETATM   24  N2  UNL     1      23.065   5.467  49.516  1.00  0.00    -0.293 NA
BRANCH  24  25
HETATM   25  P1  UNL     1      24.614   5.619  49.081  1.00  0.00     0.040 P 
HETATM   26  H14 UNL     1      25.644   4.711  49.559  1.00  0.00     0.088 HD
ENDBRANCH  24  25
ENDBRANCH  10  24
TORSDOF 5
ENDMDL
MODEL 5
REMARK VINA RESULT:      -7.7      2.741      5.074
REMARK  5 active torsions:
REMARK  status: ('A' for Active; 'I' for Inactive)
REMARK    1  A    between atoms: O1_1  and  C1_2 
REMARK    2  A    between atoms: C4_5  and  C5_6 
REMARK    3  A    between atoms: C5_6  and  C6_7 
REMARK    4  A    between atoms: C13_16  and  N2_17 
REMARK    5  A    between atoms: N2_17  and  P1_18 
ROOT
HETATM    1  C6  UNL     1      23.852  -0.449  53.864  1.00  0.00     0.051 C 
HETATM    2  C7  UNL     1      22.750  -0.701  54.554  1.00  0.00     0.035 C 
HETATM    3  C8  UNL     1      21.441  -0.284  54.057  1.00  0.00     0.032 C 
HETATM    4  C9  UNL     1      21.463   0.332  52.890  1.00  0.00     0.064 C 
HETATM    5  N1  UNL     1      20.477   0.916  52.035  1.00  0.00    -0.267 N 
HETATM    6  O2  UNL     1      20.984   1.985  51.315  1.00  0.00    -0.266 OA
HETATM    7  C10 UNL     1      22.382   1.921  51.509  1.00  0.00     0.123 C 
HETATM    8  C11 UNL     1      22.893   2.967  52.444  1.00  0.00     0.046 C 
HETATM    9  C12 UNL     1      24.063   3.645  51.721  1.00  0.00     0.030 C 
HETATM   10  C13 UNL     1      23.503   3.644  50.300  1.00  0.00     0.110 C 
HETATM   11  C14 UNL     1      23.008   2.237  50.166  1.00  0.00     0.071 C 
HETATM   12  C15 UNL     1      22.647   0.528  51.959  1.00  0.00     0.217 C 
HETATM   13  O3  UNL     1      23.788   0.233  52.656  1.00  0.00    -0.341 OA
HETATM   14  H8  UNL     1      19.476   0.606  51.945  1.00  0.00     0.194 HD
ENDROOT
BRANCH   1  15
HETATM   15  C5  UNL     1      25.170  -0.892  54.391  1.00  0.00     0.103 C 
BRANCH  15  16
HETATM   16  C4  UNL     1      26.239   0.080  54.045  1.00  0.00    -0.052 A 
HETATM   17  C3  UNL     1      27.484  -0.387  53.618  1.00  0.00     0.010 A 
HETATM   18  C2  UNL     1      28.439   0.561  53.310  1.00  0.00     0.037 A 
HETATM   19  C1  UNL     1      28.238   1.939  53.398  1.00  0.00     0.065 A 
HETATM   20  C17 UNL     1      26.998   2.379  53.823  1.00  0.00     0.037 A 
HETATM   21  C16 UNL     1      26.041   1.441  54.131  1.00  0.00     0.010 A 
BRANCH  19  22
HETATM   22  O1  UNL     1      29.213   2.857  53.083  1.00  0.00    -0.361 OA
HETATM   23  H1  UNL     1      29.922   3.160  53.747  1.00  0.00     0.217 HD
ENDBRANCH  19  22
ENDBRANCH  15  16
ENDBRANCH   1  15
BRANCH  10  24
HETATM   24  N2  UNL     1      24.490   4.010  49.337  1.00  0.00    -0.293 NA
BRANCH  24  25
HETATM   25  P1  UNL     1      26.046   3.785  49.708  1.00  0.00     0.040 P 
HETATM   26  H14 UNL     1      26.805   2.654  49.202  1.00  0.00     0.088 HD
ENDBRANCH  24  25
ENDBRANCH  10  24
TORSDOF 5
ENDMDL
MODEL 6
REMARK VINA RESULT:      -7.6      3.977      6.635
REMARK  5 active torsions:
REMARK  status: ('A' for Active; 'I' for Inactive)
REMARK    1  A    between atoms: O1_1  and  C1_2 
REMARK    2  A    between atoms: C4_5  and  C5_6 
REMARK    3  A    between atoms: C5_6  and  C6_7 
REMARK    4  A    between atoms: C13_16  and  N2_17 
REMARK    5  A    between atoms: N2_17  and  P1_18 
ROOT
HETATM    1  C6  UNL     1      23.909   0.130  53.087  1.00  0.00     0.051 C 
HETATM    2  C7  UNL     1      23.897  -0.431  54.287  1.00  0.00     0.035 C 
HETATM    3  C8  UNL     1      22.674  -1.016  54.830  1.00  0.00     0.032 C 
HETATM    4  C9  UNL     1      21.625  -0.945  54.031  1.00  0.00     0.064 C 
HETATM    5  N1  UNL     1      20.257  -1.350  54.119  1.00  0.00    -0.267 N 
HETATM    6  O2  UNL     1      19.423  -0.513  53.397  1.00  0.00    -0.266 OA
HETATM    7  C10 UNL     1      20.292   0.281  52.619  1.00  0.00     0.123 C 
HETATM    8  C11 UNL     1      20.417   1.682  53.123  1.00  0.00     0.046 C 
HETATM    9  C12 UNL     1      20.173   2.590  51.912  1.00  0.00     0.030 C 
HETATM   10  C13 UNL     1      19.076   1.782  51.220  1.00  0.00     0.110 C 
HETATM   11  C14 UNL     1      19.647   0.398  51.253  1.00  0.00     0.071 C 
HETATM   12  C15 UNL     1      21.578  -0.466  52.591  1.00  0.00     0.217 C 
HETATM   13  O3  UNL     1      22.751   0.187  52.323  1.00  0.00    -0.341 OA
HETATM   14  H8  UNL     1      19.889  -2.170  54.666  1.00  0.00     0.194 HD
ENDROOT
BRANCH   1  15
HETATM   15  C5  UNL     1      25.172   0.709  52.557  1.00  0.00     0.103 C 
BRANCH  15  16
HETATM   16  C4  UNL     1      26.322  -0.201  52.800  1.00  0.00    -0.052 A 
HETATM   17  C3  UNL     1      27.437   0.270  53.495  1.00  0.00     0.010 A 
HETATM   18  C2  UNL     1      28.475  -0.619  53.692  1.00  0.00     0.037 A 
HETATM   19  C1  UNL     1      28.476  -1.941  53.245  1.00  0.00     0.065 A 
HETATM   20  C17 UNL     1      27.361  -2.385  52.558  1.00  0.00     0.037 A 
HETATM   21  C16 UNL     1      26.323  -1.506  52.358  1.00  0.00     0.010 A 
BRANCH  19  22
HETATM   22  O1  UNL     1      29.529  -2.801  53.458  1.00  0.00    -0.361 OA
HETATM   23  H1  UNL     1      29.402  -3.771  53.737  1.00  0.00     0.217 HD
ENDBRANCH  19  22
ENDBRANCH  15  16
ENDBRANCH   1  15
BRANCH  10  24
HETATM   24  N2  UNL     1      18.801   2.269  49.907  1.00  0.00    -0.293 NA
BRANCH  24  25
HETATM   25  P1  UNL     1      20.047   2.606  48.935  1.00  0.00     0.040 P 
HETATM   26  H14 UNL     1      21.097   1.639  48.663  1.00  0.00     0.088 HD
ENDBRANCH  24  25
ENDBRANCH  10  24
TORSDOF 5
ENDMDL
MODEL 7
REMARK VINA RESULT:      -7.5      3.384      6.479
REMARK  5 active torsions:
REMARK  status: ('A' for Active; 'I' for Inactive)
REMARK    1  A    between atoms: O1_1  and  C1_2 
REMARK    2  A    between atoms: C4_5  and  C5_6 
REMARK    3  A    between atoms: C5_6  and  C6_7 
REMARK    4  A    between atoms: C13_16  and  N2_17 
REMARK    5  A    between atoms: N2_17  and  P1_18 
ROOT
HETATM    1  C6  UNL     1      25.142   0.668  52.630  1.00  0.00     0.051 C 
HETATM    2  C7  UNL     1      26.335   0.692  52.058  1.00  0.00     0.035 C 
HETATM    3  C8  UNL     1      26.792   1.869  51.323  1.00  0.00     0.032 C 
HETATM    4  C9  UNL     1      25.936   2.873  51.300  1.00  0.00     0.064 C 
HETATM    5  N1  UNL     1      25.924   4.180  50.721  1.00  0.00    -0.267 N 
HETATM    6  O2  UNL     1      24.644   4.584  50.382  1.00  0.00    -0.266 OA
HETATM    7  C10 UNL     1      23.792   3.639  50.994  1.00  0.00     0.123 C 
HETATM    8  C11 UNL     1      23.194   2.673  50.025  1.00  0.00     0.046 C 
HETATM    9  C12 UNL     1      21.686   2.675  50.302  1.00  0.00     0.030 C 
HETATM   10  C13 UNL     1      21.497   4.161  50.607  1.00  0.00     0.110 C 
HETATM   11  C14 UNL     1      22.625   4.424  51.556  1.00  0.00     0.071 C 
HETATM   12  C15 UNL     1      24.621   2.997  52.050  1.00  0.00     0.217 C 
HETATM   13  O3  UNL     1      24.289   1.760  52.532  1.00  0.00    -0.341 OA
HETATM   14  H8  UNL     1      26.766   4.786  50.545  1.00  0.00     0.194 HD
ENDROOT
BRANCH   1  15
HETATM   15  C5  UNL     1      24.707  -0.542  53.379  1.00  0.00     0.103 C 
BRANCH  15  16
HETATM   16  C4  UNL     1      23.226  -0.593  53.498  1.00  0.00    -0.052 A 
HETATM   17  C3  UNL     1      22.647  -1.037  54.688  1.00  0.00     0.010 A 
HETATM   18  C2  UNL     1      21.267  -1.063  54.743  1.00  0.00     0.037 A 
HETATM   19  C1  UNL     1      20.430  -0.679  53.695  1.00  0.00     0.065 A 
HETATM   20  C17 UNL     1      21.026  -0.243  52.526  1.00  0.00     0.037 A 
HETATM   21  C16 UNL     1      22.399  -0.213  52.464  1.00  0.00     0.010 A 
BRANCH  19  22
HETATM   22  O1  UNL     1      19.057  -0.719  53.783  1.00  0.00    -0.361 OA
HETATM   23  H1  UNL     1      18.538  -1.578  53.948  1.00  0.00     0.217 HD
ENDBRANCH  19  22
ENDBRANCH  15  16
ENDBRANCH   1  15
BRANCH  10  24
HETATM   24  N2  UNL     1      20.204   4.436  51.144  1.00  0.00    -0.293 NA
BRANCH  24  25
HETATM   25  P1  UNL     1      19.263   3.190  51.558  1.00  0.00     0.040 P 
HETATM   26  H14 UNL     1      17.981   3.376  52.218  1.00  0.00     0.088 HD
ENDBRANCH  24  25
ENDBRANCH  10  24
TORSDOF 5
ENDMDL
MODEL 8
REMARK VINA RESULT:      -7.5      3.374      6.107
REMARK  5 active torsions:
REMARK  status: ('A' for Active; 'I' for Inactive)
REMARK    1  A    between atoms: O1_1  and  C1_2 
REMARK    2  A    between atoms: C4_5  and  C5_6 
REMARK    3  A    between atoms: C5_6  and  C6_7 
REMARK    4  A    between atoms: C13_16  and  N2_17 
REMARK    5  A    between atoms: N2_17  and  P1_18 
ROOT
HETATM    1  C6  UNL     1      24.628   0.403  53.108  1.00  0.00     0.051 C 
HETATM    2  C7  UNL     1      25.762  -0.083  52.628  1.00  0.00     0.035 C 
HETATM    3  C8  UNL     1      26.680   0.763  51.869  1.00  0.00     0.032 C 
HETATM    4  C9  UNL     1      26.288   2.016  51.725  1.00  0.00     0.064 C 
HETATM    5  N1  UNL     1      26.818   3.174  51.078  1.00  0.00    -0.267 N 
HETATM    6  O2  UNL     1      25.817   4.014  50.620  1.00  0.00    -0.266 OA
HETATM    7  C10 UNL     1      24.634   3.525  51.215  1.00  0.00     0.123 C 
HETATM    8  C11 UNL     1      23.754   2.792  50.256  1.00  0.00     0.046 C 
HETATM    9  C12 UNL     1      22.356   3.401  50.416  1.00  0.00     0.030 C 
HETATM   10  C13 UNL     1      22.750   4.863  50.625  1.00  0.00     0.110 C 
HETATM   11  C14 UNL     1      23.842   4.743  51.642  1.00  0.00     0.071 C 
HETATM   12  C15 UNL     1      25.092   2.699  52.365  1.00  0.00     0.217 C 
HETATM   13  O3  UNL     1      24.278   1.729  52.885  1.00  0.00    -0.341 OA
HETATM   14  H8  UNL     1      27.838   3.390  50.935  1.00  0.00     0.194 HD
ENDROOT
BRANCH   1  15
HETATM   15  C5  UNL     1      23.717  -0.479  53.885  1.00  0.00     0.103 C 
BRANCH  15  16
HETATM   16  C4  UNL     1      22.312  -0.336  53.423  1.00  0.00    -0.052 A 
HETATM   17  C3  UNL     1      21.266  -0.568  54.319  1.00  0.00     0.010 A 
HETATM   18  C2  UNL     1      19.981  -0.420  53.836  1.00  0.00     0.037 A 
HETATM   19  C1  UNL     1      19.669  -0.059  52.525  1.00  0.00     0.065 A 
HETATM   20  C17 UNL     1      20.720   0.166  51.655  1.00  0.00     0.037 A 
HETATM   21  C16 UNL     1      22.003   0.021  52.129  1.00  0.00     0.010 A 
BRANCH  19  22
HETATM   22  O1  UNL     1      18.376   0.079  52.076  1.00  0.00    -0.361 OA
HETATM   23  H1  UNL     1      17.960  -0.545  51.389  1.00  0.00     0.217 HD
ENDBRANCH  19  22
ENDBRANCH  15  16
ENDBRANCH   1  15
BRANCH  10  24
HETATM   24  N2  UNL     1      21.643   5.659  51.045  1.00  0.00    -0.293 NA
BRANCH  24  25
HETATM   25  P1  UNL     1      21.554   7.187  50.524  1.00  0.00     0.040 P 
HETATM   26  H14 UNL     1      21.398   7.515  49.117  1.00  0.00     0.088 HD
ENDBRANCH  24  25
ENDBRANCH  10  24
TORSDOF 5
ENDMDL
MODEL 9
REMARK VINA RESULT:      -7.4      2.265      4.963
REMARK  5 active torsions:
REMARK  status: ('A' for Active; 'I' for Inactive)
REMARK    1  A    between atoms: O1_1  and  C1_2 
REMARK    2  A    between atoms: C4_5  and  C5_6 
REMARK    3  A    between atoms: C5_6  and  C6_7 
REMARK    4  A    between atoms: C13_16  and  N2_17 
REMARK    5  A    between atoms: N2_17  and  P1_18 
ROOT
HETATM    1  C6  UNL     1      22.751   2.689  51.320  1.00  0.00     0.051 C 
HETATM    2  C7  UNL     1      22.863   3.970  51.001  1.00  0.00     0.035 C 
HETATM    3  C8  UNL     1      24.167   4.558  50.705  1.00  0.00     0.032 C 
HETATM    4  C9  UNL     1      25.182   3.716  50.772  1.00  0.00     0.064 C 
HETATM    5  N1  UNL     1      26.596   3.818  50.587  1.00  0.00    -0.267 N 
HETATM    6  O2  UNL     1      27.287   2.921  51.383  1.00  0.00    -0.266 OA
HETATM    7  C10 UNL     1      26.299   2.048  51.888  1.00  0.00     0.123 C 
HETATM    8  C11 UNL     1      25.979   2.293  53.326  1.00  0.00     0.046 C 
HETATM    9  C12 UNL     1      26.069   0.927  54.017  1.00  0.00     0.030 C 
HETATM   10  C13 UNL     1      27.261   0.348  53.257  1.00  0.00     0.110 C 
HETATM   11  C14 UNL     1      26.899   0.658  51.837  1.00  0.00     0.071 C 
HETATM   12  C15 UNL     1      25.135   2.211  50.975  1.00  0.00     0.217 C 
HETATM   13  O3  UNL     1      23.876   1.879  51.396  1.00  0.00    -0.341 OA
HETATM   14  H8  UNL     1      27.088   4.489  49.943  1.00  0.00     0.194 HD
ENDROOT
BRANCH   1  15
HETATM   15  C5  UNL     1      21.409   2.116  51.607  1.00  0.00     0.103 C 
BRANCH  15  16
HETATM   16  C4  UNL     1      21.507   0.974  52.553  1.00  0.00    -0.052 A 
HETATM   17  C3  UNL     1      22.189  -0.182  52.169  1.00  0.00     0.010 A 
HETATM   18  C2  UNL     1      22.249  -1.211  53.088  1.00  0.00     0.037 A 
HETATM   19  C1  UNL     1      21.676  -1.166  54.359  1.00  0.00     0.065 A 
HETATM   20  C17 UNL     1      21.004  -0.012  54.718  1.00  0.00     0.037 A 
HETATM   21  C16 UNL     1      20.940   1.018  53.809  1.00  0.00     0.010 A 
BRANCH  19  22
HETATM   22  O1  UNL     1      21.753  -2.211  55.250  1.00  0.00    -0.361 OA
HETATM   23  H1  UNL     1      20.975  -2.492  55.842  1.00  0.00     0.217 HD
ENDBRANCH  19  22
ENDBRANCH  15  16
ENDBRANCH   1  15
BRANCH  10  24
HETATM   24  N2  UNL     1      27.442  -1.042  53.524  1.00  0.00    -0.293 NA
BRANCH  24  25
HETATM   25  P1  UNL     1      28.889  -1.699  53.231  1.00  0.00     0.040 P 
HETATM   26  H14 UNL     1      29.052  -3.116  52.953  1.00  0.00     0.088 HD
ENDBRANCH  24  25
ENDBRANCH  10  24
TORSDOF 5
ENDMDL
