MODEL 1
REMARK VINA RESULT:      -7.7      0.000      0.000
REMARK  5 active torsions:
REMARK  status: ('A' for Active; 'I' for Inactive)
REMARK    1  A    between atoms: C2_2  and  O1_3 
REMARK    2  A    between atoms: O1_3  and  C3_4 
REMARK    3  A    between atoms: C3_4  and  N1_6 
REMARK    4  A    between atoms: N1_6  and  C5_7 
REMARK    5  A    between atoms: C11_13  and  N2_14 
ROOT
HETATM    1  C5  UNL     1      24.341  -0.220  53.105  1.00  0.00     0.030 A 
HETATM    2  C6  UNL     1      24.450   0.745  52.126  1.00  0.00     0.031 A 
HETATM    3  C7  UNL     1      23.344   1.476  51.704  1.00  0.00     0.034 A 
HETATM    4  C8  UNL     1      22.110   1.227  52.283  1.00  0.00     0.067 A 
HETATM    5  C9  UNL     1      21.950   0.273  53.266  1.00  0.00     0.010 A 
HETATM    6  C10 UNL     1      23.085  -0.420  53.641  1.00  0.00     0.041 A 
HETATM    7  C11 UNL     1      20.883  -0.288  54.106  1.00  0.00     0.288 C 
HETATM    8  C12 UNL     1      19.613  -0.510  53.389  1.00  0.00     0.007 A 
HETATM    9  C13 UNL     1      19.119  -1.742  53.834  1.00  0.00     0.012 A 
HETATM   10  C14 UNL     1      17.959  -2.351  53.435  1.00  0.00     0.002 A 
HETATM   11  C15 UNL     1      17.199  -1.691  52.503  1.00  0.00     0.021 A 
HETATM   12  C16 UNL     1      17.603  -0.463  51.999  1.00  0.00     0.038 A 
HETATM   13 BR1  UNL     1      16.550   0.473  50.696  1.00  0.00    -0.049 Br
HETATM   14  C17 UNL     1      18.784   0.079  52.454  1.00  0.00     0.059 A 
HETATM   15  N3  UNL     1      18.879   1.319  51.734  1.00  0.00    -0.349 N 
HETATM   16  C18 UNL     1      19.971   2.174  51.403  1.00  0.00     0.208 C 
HETATM   17  N4  UNL     1      21.246   2.142  51.618  1.00  0.00    -0.244 NA
HETATM   18  H18 UNL     1      17.973   1.674  51.378  1.00  0.00     0.166 HD
ENDROOT
BRANCH   1  19
HETATM   19  N1  UNL     1      25.461  -0.977  53.547  1.00  0.00    -0.364 N 
HETATM   20  H8  UNL     1      25.316  -1.979  53.789  1.00  0.00     0.162 HD
BRANCH  19  21
HETATM   21  C3  UNL     1      26.760  -0.341  53.649  1.00  0.00     0.222 C 
HETATM   22  C4  UNL     1      26.863   0.352  54.965  1.00  0.00     0.063 C 
BRANCH  21  23
HETATM   23  O1  UNL     1      27.836  -1.242  53.446  1.00  0.00    -0.339 OA
BRANCH  23  24
HETATM   24  C2  UNL     1      29.120  -0.917  53.887  1.00  0.00     0.127 C 
HETATM   25  C1  UNL     1      30.154  -0.205  53.450  1.00  0.00     0.037 C 
ENDBRANCH  23  24
ENDBRANCH  21  23
ENDBRANCH  19  21
ENDBRANCH   1  19
BRANCH   7  26
HETATM   26  N2  UNL     1      20.618   0.495  55.307  1.00  0.00     0.091 N 
HETATM   27  H13 UNL     1      20.553  -0.094  56.160  1.00  0.00     0.314 HD
HETATM   28  H14 UNL     1      21.325   1.260  55.402  1.00  0.00     0.314 HD
ENDBRANCH   7  26
TORSDOF 5
ENDMDL
MODEL 2
REMARK VINA RESULT:      -7.7      3.355      4.068
REMARK  5 active torsions:
REMARK  status: ('A' for Active; 'I' for Inactive)
REMARK    1  A    between atoms: C2_2  and  O1_3 
REMARK    2  A    between atoms: O1_3  and  C3_4 
REMARK    3  A    between atoms: C3_4  and  N1_6 
REMARK    4  A    between atoms: N1_6  and  C5_7 
REMARK    5  A    between atoms: C11_13  and  N2_14 
ROOT
HETATM    1  C5  UNL     1      26.162   2.089  53.332  1.00  0.00     0.030 A 
HETATM    2  C6  UNL     1      26.862   1.989  52.148  1.00  0.00     0.031 A 
HETATM    3  C7  UNL     1      26.335   2.467  50.953  1.00  0.00     0.034 A 
HETATM    4  C8  UNL     1      25.082   3.056  50.956  1.00  0.00     0.067 A 
HETATM    5  C9  UNL     1      24.342   3.180  52.113  1.00  0.00     0.010 A 
HETATM    6  C10 UNL     1      24.918   2.685  53.268  1.00  0.00     0.041 A 
HETATM    7  C11 UNL     1      23.041   3.706  52.550  1.00  0.00     0.288 C 
HETATM    8  C12 UNL     1      21.934   3.402  51.625  1.00  0.00     0.007 A 
HETATM    9  C13 UNL     1      20.837   3.056  52.424  1.00  0.00     0.012 A 
HETATM   10  C14 UNL     1      19.589   2.697  51.989  1.00  0.00     0.002 A 
HETATM   11  C15 UNL     1      19.386   2.672  50.631  1.00  0.00     0.021 A 
HETATM   12  C16 UNL     1      20.411   2.999  49.755  1.00  0.00     0.038 A 
HETATM   13 BR1  UNL     1      20.144   2.968  47.855  1.00  0.00    -0.049 Br
HETATM   14  C17 UNL     1      21.637   3.348  50.276  1.00  0.00     0.059 A 
HETATM   15  N3  UNL     1      22.430   3.614  49.108  1.00  0.00    -0.349 N 
HETATM   16  C18 UNL     1      23.836   3.633  48.868  1.00  0.00     0.208 C 
HETATM   17  N4  UNL     1      24.884   3.414  49.593  1.00  0.00    -0.244 NA
HETATM   18  H18 UNL     1      21.878   3.839  48.262  1.00  0.00     0.166 HD
ENDROOT
BRANCH   1  19
HETATM   19  N1  UNL     1      26.685   1.605  54.562  1.00  0.00    -0.364 N 
HETATM   20  H8  UNL     1      27.215   2.264  55.168  1.00  0.00     0.162 HD
BRANCH  19  21
HETATM   21  C3  UNL     1      26.468   0.220  54.937  1.00  0.00     0.222 C 
HETATM   22  C4  UNL     1      25.458  -0.381  54.020  1.00  0.00     0.063 C 
BRANCH  21  23
HETATM   23  O1  UNL     1      27.665  -0.540  54.969  1.00  0.00    -0.339 OA
BRANCH  23  24
HETATM   24  C2  UNL     1      28.872   0.027  54.557  1.00  0.00     0.127 C 
HETATM   25  C1  UNL     1      29.778  -0.180  53.607  1.00  0.00     0.037 C 
ENDBRANCH  23  24
ENDBRANCH  21  23
ENDBRANCH  19  21
ENDBRANCH   1  19
BRANCH   7  26
HETATM   26  N2  UNL     1      23.055   5.140  52.816  1.00  0.00     0.091 N 
HETATM   27  H13 UNL     1      23.844   5.624  52.345  1.00  0.00     0.314 HD
HETATM   28  H14 UNL     1      22.128   5.561  52.577  1.00  0.00     0.314 HD
ENDBRANCH   7  26
TORSDOF 5
ENDMDL
MODEL 3
REMARK VINA RESULT:      -7.2      2.681      4.630
REMARK  5 active torsions:
REMARK  status: ('A' for Active; 'I' for Inactive)
REMARK    1  A    between atoms: C2_2  and  O1_3 
REMARK    2  A    between atoms: O1_3  and  C3_4 
REMARK    3  A    between atoms: C3_4  and  N1_6 
REMARK    4  A    between atoms: N1_6  and  C5_7 
REMARK    5  A    between atoms: C11_13  and  N2_14 
ROOT
HETATM    1  C5  UNL     1      26.069   0.840  53.881  1.00  0.00     0.030 A 
HETATM    2  C6  UNL     1      25.213  -0.210  54.145  1.00  0.00     0.031 A 
HETATM    3  C7  UNL     1      23.989  -0.327  53.496  1.00  0.00     0.034 A 
HETATM    4  C8  UNL     1      23.626   0.632  52.564  1.00  0.00     0.067 A 
HETATM    5  C9  UNL     1      24.446   1.699  52.264  1.00  0.00     0.010 A 
HETATM    6  C10 UNL     1      25.648   1.761  52.944  1.00  0.00     0.041 A 
HETATM    7  C11 UNL     1      24.457   2.882  51.393  1.00  0.00     0.288 C 
HETATM    8  C12 UNL     1      23.163   3.587  51.327  1.00  0.00     0.007 A 
HETATM    9  C13 UNL     1      23.458   4.956  51.360  1.00  0.00     0.012 A 
HETATM   10  C14 UNL     1      22.558   5.987  51.321  1.00  0.00     0.002 A 
HETATM   11  C15 UNL     1      21.229   5.652  51.243  1.00  0.00     0.021 A 
HETATM   12  C16 UNL     1      20.835   4.322  51.204  1.00  0.00     0.038 A 
HETATM   13 BR1  UNL     1      18.982   3.837  51.094  1.00  0.00    -0.049 Br
HETATM   14  C17 UNL     1      21.805   3.346  51.248  1.00  0.00     0.059 A 
HETATM   15  N3  UNL     1      21.049   2.125  51.191  1.00  0.00    -0.349 N 
HETATM   16  C18 UNL     1      21.334   0.783  51.579  1.00  0.00     0.208 C 
HETATM   17  N4  UNL     1      22.348   0.190  52.120  1.00  0.00    -0.244 NA
HETATM   18  H18 UNL     1      20.102   2.230  50.786  1.00  0.00     0.166 HD
ENDROOT
BRANCH   1  19
HETATM   19  N1  UNL     1      27.323   0.975  54.538  1.00  0.00    -0.364 N 
HETATM   20  H8  UNL     1      27.339   0.977  55.578  1.00  0.00     0.162 HD
BRANCH  19  21
HETATM   21  C3  UNL     1      28.533   1.107  53.749  1.00  0.00     0.222 C 
HETATM   22  C4  UNL     1      28.925   2.544  53.693  1.00  0.00     0.063 C 
BRANCH  21  23
HETATM   23  O1  UNL     1      29.594   0.293  54.220  1.00  0.00    -0.339 OA
BRANCH  23  24
HETATM   24  C2  UNL     1      29.647  -1.061  53.884  1.00  0.00     0.127 C 
HETATM   25  C1  UNL     1      28.966  -1.908  53.119  1.00  0.00     0.037 C 
ENDBRANCH  23  24
ENDBRANCH  21  23
ENDBRANCH  19  21
ENDBRANCH   1  19
BRANCH   7  26
HETATM   26  N2  UNL     1      24.911   2.599  50.036  1.00  0.00     0.091 N 
HETATM   27  H13 UNL     1      24.123   2.476  49.370  1.00  0.00     0.314 HD
HETATM   28  H14 UNL     1      25.588   3.331  49.722  1.00  0.00     0.314 HD
ENDBRANCH   7  26
TORSDOF 5
ENDMDL
MODEL 4
REMARK VINA RESULT:      -7.2      4.246      4.932
REMARK  5 active torsions:
REMARK  status: ('A' for Active; 'I' for Inactive)
REMARK    1  A    between atoms: C2_2  and  O1_3 
REMARK    2  A    between atoms: O1_3  and  C3_4 
REMARK    3  A    between atoms: C3_4  and  N1_6 
REMARK    4  A    between atoms: N1_6  and  C5_7 
REMARK    5  A    between atoms: C11_13  and  N2_14 
ROOT
HETATM    1  C5  UNL     1      25.958   1.672  52.141  1.00  0.00     0.030 A 
HETATM    2  C6  UNL     1      26.707   1.977  51.023  1.00  0.00     0.031 A 
HETATM    3  C7  UNL     1      26.360   3.033  50.187  1.00  0.00     0.034 A 
HETATM    4  C8  UNL     1      25.241   3.792  50.486  1.00  0.00     0.067 A 
HETATM    5  C9  UNL     1      24.460   3.527  51.592  1.00  0.00     0.010 A 
HETATM    6  C10 UNL     1      24.855   2.466  52.384  1.00  0.00     0.041 A 
HETATM    7  C11 UNL     1      23.254   4.047  52.251  1.00  0.00     0.288 C 
HETATM    8  C12 UNL     1      22.174   4.414  51.316  1.00  0.00     0.007 A 
HETATM    9  C13 UNL     1      20.981   3.970  51.898  1.00  0.00     0.012 A 
HETATM   10  C14 UNL     1      19.720   4.097  51.378  1.00  0.00     0.002 A 
HETATM   11  C15 UNL     1      19.609   4.722  50.161  1.00  0.00     0.021 A 
HETATM   12  C16 UNL     1      20.734   5.198  49.503  1.00  0.00     0.038 A 
HETATM   13 BR1  UNL     1      20.595   6.075  47.802  1.00  0.00    -0.049 Br
HETATM   14  C17 UNL     1      21.965   5.029  50.096  1.00  0.00     0.059 A 
HETATM   15  N3  UNL     1      22.871   5.627  49.155  1.00  0.00    -0.349 N 
HETATM   16  C18 UNL     1      24.268   5.475  48.915  1.00  0.00     0.208 C 
HETATM   17  N4  UNL     1      25.206   4.753  49.437  1.00  0.00    -0.244 NA
HETATM   18  H18 UNL     1      22.429   6.312  48.516  1.00  0.00     0.166 HD
ENDROOT
BRANCH   1  19
HETATM   19  N1  UNL     1      26.297   0.596  53.006  1.00  0.00    -0.364 N 
HETATM   20  H8  UNL     1      26.335  -0.365  52.609  1.00  0.00     0.162 HD
BRANCH  19  21
HETATM   21  C3  UNL     1      26.578   0.862  54.404  1.00  0.00     0.222 C 
HETATM   22  C4  UNL     1      26.002  -0.234  55.235  1.00  0.00     0.063 C 
BRANCH  21  23
HETATM   23  O1  UNL     1      27.959   1.048  54.668  1.00  0.00    -0.339 OA
BRANCH  23  24
HETATM   24  C2  UNL     1      28.847  -0.024  54.564  1.00  0.00     0.127 C 
HETATM   25  C1  UNL     1      29.709  -0.499  53.672  1.00  0.00     0.037 C 
ENDBRANCH  23  24
ENDBRANCH  21  23
ENDBRANCH  19  21
ENDBRANCH   1  19
BRANCH   7  26
HETATM   26  N2  UNL     1      23.517   5.175  53.136  1.00  0.00     0.091 N 
HETATM   27  H13 UNL     1      23.559   4.895  54.136  1.00  0.00     0.314 HD
HETATM   28  H14 UNL     1      24.377   5.684  52.827  1.00  0.00     0.314 HD
ENDBRANCH   7  26
TORSDOF 5
ENDMDL
MODEL 5
REMARK VINA RESULT:      -7.1      1.567      3.607
REMARK  5 active torsions:
REMARK  status: ('A' for Active; 'I' for Inactive)
REMARK    1  A    between atoms: C2_2  and  O1_3 
REMARK    2  A    between atoms: O1_3  and  C3_4 
REMARK    3  A    between atoms: C3_4  and  N1_6 
REMARK    4  A    between atoms: N1_6  and  C5_7 
REMARK    5  A    between atoms: C11_13  and  N2_14 
ROOT
HETATM    1  C5  UNL     1      23.973   0.220  53.334  1.00  0.00     0.030 A 
HETATM    2  C6  UNL     1      23.186  -0.629  54.084  1.00  0.00     0.031 A 
HETATM    3  C7  UNL     1      21.833  -0.795  53.807  1.00  0.00     0.034 A 
HETATM    4  C8  UNL     1      21.268  -0.093  52.755  1.00  0.00     0.067 A 
HETATM    5  C9  UNL     1      22.013   0.768  51.975  1.00  0.00     0.010 A 
HETATM    6  C10 UNL     1      23.350   0.891  52.301  1.00  0.00     0.041 A 
HETATM    7  C11 UNL     1      21.832   1.664  50.825  1.00  0.00     0.288 C 
HETATM    8  C12 UNL     1      20.585   2.449  50.871  1.00  0.00     0.007 A 
HETATM    9  C13 UNL     1      20.915   3.740  50.440  1.00  0.00     0.012 A 
HETATM   10  C14 UNL     1      20.065   4.807  50.323  1.00  0.00     0.002 A 
HETATM   11  C15 UNL     1      18.752   4.596  50.664  1.00  0.00     0.021 A 
HETATM   12  C16 UNL     1      18.324   3.351  51.103  1.00  0.00     0.038 A 
HETATM   13 BR1  UNL     1      16.493   3.041  51.583  1.00  0.00    -0.049 Br
HETATM   14  C17 UNL     1      19.246   2.332  51.192  1.00  0.00     0.059 A 
HETATM   15  N3  UNL     1      18.468   1.222  51.669  1.00  0.00    -0.349 N 
HETATM   16  C18 UNL     1      18.805   0.014  52.345  1.00  0.00     0.208 C 
HETATM   17  N4  UNL     1      19.908  -0.509  52.775  1.00  0.00    -0.244 NA
HETATM   18  H18 UNL     1      17.451   1.307  51.489  1.00  0.00     0.166 HD
ENDROOT
BRANCH   1  19
HETATM   19  N1  UNL     1      25.357   0.402  53.604  1.00  0.00    -0.364 N 
HETATM   20  H8  UNL     1      25.711   1.372  53.740  1.00  0.00     0.162 HD
BRANCH  19  21
HETATM   21  C3  UNL     1      26.230  -0.753  53.683  1.00  0.00     0.222 C 
HETATM   22  C4  UNL     1      26.568  -1.204  52.303  1.00  0.00     0.063 C 
BRANCH  21  23
HETATM   23  O1  UNL     1      27.394  -0.518  54.456  1.00  0.00    -0.339 OA
BRANCH  23  24
HETATM   24  C2  UNL     1      28.629  -0.327  53.833  1.00  0.00     0.127 C 
HETATM   25  C1  UNL     1      29.824  -0.907  53.829  1.00  0.00     0.037 C 
ENDBRANCH  23  24
ENDBRANCH  21  23
ENDBRANCH  19  21
ENDBRANCH   1  19
BRANCH   7  26
HETATM   26  N2  UNL     1      21.913   0.981  49.539  1.00  0.00     0.091 N 
HETATM   27  H13 UNL     1      22.175   1.622  48.764  1.00  0.00     0.314 HD
HETATM   28  H14 UNL     1      22.553   0.156  49.608  1.00  0.00     0.314 HD
ENDBRANCH   7  26
TORSDOF 5
ENDMDL
MODEL 6
REMARK VINA RESULT:      -7.0     10.351     12.926
REMARK  5 active torsions:
REMARK  status: ('A' for Active; 'I' for Inactive)
REMARK    1  A    between atoms: C2_2  and  O1_3 
REMARK    2  A    between atoms: O1_3  and  C3_4 
REMARK    3  A    between atoms: C3_4  and  N1_6 
REMARK    4  A    between atoms: N1_6  and  C5_7 
REMARK    5  A    between atoms: C11_13  and  N2_14 
ROOT
HETATM    1  C5  UNL     1      33.427   7.060  45.871  1.00  0.00     0.030 A 
HETATM    2  C6  UNL     1      33.409   8.420  45.641  1.00  0.00     0.031 A 
HETATM    3  C7  UNL     1      32.537   9.258  46.327  1.00  0.00     0.034 A 
HETATM    4  C8  UNL     1      31.670   8.713  47.260  1.00  0.00     0.067 A 
HETATM    5  C9  UNL     1      31.650   7.359  47.526  1.00  0.00     0.010 A 
HETATM    6  C10 UNL     1      32.539   6.579  46.812  1.00  0.00     0.041 A 
HETATM    7  C11 UNL     1      30.935   6.407  48.386  1.00  0.00     0.288 C 
HETATM    8  C12 UNL     1      29.485   6.661  48.482  1.00  0.00     0.007 A 
HETATM    9  C13 UNL     1      28.861   5.409  48.428  1.00  0.00     0.012 A 
HETATM   10  C14 UNL     1      27.515   5.162  48.483  1.00  0.00     0.002 A 
HETATM   11  C15 UNL     1      26.687   6.251  48.603  1.00  0.00     0.021 A 
HETATM   12  C16 UNL     1      27.209   7.535  48.665  1.00  0.00     0.038 A 
HETATM   13 BR1  UNL     1      26.066   9.067  48.833  1.00  0.00    -0.049 Br
HETATM   14  C17 UNL     1      28.576   7.694  48.602  1.00  0.00     0.059 A 
HETATM   15  N3  UNL     1      28.748   9.118  48.692  1.00  0.00    -0.349 N 
HETATM   16  C18 UNL     1      29.801   9.999  48.308  1.00  0.00     0.208 C 
HETATM   17  N4  UNL     1      30.955   9.843  47.744  1.00  0.00    -0.244 NA
HETATM   18  H18 UNL     1      27.949   9.616  49.123  1.00  0.00     0.166 HD
ENDROOT
BRANCH   1  19
HETATM   19  N1  UNL     1      34.311   6.188  45.178  1.00  0.00    -0.364 N 
HETATM   20  H8  UNL     1      35.247   6.550  44.902  1.00  0.00     0.162 HD
BRANCH  19  21
HETATM   21  C3  UNL     1      33.891   4.833  44.876  1.00  0.00     0.222 C 
HETATM   22  C4  UNL     1      33.349   4.788  43.489  1.00  0.00     0.063 C 
BRANCH  21  23
HETATM   23  O1  UNL     1      34.920   3.877  45.067  1.00  0.00    -0.339 OA
BRANCH  23  24
HETATM   24  C2  UNL     1      35.140   3.320  46.328  1.00  0.00     0.127 C 
HETATM   25  C1  UNL     1      34.652   3.454  47.557  1.00  0.00     0.037 C 
ENDBRANCH  23  24
ENDBRANCH  21  23
ENDBRANCH  19  21
ENDBRANCH   1  19
BRANCH   7  26
HETATM   26  N2  UNL     1      31.488   6.311  49.731  1.00  0.00     0.091 N 
HETATM   27  H13 UNL     1      32.521   6.422  49.746  1.00  0.00     0.314 HD
HETATM   28  H14 UNL     1      31.006   6.986  50.369  1.00  0.00     0.314 HD
ENDBRANCH   7  26
TORSDOF 5
ENDMDL
MODEL 7
REMARK VINA RESULT:      -7.0      3.449      5.718
REMARK  5 active torsions:
REMARK  status: ('A' for Active; 'I' for Inactive)
REMARK    1  A    between atoms: C2_2  and  O1_3 
REMARK    2  A    between atoms: O1_3  and  C3_4 
REMARK    3  A    between atoms: C3_4  and  N1_6 
REMARK    4  A    between atoms: N1_6  and  C5_7 
REMARK    5  A    between atoms: C11_13  and  N2_14 
ROOT
HETATM    1  C5  UNL     1      24.791   1.302  53.043  1.00  0.00     0.030 A 
HETATM    2  C6  UNL     1      23.619   0.588  52.906  1.00  0.00     0.031 A 
HETATM    3  C7  UNL     1      22.639   0.975  51.997  1.00  0.00     0.034 A 
HETATM    4  C8  UNL     1      22.850   2.099  51.216  1.00  0.00     0.067 A 
HETATM    5  C9  UNL     1      24.005   2.846  51.316  1.00  0.00     0.010 A 
HETATM    6  C10 UNL     1      24.940   2.412  52.237  1.00  0.00     0.041 A 
HETATM    7  C11 UNL     1      24.610   4.043  50.717  1.00  0.00     0.288 C 
HETATM    8  C12 UNL     1      23.661   5.153  50.513  1.00  0.00     0.007 A 
HETATM    9  C13 UNL     1      24.339   6.323  50.877  1.00  0.00     0.012 A 
HETATM   10  C14 UNL     1      23.842   7.599  50.849  1.00  0.00     0.002 A 
HETATM   11  C15 UNL     1      22.547   7.753  50.421  1.00  0.00     0.021 A 
HETATM   12  C16 UNL     1      21.791   6.654  50.038  1.00  0.00     0.038 A 
HETATM   13 BR1  UNL     1      19.979   6.854  49.438  1.00  0.00    -0.049 Br
HETATM   14  C17 UNL     1      22.367   5.405  50.098  1.00  0.00     0.059 A 
HETATM   15  N3  UNL     1      21.320   4.535  49.641  1.00  0.00    -0.349 N 
HETATM   16  C18 UNL     1      21.066   3.142  49.810  1.00  0.00     0.208 C 
HETATM   17  N4  UNL     1      21.666   2.179  50.429  1.00  0.00    -0.244 NA
HETATM   18  H18 UNL     1      20.595   5.005  49.069  1.00  0.00     0.166 HD
ENDROOT
BRANCH   1  19
HETATM   19  N1  UNL     1      25.803   0.921  53.968  1.00  0.00    -0.364 N 
HETATM   20  H8  UNL     1      26.066   1.594  54.717  1.00  0.00     0.162 HD
BRANCH  19  21
HETATM   21  C3  UNL     1      26.433  -0.379  53.845  1.00  0.00     0.222 C 
HETATM   22  C4  UNL     1      26.831  -0.596  52.425  1.00  0.00     0.063 C 
BRANCH  21  23
HETATM   23  O1  UNL     1      27.529  -0.550  54.728  1.00  0.00    -0.339 OA
BRANCH  23  24
HETATM   24  C2  UNL     1      28.769   0.018  54.431  1.00  0.00     0.127 C 
HETATM   25  C1  UNL     1      29.309   1.232  54.405  1.00  0.00     0.037 C 
ENDBRANCH  23  24
ENDBRANCH  21  23
ENDBRANCH  19  21
ENDBRANCH   1  19
BRANCH   7  26
HETATM   26  N2  UNL     1      25.303   3.777  49.461  1.00  0.00     0.091 N 
HETATM   27  H13 UNL     1      26.200   3.271  49.601  1.00  0.00     0.314 HD
HETATM   28  H14 UNL     1      24.665   3.282  48.795  1.00  0.00     0.314 HD
ENDBRANCH   7  26
TORSDOF 5
ENDMDL
MODEL 8
REMARK VINA RESULT:      -7.0      3.986      6.775
REMARK  5 active torsions:
REMARK  status: ('A' for Active; 'I' for Inactive)
REMARK    1  A    between atoms: C2_2  and  O1_3 
REMARK    2  A    between atoms: O1_3  and  C3_4 
REMARK    3  A    between atoms: C3_4  and  N1_6 
REMARK    4  A    between atoms: N1_6  and  C5_7 
REMARK    5  A    between atoms: C11_13  and  N2_14 
ROOT
HETATM    1  C5  UNL     1      21.388   1.170  52.137  1.00  0.00     0.030 A 
HETATM    2  C6  UNL     1      20.498   2.105  52.623  1.00  0.00     0.031 A 
HETATM    3  C7  UNL     1      20.459   3.399  52.113  1.00  0.00     0.034 A 
HETATM    4  C8  UNL     1      21.332   3.750  51.097  1.00  0.00     0.067 A 
HETATM    5  C9  UNL     1      22.239   2.851  50.577  1.00  0.00     0.010 A 
HETATM    6  C10 UNL     1      22.230   1.582  51.125  1.00  0.00     0.041 A 
HETATM    7  C11 UNL     1      23.292   2.800  49.553  1.00  0.00     0.288 C 
HETATM    8  C12 UNL     1      24.143   4.003  49.512  1.00  0.00     0.007 A 
HETATM    9  C13 UNL     1      25.456   3.551  49.328  1.00  0.00     0.012 A 
HETATM   10  C14 UNL     1      26.582   4.325  49.232  1.00  0.00     0.002 A 
HETATM   11  C15 UNL     1      26.413   5.684  49.325  1.00  0.00     0.021 A 
HETATM   12  C16 UNL     1      25.150   6.231  49.508  1.00  0.00     0.038 A 
HETATM   13 BR1  UNL     1      24.898   8.128  49.640  1.00  0.00    -0.049 Br
HETATM   14  C17 UNL     1      24.071   5.381  49.595  1.00  0.00     0.059 A 
HETATM   15  N3  UNL     1      22.960   6.273  49.779  1.00  0.00    -0.349 N 
HETATM   16  C18 UNL     1      21.652   6.104  50.320  1.00  0.00     0.208 C 
HETATM   17  N4  UNL     1      21.006   5.112  50.840  1.00  0.00    -0.244 NA
HETATM   18  H18 UNL     1      23.134   7.241  49.453  1.00  0.00     0.166 HD
ENDROOT
BRANCH   1  19
HETATM   19  N1  UNL     1      21.442  -0.157  52.648  1.00  0.00    -0.364 N 
HETATM   20  H8  UNL     1      20.823  -0.877  52.221  1.00  0.00     0.162 HD
BRANCH  19  21
HETATM   21  C3  UNL     1      22.347  -0.468  53.737  1.00  0.00     0.222 C 
HETATM   22  C4  UNL     1      21.706  -1.472  54.633  1.00  0.00     0.063 C 
BRANCH  21  23
HETATM   23  O1  UNL     1      23.622  -0.901  53.293  1.00  0.00    -0.339 OA
BRANCH  23  24
HETATM   24  C2  UNL     1      24.706  -0.020  53.294  1.00  0.00     0.127 C 
HETATM   25  C1  UNL     1      25.792   0.197  52.560  1.00  0.00     0.037 C 
ENDBRANCH  23  24
ENDBRANCH  21  23
ENDBRANCH  19  21
ENDBRANCH   1  19
BRANCH   7  26
HETATM   26  N2  UNL     1      22.784   2.534  48.212  1.00  0.00     0.091 N 
HETATM   27  H13 UNL     1      22.083   1.768  48.197  1.00  0.00     0.314 HD
HETATM   28  H14 UNL     1      22.422   3.416  47.781  1.00  0.00     0.314 HD
ENDBRANCH   7  26
TORSDOF 5
ENDMDL
MODEL 9
REMARK VINA RESULT:      -7.0      4.528      6.241
REMARK  5 active torsions:
REMARK  status: ('A' for Active; 'I' for Inactive)
REMARK    1  A    between atoms: C2_2  and  O1_3 
REMARK    2  A    between atoms: O1_3  and  C3_4 
REMARK    3  A    between atoms: C3_4  and  N1_6 
REMARK    4  A    between atoms: N1_6  and  C5_7 
REMARK    5  A    between atoms: C11_13  and  N2_14 
ROOT
HETATM    1  C5  UNL     1      25.075   4.639  49.324  1.00  0.00     0.030 A 
HETATM    2  C6  UNL     1      23.859   5.094  48.857  1.00  0.00     0.031 A 
HETATM    3  C7  UNL     1      22.678   4.835  49.543  1.00  0.00     0.034 A 
HETATM    4  C8  UNL     1      22.726   4.105  50.719  1.00  0.00     0.067 A 
HETATM    5  C9  UNL     1      23.916   3.628  51.227  1.00  0.00     0.010 A 
HETATM    6  C10 UNL     1      25.055   3.917  50.500  1.00  0.00     0.041 A 
HETATM    7  C11 UNL     1      24.402   2.853  52.377  1.00  0.00     0.288 C 
HETATM    8  C12 UNL     1      23.549   1.701  52.724  1.00  0.00     0.007 A 
HETATM    9  C13 UNL     1      24.418   0.646  53.031  1.00  0.00     0.012 A 
HETATM   10  C14 UNL     1      24.063  -0.622  53.408  1.00  0.00     0.002 A 
HETATM   11  C15 UNL     1      22.721  -0.893  53.495  1.00  0.00     0.021 A 
HETATM   12  C16 UNL     1      21.779   0.086  53.210  1.00  0.00     0.038 A 
HETATM   13 BR1  UNL     1      19.899  -0.277  53.328  1.00  0.00    -0.049 Br
HETATM   14  C17 UNL     1      22.221   1.336  52.837  1.00  0.00     0.059 A 
HETATM   15  N3  UNL     1      21.004   2.069  52.627  1.00  0.00    -0.349 N 
HETATM   16  C18 UNL     1      20.688   3.241  51.878  1.00  0.00     0.208 C 
HETATM   17  N4  UNL     1      21.364   4.046  51.125  1.00  0.00    -0.244 NA
HETATM   18  H18 UNL     1      20.180   1.675  53.116  1.00  0.00     0.166 HD
ENDROOT
BRANCH   1  19
HETATM   19  N1  UNL     1      26.292   4.893  48.634  1.00  0.00    -0.364 N 
HETATM   20  H8  UNL     1      26.692   4.136  48.042  1.00  0.00     0.162 HD
BRANCH  19  21
HETATM   21  C3  UNL     1      26.937   6.184  48.773  1.00  0.00     0.222 C 
HETATM   22  C4  UNL     1      28.360   6.068  48.343  1.00  0.00     0.063 C 
BRANCH  21  23
HETATM   23  O1  UNL     1      26.263   7.219  48.077  1.00  0.00    -0.339 OA
BRANCH  23  24
HETATM   24  C2  UNL     1      25.693   8.284  48.777  1.00  0.00     0.127 C 
HETATM   25  C1  UNL     1      25.201   8.507  49.992  1.00  0.00     0.037 C 
ENDBRANCH  23  24
ENDBRANCH  21  23
ENDBRANCH  19  21
ENDBRANCH   1  19
BRANCH   7  26
HETATM   26  N2  UNL     1      24.615   3.660  53.573  1.00  0.00     0.091 N 
HETATM   27  H13 UNL     1      23.902   3.480  54.307  1.00  0.00     0.314 HD
HETATM   28  H14 UNL     1      25.592   3.533  53.925  1.00  0.00     0.314 HD
ENDBRANCH   7  26
TORSDOF 5
ENDMDL
