MODEL 1
REMARK VINA RESULT:      -7.5      0.000      0.000
REMARK  3 active torsions:
REMARK  status: ('A' for Active; 'I' for Inactive)
REMARK    1  A    between atoms: C9_12  and  N4_13 
REMARK    2  A    between atoms: N4_13  and  C10_14 
REMARK    3  A    between atoms: C10_14  and  C11_15 
ROOT
HETATM    1  C1  UNL     1      17.960  -2.499  53.768  1.00  0.00     0.073 C 
HETATM    2  C2  UNL     1      18.329  -1.212  53.107  1.00  0.00     0.062 A 
HETATM    3  N1  UNL     1      17.485  -0.558  52.282  1.00  0.00    -0.244 NA
HETATM    4  C3  UNL     1      17.825   0.600  51.692  1.00  0.00     0.236 A 
HETATM    5  N2  UNL     1      19.038   1.155  51.904  1.00  0.00    -0.215 NA
HETATM    6  C4  UNL     1      19.941   0.551  52.725  1.00  0.00     0.200 A 
HETATM    7  C5  UNL     1      19.572  -0.640  53.324  1.00  0.00     0.106 A 
HETATM    8  N3  UNL     1      20.355  -1.429  54.208  1.00  0.00    -0.380 N 
HETATM    9  C6  UNL     1      21.512  -0.973  54.980  1.00  0.00     0.161 C 
HETATM   10  C7  UNL     1      22.525  -0.341  54.114  1.00  0.00    -0.004 A 
HETATM   11  C8  UNL     1      23.780  -0.868  54.345  1.00  0.00     0.044 A 
HETATM   12  C9  UNL     1      24.866  -0.405  53.632  1.00  0.00     0.067 A 
HETATM   13  C12 UNL     1      24.725   0.584  52.679  1.00  0.00     0.035 A 
HETATM   14  C13 UNL     1      23.467   1.127  52.431  1.00  0.00     0.040 A 
HETATM   15  C14 UNL     1      22.379   0.653  53.157  1.00  0.00     0.086 A 
HETATM   16  O2  UNL     1      21.153   1.262  52.838  1.00  0.00    -0.289 OA
HETATM   17  H5  UNL     1      20.061  -2.436  54.304  1.00  0.00     0.160 HD
ENDROOT
BRANCH  12  18
HETATM   18  N4  UNL     1      26.212  -0.846  53.757  1.00  0.00    -0.202 NA
BRANCH  18  19
HETATM   19  C10 UNL     1      27.137  -0.112  54.182  1.00  0.00     0.044 C 
BRANCH  19  20
HETATM   20  C11 UNL     1      28.101   0.719  54.431  1.00  0.00     0.295 C 
HETATM   21  O1  UNL     1      29.051   1.248  55.002  1.00  0.00    -0.272 OA
ENDBRANCH  19  20
ENDBRANCH  18  19
ENDBRANCH  12  18
TORSDOF 3
ENDMDL
MODEL 2
REMARK VINA RESULT:      -7.2      2.237      7.318
REMARK  3 active torsions:
REMARK  status: ('A' for Active; 'I' for Inactive)
REMARK    1  A    between atoms: C9_12  and  N4_13 
REMARK    2  A    between atoms: N4_13  and  C10_14 
REMARK    3  A    between atoms: C10_14  and  C11_15 
ROOT
HETATM    1  C1  UNL     1      26.435   1.963  50.974  1.00  0.00     0.073 C 
HETATM    2  C2  UNL     1      26.438   0.939  52.062  1.00  0.00     0.062 A 
HETATM    3  N1  UNL     1      27.549   0.255  52.404  1.00  0.00    -0.244 NA
HETATM    4  C3  UNL     1      27.543  -0.664  53.383  1.00  0.00     0.236 A 
HETATM    5  N2  UNL     1      26.411  -0.939  54.067  1.00  0.00    -0.215 NA
HETATM    6  C4  UNL     1      25.252  -0.288  53.777  1.00  0.00     0.200 A 
HETATM    7  C5  UNL     1      25.279   0.655  52.765  1.00  0.00     0.106 A 
HETATM    8  N3  UNL     1      24.190   1.443  52.304  1.00  0.00    -0.380 N 
HETATM    9  C6  UNL     1      22.956   1.728  53.039  1.00  0.00     0.161 C 
HETATM   10  C7  UNL     1      22.299   0.487  53.491  1.00  0.00    -0.004 A 
HETATM   11  C8  UNL     1      20.962   0.473  53.144  1.00  0.00     0.044 A 
HETATM   12  C9  UNL     1      20.172  -0.606  53.481  1.00  0.00     0.067 A 
HETATM   13  C12 UNL     1      20.693  -1.686  54.165  1.00  0.00     0.035 A 
HETATM   14  C13 UNL     1      22.039  -1.691  54.522  1.00  0.00     0.040 A 
HETATM   15  C14 UNL     1      22.826  -0.597  54.178  1.00  0.00     0.086 A 
HETATM   16  O2  UNL     1      24.168  -0.693  54.582  1.00  0.00    -0.289 OA
HETATM   17  H5  UNL     1      24.299   1.854  51.340  1.00  0.00     0.160 HD
ENDROOT
BRANCH  12  18
HETATM   18  N4  UNL     1      18.788  -0.765  53.195  1.00  0.00    -0.202 NA
BRANCH  18  19
HETATM   19  C10 UNL     1      18.151  -1.815  53.452  1.00  0.00     0.044 C 
BRANCH  19  20
HETATM   20  C11 UNL     1      17.415  -2.879  53.530  1.00  0.00     0.295 C 
HETATM   21  O1  UNL     1      17.069  -4.027  53.798  1.00  0.00    -0.272 OA
ENDBRANCH  19  20
ENDBRANCH  18  19
ENDBRANCH  12  18
TORSDOF 3
ENDMDL
MODEL 3
REMARK VINA RESULT:      -6.9      4.538      6.717
REMARK  3 active torsions:
REMARK  status: ('A' for Active; 'I' for Inactive)
REMARK    1  A    between atoms: C9_12  and  N4_13 
REMARK    2  A    between atoms: N4_13  and  C10_14 
REMARK    3  A    between atoms: C10_14  and  C11_15 
ROOT
HETATM    1  C1  UNL     1      26.088   7.957  50.297  1.00  0.00     0.073 C 
HETATM    2  C2  UNL     1      24.787   7.242  50.463  1.00  0.00     0.062 A 
HETATM    3  N1  UNL     1      23.619   7.898  50.617  1.00  0.00    -0.244 NA
HETATM    4  C3  UNL     1      22.454   7.247  50.765  1.00  0.00     0.236 A 
HETATM    5  N2  UNL     1      22.411   5.897  50.767  1.00  0.00    -0.215 NA
HETATM    6  C4  UNL     1      23.550   5.168  50.616  1.00  0.00     0.200 A 
HETATM    7  C5  UNL     1      24.740   5.857  50.464  1.00  0.00     0.106 A 
HETATM    8  N3  UNL     1      26.035   5.297  50.294  1.00  0.00    -0.380 N 
HETATM    9  C6  UNL     1      26.337   3.939  49.841  1.00  0.00     0.161 C 
HETATM   10  C7  UNL     1      25.644   2.928  50.662  1.00  0.00    -0.004 A 
HETATM   11  C8  UNL     1      26.518   1.953  51.100  1.00  0.00     0.044 A 
HETATM   12  C9  UNL     1      26.060   0.915  51.885  1.00  0.00     0.067 A 
HETATM   13  C12 UNL     1      24.731   0.828  52.248  1.00  0.00     0.035 A 
HETATM   14  C13 UNL     1      23.834   1.803  51.817  1.00  0.00     0.040 A 
HETATM   15  C14 UNL     1      24.307   2.845  51.025  1.00  0.00     0.086 A 
HETATM   16  O2  UNL     1      23.329   3.776  50.640  1.00  0.00    -0.289 OA
HETATM   17  H5  UNL     1      26.842   5.935  50.521  1.00  0.00     0.160 HD
ENDROOT
BRANCH  12  18
HETATM   18  N4  UNL     1      26.834  -0.157  52.408  1.00  0.00    -0.202 NA
BRANCH  18  19
HETATM   19  C10 UNL     1      27.595  -0.033  53.398  1.00  0.00     0.044 C 
BRANCH  19  20
HETATM   20  C11 UNL     1      28.316   0.289  54.427  1.00  0.00     0.295 C 
HETATM   21  O1  UNL     1      28.872   0.980  55.277  1.00  0.00    -0.272 OA
ENDBRANCH  19  20
ENDBRANCH  18  19
ENDBRANCH  12  18
TORSDOF 3
ENDMDL
MODEL 4
REMARK VINA RESULT:      -6.8      3.771      5.285
REMARK  3 active torsions:
REMARK  status: ('A' for Active; 'I' for Inactive)
REMARK    1  A    between atoms: C9_12  and  N4_13 
REMARK    2  A    between atoms: N4_13  and  C10_14 
REMARK    3  A    between atoms: C10_14  and  C11_15 
ROOT
HETATM    1  C1  UNL     1      20.408   0.213  54.230  1.00  0.00     0.073 C 
HETATM    2  C2  UNL     1      21.842  -0.195  54.317  1.00  0.00     0.062 A 
HETATM    3  N1  UNL     1      22.311  -0.972  55.315  1.00  0.00    -0.244 NA
HETATM    4  C3  UNL     1      23.602  -1.335  55.384  1.00  0.00     0.236 A 
HETATM    5  N2  UNL     1      24.487  -0.929  54.448  1.00  0.00    -0.215 NA
HETATM    6  C4  UNL     1      24.085  -0.144  53.411  1.00  0.00     0.200 A 
HETATM    7  C5  UNL     1      22.751   0.219  53.357  1.00  0.00     0.106 A 
HETATM    8  N3  UNL     1      22.126   1.027  52.369  1.00  0.00    -0.380 N 
HETATM    9  C6  UNL     1      22.636   1.298  51.024  1.00  0.00     0.161 C 
HETATM   10  C7  UNL     1      24.012   1.827  51.064  1.00  0.00    -0.004 A 
HETATM   11  C8  UNL     1      24.128   2.976  50.305  1.00  0.00     0.044 A 
HETATM   12  C9  UNL     1      25.343   3.624  50.215  1.00  0.00     0.067 A 
HETATM   13  C12 UNL     1      26.458   3.145  50.873  1.00  0.00     0.035 A 
HETATM   14  C13 UNL     1      26.360   1.989  51.643  1.00  0.00     0.040 A 
HETATM   15  C14 UNL     1      25.130   1.344  51.727  1.00  0.00     0.086 A 
HETATM   16  O2  UNL     1      25.130   0.188  52.526  1.00  0.00    -0.289 OA
HETATM   17  H5  UNL     1      21.211   1.465  52.650  1.00  0.00     0.160 HD
ENDROOT
BRANCH  12  18
HETATM   18  N4  UNL     1      25.618   4.808  49.477  1.00  0.00    -0.202 NA
BRANCH  18  19
HETATM   19  C10 UNL     1      26.746   5.066  48.991  1.00  0.00     0.044 C 
BRANCH  19  20
HETATM   20  C11 UNL     1      27.937   5.130  48.484  1.00  0.00     0.295 C 
HETATM   21  O1  UNL     1      29.144   4.946  48.341  1.00  0.00    -0.272 OA
ENDBRANCH  19  20
ENDBRANCH  18  19
ENDBRANCH  12  18
TORSDOF 3
ENDMDL
MODEL 5
REMARK VINA RESULT:      -6.7      4.150      7.703
REMARK  3 active torsions:
REMARK  status: ('A' for Active; 'I' for Inactive)
REMARK    1  A    between atoms: C9_12  and  N4_13 
REMARK    2  A    between atoms: N4_13  and  C10_14 
REMARK    3  A    between atoms: C10_14  and  C11_15 
ROOT
HETATM    1  C1  UNL     1      26.162  -0.129  55.414  1.00  0.00     0.073 C 
HETATM    2  C2  UNL     1      27.029   0.695  54.520  1.00  0.00     0.062 A 
HETATM    3  N1  UNL     1      28.320   0.956  54.810  1.00  0.00    -0.244 NA
HETATM    4  C3  UNL     1      29.093   1.697  53.999  1.00  0.00     0.236 A 
HETATM    5  N2  UNL     1      28.599   2.214  52.854  1.00  0.00    -0.215 NA
HETATM    6  C4  UNL     1      27.304   1.993  52.497  1.00  0.00     0.200 A 
HETATM    7  C5  UNL     1      26.525   1.226  53.344  1.00  0.00     0.106 A 
HETATM    8  N3  UNL     1      25.160   0.875  53.164  1.00  0.00    -0.380 N 
HETATM    9  C6  UNL     1      24.423   0.889  51.900  1.00  0.00     0.161 C 
HETATM   10  C7  UNL     1      24.518   2.202  51.233  1.00  0.00    -0.004 A 
HETATM   11  C8  UNL     1      23.272   2.669  50.865  1.00  0.00     0.044 A 
HETATM   12  C9  UNL     1      23.151   3.885  50.225  1.00  0.00     0.067 A 
HETATM   13  C12 UNL     1      24.260   4.655  49.941  1.00  0.00     0.035 A 
HETATM   14  C13 UNL     1      25.525   4.202  50.305  1.00  0.00     0.040 A 
HETATM   15  C14 UNL     1      25.636   2.973  50.949  1.00  0.00     0.086 A 
HETATM   16  O2  UNL     1      26.951   2.601  51.275  1.00  0.00    -0.289 OA
HETATM   17  H5  UNL     1      24.645   0.580  54.034  1.00  0.00     0.160 HD
ENDROOT
BRANCH  12  18
HETATM   18  N4  UNL     1      21.943   4.495  49.787  1.00  0.00    -0.202 NA
BRANCH  18  19
HETATM   19  C10 UNL     1      20.858   4.389  50.407  1.00  0.00     0.044 C 
BRANCH  19  20
HETATM   20  C11 UNL     1      19.846   4.187  51.194  1.00  0.00     0.295 C 
HETATM   21  O1  UNL     1      19.140   3.677  52.059  1.00  0.00    -0.272 OA
ENDBRANCH  19  20
ENDBRANCH  18  19
ENDBRANCH  12  18
TORSDOF 3
ENDMDL
MODEL 6
REMARK VINA RESULT:      -6.5      5.542      7.884
REMARK  3 active torsions:
REMARK  status: ('A' for Active; 'I' for Inactive)
REMARK    1  A    between atoms: C9_12  and  N4_13 
REMARK    2  A    between atoms: N4_13  and  C10_14 
REMARK    3  A    between atoms: C10_14  and  C11_15 
ROOT
HETATM    1  C1  UNL     1      28.468   6.516  47.994  1.00  0.00     0.073 C 
HETATM    2  C2  UNL     1      27.067   6.784  48.434  1.00  0.00     0.062 A 
HETATM    3  N1  UNL     1      26.457   7.968  48.216  1.00  0.00    -0.244 NA
HETATM    4  C3  UNL     1      25.196   8.200  48.615  1.00  0.00     0.236 A 
HETATM    5  N2  UNL     1      24.486   7.246  49.256  1.00  0.00    -0.215 NA
HETATM    6  C4  UNL     1      25.036   6.028  49.510  1.00  0.00     0.200 A 
HETATM    7  C5  UNL     1      26.336   5.808  49.091  1.00  0.00     0.106 A 
HETATM    8  N3  UNL     1      27.094   4.618  49.253  1.00  0.00    -0.380 N 
HETATM    9  C6  UNL     1      26.560   3.280  49.510  1.00  0.00     0.161 C 
HETATM   10  C7  UNL     1      25.672   3.269  50.687  1.00  0.00    -0.004 A 
HETATM   11  C8  UNL     1      26.017   2.261  51.566  1.00  0.00     0.044 A 
HETATM   12  C9  UNL     1      25.302   2.087  52.733  1.00  0.00     0.067 A 
HETATM   13  C12 UNL     1      24.236   2.907  53.047  1.00  0.00     0.035 A 
HETATM   14  C13 UNL     1      23.874   3.929  52.173  1.00  0.00     0.040 A 
HETATM   15  C14 UNL     1      24.602   4.096  50.999  1.00  0.00     0.086 A 
HETATM   16  O2  UNL     1      24.161   5.151  50.183  1.00  0.00    -0.289 OA
HETATM   17  H5  UNL     1      28.139   4.728  49.178  1.00  0.00     0.160 HD
ENDROOT
BRANCH  12  18
HETATM   18  N4  UNL     1      25.535   1.100  53.730  1.00  0.00    -0.202 NA
BRANCH  18  19
HETATM   19  C10 UNL     1      26.679   0.812  54.154  1.00  0.00     0.044 C 
BRANCH  19  20
HETATM   20  C11 UNL     1      27.827   0.327  54.517  1.00  0.00     0.295 C 
HETATM   21  O1  UNL     1      28.653  -0.418  55.037  1.00  0.00    -0.272 OA
ENDBRANCH  19  20
ENDBRANCH  18  19
ENDBRANCH  12  18
TORSDOF 3
ENDMDL
MODEL 7
REMARK VINA RESULT:      -6.4      8.317     11.372
REMARK  3 active torsions:
REMARK  status: ('A' for Active; 'I' for Inactive)
REMARK    1  A    between atoms: C9_12  and  N4_13 
REMARK    2  A    between atoms: N4_13  and  C10_14 
REMARK    3  A    between atoms: C10_14  and  C11_15 
ROOT
HETATM    1  C1  UNL     1      32.038   8.105  49.519  1.00  0.00     0.073 C 
HETATM    2  C2  UNL     1      30.760   8.780  49.142  1.00  0.00     0.062 A 
HETATM    3  N1  UNL     1      30.636  10.123  49.114  1.00  0.00    -0.244 NA
HETATM    4  C3  UNL     1      29.483  10.722  48.773  1.00  0.00     0.236 A 
HETATM    5  N2  UNL     1      28.394   9.992  48.444  1.00  0.00    -0.215 NA
HETATM    6  C4  UNL     1      28.446   8.632  48.451  1.00  0.00     0.200 A 
HETATM    7  C5  UNL     1      29.643   8.034  48.803  1.00  0.00     0.106 A 
HETATM    8  N3  UNL     1      29.912   6.641  48.875  1.00  0.00    -0.380 N 
HETATM    9  C6  UNL     1      29.151   5.578  48.217  1.00  0.00     0.161 C 
HETATM   10  C7  UNL     1      27.716   5.655  48.550  1.00  0.00    -0.004 A 
HETATM   11  C8  UNL     1      27.233   4.432  48.972  1.00  0.00     0.044 A 
HETATM   12  C9  UNL     1      25.908   4.298  49.330  1.00  0.00     0.067 A 
HETATM   13  C12 UNL     1      25.042   5.373  49.276  1.00  0.00     0.035 A 
HETATM   14  C13 UNL     1      25.511   6.614  48.854  1.00  0.00     0.040 A 
HETATM   15  C14 UNL     1      26.850   6.738  48.495  1.00  0.00     0.086 A 
HETATM   16  O2  UNL     1      27.228   8.026  48.083  1.00  0.00    -0.289 OA
HETATM   17  H5  UNL     1      30.743   6.366  49.461  1.00  0.00     0.160 HD
ENDROOT
BRANCH  12  18
HETATM   18  N4  UNL     1      25.268   3.112  49.781  1.00  0.00    -0.202 NA
BRANCH  18  19
HETATM   19  C10 UNL     1      24.723   3.012  50.906  1.00  0.00     0.044 C 
BRANCH  19  20
HETATM   20  C11 UNL     1      24.348   2.873  52.140  1.00  0.00     0.295 C 
HETATM   21  O1  UNL     1      24.310   3.020  53.359  1.00  0.00    -0.272 OA
ENDBRANCH  19  20
ENDBRANCH  18  19
ENDBRANCH  12  18
TORSDOF 3
ENDMDL
MODEL 8
REMARK VINA RESULT:      -6.2      1.747      2.397
REMARK  3 active torsions:
REMARK  status: ('A' for Active; 'I' for Inactive)
REMARK    1  A    between atoms: C9_12  and  N4_13 
REMARK    2  A    between atoms: N4_13  and  C10_14 
REMARK    3  A    between atoms: C10_14  and  C11_15 
ROOT
HETATM    1  C1  UNL     1      17.945   0.166  50.376  1.00  0.00     0.073 C 
HETATM    2  C2  UNL     1      18.700   1.449  50.498  1.00  0.00     0.062 A 
HETATM    3  N1  UNL     1      18.353   2.557  49.812  1.00  0.00    -0.244 NA
HETATM    4  C3  UNL     1      19.037   3.706  49.928  1.00  0.00     0.236 A 
HETATM    5  N2  UNL     1      20.110   3.794  50.744  1.00  0.00    -0.215 NA
HETATM    6  C4  UNL     1      20.518   2.717  51.468  1.00  0.00     0.200 A 
HETATM    7  C5  UNL     1      19.800   1.542  51.336  1.00  0.00     0.106 A 
HETATM    8  N3  UNL     1      20.053   0.309  51.994  1.00  0.00    -0.380 N 
HETATM    9  C6  UNL     1      20.832   0.126  53.220  1.00  0.00     0.161 C 
HETATM   10  C7  UNL     1      22.177   0.718  53.098  1.00  0.00    -0.004 A 
HETATM   11  C8  UNL     1      23.156  -0.180  53.476  1.00  0.00     0.044 A 
HETATM   12  C9  UNL     1      24.485   0.187  53.433  1.00  0.00     0.067 A 
HETATM   13  C12 UNL     1      24.864   1.447  53.014  1.00  0.00     0.035 A 
HETATM   14  C13 UNL     1      23.892   2.366  52.628  1.00  0.00     0.040 A 
HETATM   15  C14 UNL     1      22.554   1.985  52.676  1.00  0.00     0.086 A 
HETATM   16  O2  UNL     1      21.649   2.979  52.268  1.00  0.00    -0.289 OA
HETATM   17  H5  UNL     1      19.631  -0.545  51.543  1.00  0.00     0.160 HD
ENDROOT
BRANCH  12  18
HETATM   18  N4  UNL     1      25.599  -0.622  53.789  1.00  0.00    -0.202 NA
BRANCH  18  19
HETATM   19  C10 UNL     1      26.720  -0.147  54.094  1.00  0.00     0.044 C 
BRANCH  19  20
HETATM   20  C11 UNL     1      27.882   0.199  54.554  1.00  0.00     0.295 C 
HETATM   21  O1  UNL     1      28.737   0.809  55.190  1.00  0.00    -0.272 OA
ENDBRANCH  19  20
ENDBRANCH  18  19
ENDBRANCH  12  18
TORSDOF 3
ENDMDL
MODEL 9
REMARK VINA RESULT:      -6.1      7.290      9.789
REMARK  3 active torsions:
REMARK  status: ('A' for Active; 'I' for Inactive)
REMARK    1  A    between atoms: C9_12  and  N4_13 
REMARK    2  A    between atoms: N4_13  and  C10_14 
REMARK    3  A    between atoms: C10_14  and  C11_15 
ROOT
HETATM    1  C1  UNL     1      30.135   8.177  48.572  1.00  0.00     0.073 C 
HETATM    2  C2  UNL     1      28.685   8.392  48.287  1.00  0.00     0.062 A 
HETATM    3  N1  UNL     1      28.194   9.593  47.919  1.00  0.00    -0.244 NA
HETATM    4  C3  UNL     1      26.889   9.778  47.663  1.00  0.00     0.236 A 
HETATM    5  N2  UNL     1      26.011   8.756  47.768  1.00  0.00    -0.215 NA
HETATM    6  C4  UNL     1      26.435   7.516  48.134  1.00  0.00     0.200 A 
HETATM    7  C5  UNL     1      27.783   7.345  48.392  1.00  0.00     0.106 A 
HETATM    8  N3  UNL     1      28.432   6.144  48.785  1.00  0.00    -0.380 N 
HETATM    9  C6  UNL     1      27.918   4.785  48.605  1.00  0.00     0.161 C 
HETATM   10  C7  UNL     1      26.569   4.637  49.182  1.00  0.00    -0.004 A 
HETATM   11  C8  UNL     1      26.495   3.533  50.007  1.00  0.00     0.044 A 
HETATM   12  C9  UNL     1      25.311   3.222  50.643  1.00  0.00     0.067 A 
HETATM   13  C12 UNL     1      24.184   4.001  50.471  1.00  0.00     0.035 A 
HETATM   14  C13 UNL     1      24.238   5.119  49.643  1.00  0.00     0.040 A 
HETATM   15  C14 UNL     1      25.438   5.422  49.007  1.00  0.00     0.086 A 
HETATM   16  O2  UNL     1      25.395   6.566  48.193  1.00  0.00    -0.289 OA
HETATM   17  H5  UNL     1      29.370   6.262  49.248  1.00  0.00     0.160 HD
ENDROOT
BRANCH  12  18
HETATM   18  N4  UNL     1      25.081   2.125  51.517  1.00  0.00    -0.202 NA
BRANCH  18  19
HETATM   19  C10 UNL     1      25.543   2.068  52.682  1.00  0.00     0.044 C 
BRANCH  19  20
HETATM   20  C11 UNL     1      26.010   1.807  53.863  1.00  0.00     0.295 C 
HETATM   21  O1  UNL     1      26.753   1.377  54.743  1.00  0.00    -0.272 OA
ENDBRANCH  19  20
ENDBRANCH  18  19
ENDBRANCH  12  18
TORSDOF 3
ENDMDL
