MODEL 1
REMARK VINA RESULT:      -9.6      0.000      0.000
REMARK  0 active torsions:
REMARK  status: ('A' for Active; 'I' for Inactive)
ROOT
HETATM    1  O1  UNL     1      21.372   2.627  49.957  1.00  0.00    -0.247 OA
HETATM    2  C1  UNL     1      21.165   3.411  50.892  1.00  0.00     0.320 C 
HETATM    3  N1  UNL     1      21.311   4.848  51.202  1.00  0.00    -0.341 N 
HETATM    4  C2  UNL     1      21.775   5.460  49.973  1.00  0.00     0.164 C 
HETATM    5  C3  UNL     1      23.063   5.079  49.379  1.00  0.00     0.286 C 
HETATM    6  N2  UNL     1      23.434   6.185  48.468  1.00  0.00     0.096 N 
HETATM    7  C4  UNL     1      24.849   6.380  48.394  1.00  0.00     0.296 C 
HETATM    8  C5  UNL     1      25.513   6.483  49.724  1.00  0.00     0.200 C 
HETATM    9  O2  UNL     1      25.014   5.657  50.715  1.00  0.00    -0.363 OA
HETATM   10  C6  UNL     1      24.179   4.640  50.252  1.00  0.00     0.255 C 
HETATM   11  N3  UNL     1      24.998   3.600  49.603  1.00  0.00    -0.372 N 
HETATM   12  C7  UNL     1      26.416   3.395  49.725  1.00  0.00     0.082 C 
HETATM   13  C8  UNL     1      26.494   2.539  50.695  1.00  0.00    -0.004 C 
HETATM   14  C9  UNL     1      26.740   1.594  51.757  1.00  0.00     0.045 C 
HETATM   15  C10 UNL     1      25.349   1.433  51.978  1.00  0.00    -0.014 C 
HETATM   16  C11 UNL     1      25.587   0.386  53.126  1.00  0.00     0.032 C 
HETATM   17  C12 UNL     1      24.595  -0.228  53.763  1.00  0.00     0.027 C 
HETATM   18  C13 UNL     1      23.347  -0.789  54.331  1.00  0.00     0.033 C 
HETATM   19  N4  UNL     1      22.468  -1.508  55.061  1.00  0.00    -0.247 NA
HETATM   20  C14 UNL     1      21.095  -1.128  54.694  1.00  0.00     0.227 C 
HETATM   21  N5  UNL     1      20.453  -1.154  53.603  1.00  0.00    -0.279 NA
HETATM   22  C15 UNL     1      19.135  -0.775  53.247  1.00  0.00     0.179 C 
HETATM   23  C16 UNL     1      19.163   0.406  52.271  1.00  0.00     0.020 C 
HETATM   24  C17 UNL     1      20.296   0.926  52.019  1.00  0.00     0.016 C 
HETATM   25  C18 UNL     1      21.772   0.715  52.470  1.00  0.00     0.050 C 
HETATM   26  C19 UNL     1      22.552   0.029  53.329  1.00  0.00     0.041 C 
HETATM   27  N6  UNL     1      20.704   2.153  51.502  1.00  0.00    -0.313 N 
HETATM   28  H1  UNL     1      21.002   4.433  52.018  1.00  0.00     0.164 HD
HETATM   29  H5  UNL     1      22.979   7.063  48.832  1.00  0.00     0.316 HD
HETATM   30  H11 UNL     1      24.632   2.871  48.957  1.00  0.00     0.161 HD
HETATM   31  H24 UNL     1      20.265   2.740  52.284  1.00  0.00     0.170 HD
ENDROOT
TORSDOF 0
ENDMDL
MODEL 2
REMARK VINA RESULT:      -9.2      2.691      6.215
REMARK  0 active torsions:
REMARK  status: ('A' for Active; 'I' for Inactive)
ROOT
HETATM    1  O1  UNL     1      22.275  -0.960  52.688  1.00  0.00    -0.247 OA
HETATM    2  C1  UNL     1      22.047  -0.108  53.555  1.00  0.00     0.320 C 
HETATM    3  N1  UNL     1      20.897   0.600  54.155  1.00  0.00    -0.341 N 
HETATM    4  C2  UNL     1      19.723   0.015  53.539  1.00  0.00     0.164 C 
HETATM    5  C3  UNL     1      19.502   0.114  52.090  1.00  0.00     0.286 C 
HETATM    6  N2  UNL     1      18.057  -0.132  51.882  1.00  0.00     0.096 N 
HETATM    7  C4  UNL     1      17.531   0.607  50.775  1.00  0.00     0.296 C 
HETATM    8  C5  UNL     1      17.869   2.058  50.805  1.00  0.00     0.200 C 
HETATM    9  O2  UNL     1      19.134   2.376  51.267  1.00  0.00    -0.363 OA
HETATM   10  C6  UNL     1      20.009   1.292  51.344  1.00  0.00     0.255 C 
HETATM   11  N3  UNL     1      20.444   0.926  49.984  1.00  0.00    -0.372 N 
HETATM   12  C7  UNL     1      20.352   1.718  48.788  1.00  0.00     0.082 C 
HETATM   13  C8  UNL     1      21.502   2.316  48.757  1.00  0.00    -0.004 C 
HETATM   14  C9  UNL     1      22.731   3.052  48.588  1.00  0.00     0.045 C 
HETATM   15  C10 UNL     1      23.285   2.454  49.747  1.00  0.00    -0.014 C 
HETATM   16  C11 UNL     1      24.642   3.229  49.577  1.00  0.00     0.032 C 
HETATM   17  C12 UNL     1      25.680   3.056  50.388  1.00  0.00     0.027 C 
HETATM   18  C13 UNL     1      26.702   2.708  51.404  1.00  0.00     0.033 C 
HETATM   19  N4  UNL     1      27.847   2.643  52.115  1.00  0.00    -0.247 NA
HETATM   20  C14 UNL     1      27.670   1.722  53.250  1.00  0.00     0.227 C 
HETATM   21  N5  UNL     1      27.365   0.496  53.328  1.00  0.00    -0.279 NA
HETATM   22  C15 UNL     1      27.181  -0.386  54.422  1.00  0.00     0.179 C 
HETATM   23  C16 UNL     1      25.722  -0.847  54.498  1.00  0.00     0.020 C 
HETATM   24  C17 UNL     1      24.900  -0.315  53.686  1.00  0.00     0.016 C 
HETATM   25  C18 UNL     1      24.942   0.773  52.572  1.00  0.00     0.050 C 
HETATM   26  C19 UNL     1      25.735   1.696  51.992  1.00  0.00     0.041 C 
HETATM   27  N6  UNL     1      23.513  -0.192  53.655  1.00  0.00    -0.313 N 
HETATM   28  H1  UNL     1      21.684   0.986  54.561  1.00  0.00     0.164 HD
HETATM   29  H5  UNL     1      17.555   0.154  52.762  1.00  0.00     0.316 HD
HETATM   30  H11 UNL     1      20.882   0.018  49.724  1.00  0.00     0.161 HD
HETATM   31  H24 UNL     1      23.443   0.363  54.569  1.00  0.00     0.170 HD
ENDROOT
TORSDOF 0
ENDMDL
MODEL 3
REMARK VINA RESULT:      -9.1      2.131      4.118
REMARK  0 active torsions:
REMARK  status: ('A' for Active; 'I' for Inactive)
ROOT
HETATM    1  O1  UNL     1      21.247   0.470  51.807  1.00  0.00    -0.247 OA
HETATM    2  C1  UNL     1      21.028   1.324  52.675  1.00  0.00     0.320 C 
HETATM    3  N1  UNL     1      20.175   2.511  52.888  1.00  0.00    -0.341 N 
HETATM    4  C2  UNL     1      19.323   2.586  51.718  1.00  0.00     0.164 C 
HETATM    5  C3  UNL     1      19.894   2.779  50.379  1.00  0.00     0.286 C 
HETATM    6  N2  UNL     1      18.788   3.283  49.534  1.00  0.00     0.096 N 
HETATM    7  C4  UNL     1      19.243   4.184  48.519  1.00  0.00     0.296 C 
HETATM    8  C5  UNL     1      20.119   5.276  49.032  1.00  0.00     0.200 C 
HETATM    9  O2  UNL     1      20.997   4.923  50.042  1.00  0.00    -0.363 OA
HETATM   10  C6  UNL     1      21.153   3.548  50.217  1.00  0.00     0.255 C 
HETATM   11  N3  UNL     1      21.978   3.012  49.119  1.00  0.00    -0.372 N 
HETATM   12  C7  UNL     1      22.829   3.743  48.221  1.00  0.00     0.082 C 
HETATM   13  C8  UNL     1      23.979   3.690  48.816  1.00  0.00    -0.004 C 
HETATM   14  C9  UNL     1      25.316   3.718  49.357  1.00  0.00     0.045 C 
HETATM   15  C10 UNL     1      24.919   2.925  50.462  1.00  0.00    -0.014 C 
HETATM   16  C11 UNL     1      26.371   2.923  51.065  1.00  0.00     0.032 C 
HETATM   17  C12 UNL     1      26.695   2.258  52.169  1.00  0.00     0.027 C 
HETATM   18  C13 UNL     1      26.831   1.450  53.403  1.00  0.00     0.033 C 
HETATM   19  N4  UNL     1      27.332   0.825  54.490  1.00  0.00    -0.247 NA
HETATM   20  C14 UNL     1      26.250   0.117  55.193  1.00  0.00     0.227 C 
HETATM   21  N5  UNL     1      25.445  -0.796  54.842  1.00  0.00    -0.279 NA
HETATM   22  C15 UNL     1      24.394  -1.468  55.514  1.00  0.00     0.179 C 
HETATM   23  C16 UNL     1      23.047  -1.142  54.862  1.00  0.00     0.020 C 
HETATM   24  C17 UNL     1      23.045  -0.274  53.933  1.00  0.00     0.016 C 
HETATM   25  C18 UNL     1      24.087   0.647  53.232  1.00  0.00     0.050 C 
HETATM   26  C19 UNL     1      25.372   1.053  53.274  1.00  0.00     0.041 C 
HETATM   27  N6  UNL     1      22.058   0.523  53.355  1.00  0.00    -0.313 N 
HETATM   28  H1  UNL     1      20.746   2.455  53.665  1.00  0.00     0.164 HD
HETATM   29  H5  UNL     1      18.108   3.783  50.164  1.00  0.00     0.316 HD
HETATM   30  H11 UNL     1      22.039   2.006  48.858  1.00  0.00     0.161 HD
HETATM   31  H24 UNL     1      21.808   1.041  54.259  1.00  0.00     0.170 HD
ENDROOT
TORSDOF 0
ENDMDL
MODEL 4
REMARK VINA RESULT:      -8.9      2.265      4.286
REMARK  0 active torsions:
REMARK  status: ('A' for Active; 'I' for Inactive)
ROOT
HETATM    1  O1  UNL     1      22.848   1.678  49.992  1.00  0.00    -0.247 OA
HETATM    2  C1  UNL     1      22.527   2.681  50.642  1.00  0.00     0.320 C 
HETATM    3  N1  UNL     1      23.166   3.831  51.313  1.00  0.00    -0.341 N 
HETATM    4  C2  UNL     1      24.579   3.713  51.016  1.00  0.00     0.164 C 
HETATM    5  C3  UNL     1      25.351   2.548  51.468  1.00  0.00     0.286 C 
HETATM    6  N2  UNL     1      26.772   2.963  51.433  1.00  0.00     0.096 N 
HETATM    7  C4  UNL     1      27.548   2.336  52.459  1.00  0.00     0.296 C 
HETATM    8  C5  UNL     1      26.950   2.446  53.819  1.00  0.00     0.200 C 
HETATM    9  O2  UNL     1      25.571   2.346  53.884  1.00  0.00    -0.363 OA
HETATM   10  C6  UNL     1      24.974   1.854  52.723  1.00  0.00     0.255 C 
HETATM   11  N3  UNL     1      25.216   0.402  52.634  1.00  0.00    -0.372 N 
HETATM   12  C7  UNL     1      25.633  -0.486  53.685  1.00  0.00     0.082 C 
HETATM   13  C8  UNL     1      24.504  -0.925  54.146  1.00  0.00    -0.004 C 
HETATM   14  C9  UNL     1      23.334  -1.500  54.764  1.00  0.00     0.045 C 
HETATM   15  C10 UNL     1      22.483  -0.818  53.860  1.00  0.00    -0.014 C 
HETATM   16  C11 UNL     1      21.191  -1.443  54.502  1.00  0.00     0.032 C 
HETATM   17  C12 UNL     1      19.968  -1.214  54.037  1.00  0.00     0.027 C 
HETATM   18  C13 UNL     1      18.711  -0.825  53.356  1.00  0.00     0.033 C 
HETATM   19  N4  UNL     1      17.412  -0.713  53.006  1.00  0.00    -0.247 NA
HETATM   20  C14 UNL     1      17.285   0.219  51.875  1.00  0.00     0.227 C 
HETATM   21  N5  UNL     1      17.766   0.227  50.703  1.00  0.00    -0.279 NA
HETATM   22  C15 UNL     1      17.655   1.132  49.619  1.00  0.00     0.179 C 
HETATM   23  C16 UNL     1      19.013   1.771  49.314  1.00  0.00     0.020 C 
HETATM   24  C17 UNL     1      19.973   1.502  50.103  1.00  0.00     0.016 C 
HETATM   25  C18 UNL     1      20.179   0.674  51.406  1.00  0.00     0.050 C 
HETATM   26  C19 UNL     1      19.529  -0.041  52.346  1.00  0.00     0.041 C 
HETATM   27  N6  UNL     1      21.198   2.107  50.379  1.00  0.00    -0.313 N 
HETATM   28  H1  UNL     1      22.223   3.904  51.508  1.00  0.00     0.164 HD
HETATM   29  H5  UNL     1      26.801   4.008  51.562  1.00  0.00     0.316 HD
HETATM   30  H11 UNL     1      25.112  -0.166  51.769  1.00  0.00     0.161 HD
HETATM   31  H24 UNL     1      20.776   3.034  50.714  1.00  0.00     0.170 HD
ENDROOT
TORSDOF 0
ENDMDL
MODEL 5
REMARK VINA RESULT:      -8.8      1.768      6.767
REMARK  0 active torsions:
REMARK  status: ('A' for Active; 'I' for Inactive)
ROOT
HETATM    1  O1  UNL     1      21.657   4.359  52.798  1.00  0.00    -0.247 OA
HETATM    2  C1  UNL     1      21.091   3.917  51.791  1.00  0.00     0.320 C 
HETATM    3  N1  UNL     1      20.283   2.750  51.382  1.00  0.00    -0.341 N 
HETATM    4  C2  UNL     1      20.082   1.980  52.593  1.00  0.00     0.164 C 
HETATM    5  C3  UNL     1      21.221   1.403  53.319  1.00  0.00     0.286 C 
HETATM    6  N2  UNL     1      20.660   0.328  54.168  1.00  0.00     0.096 N 
HETATM    7  C4  UNL     1      21.571  -0.761  54.343  1.00  0.00     0.296 C 
HETATM    8  C5  UNL     1      22.146  -1.276  53.067  1.00  0.00     0.200 C 
HETATM    9  O2  UNL     1      22.435  -0.323  52.106  1.00  0.00    -0.363 OA
HETATM   10  C6  UNL     1      22.437   0.990  52.577  1.00  0.00     0.255 C 
HETATM   11  N3  UNL     1      23.659   1.216  53.371  1.00  0.00    -0.372 N 
HETATM   12  C7  UNL     1      24.859   0.424  53.382  1.00  0.00     0.082 C 
HETATM   13  C8  UNL     1      25.593   1.014  52.491  1.00  0.00    -0.004 C 
HETATM   14  C9  UNL     1      26.521   1.559  51.530  1.00  0.00     0.045 C 
HETATM   15  C10 UNL     1      25.623   2.606  51.210  1.00  0.00    -0.014 C 
HETATM   16  C11 UNL     1      26.622   3.233  50.170  1.00  0.00     0.032 C 
HETATM   17  C12 UNL     1      26.365   4.354  49.505  1.00  0.00     0.027 C 
HETATM   18  C13 UNL     1      25.876   5.606  48.882  1.00  0.00     0.033 C 
HETATM   19  N4  UNL     1      25.785   6.731  48.141  1.00  0.00    -0.247 NA
HETATM   20  C14 UNL     1      24.474   7.361  48.363  1.00  0.00     0.227 C 
HETATM   21  N5  UNL     1      23.892   7.805  49.397  1.00  0.00    -0.279 NA
HETATM   22  C15 UNL     1      22.624   8.399  49.612  1.00  0.00     0.179 C 
HETATM   23  C16 UNL     1      21.753   7.497  50.492  1.00  0.00     0.020 C 
HETATM   24  C17 UNL     1      22.220   6.353  50.795  1.00  0.00     0.016 C 
HETATM   25  C18 UNL     1      23.503   5.528  50.484  1.00  0.00     0.050 C 
HETATM   26  C19 UNL     1      24.633   5.523  49.749  1.00  0.00     0.041 C 
HETATM   27  N6  UNL     1      21.650   5.164  51.246  1.00  0.00    -0.313 N 
HETATM   28  H1  UNL     1      20.421   3.268  50.579  1.00  0.00     0.164 HD
HETATM   29  H5  UNL     1      19.783  -0.022  53.700  1.00  0.00     0.316 HD
HETATM   30  H11 UNL     1      23.797   2.001  54.040  1.00  0.00     0.161 HD
HETATM   31  H24 UNL     1      21.026   5.022  50.386  1.00  0.00     0.170 HD
ENDROOT
TORSDOF 0
ENDMDL
MODEL 6
REMARK VINA RESULT:      -8.6      1.845      5.085
REMARK  0 active torsions:
REMARK  status: ('A' for Active; 'I' for Inactive)
ROOT
HETATM    1  O1  UNL     1      24.511   4.376  51.336  1.00  0.00    -0.247 OA
HETATM    2  C1  UNL     1      24.723   3.647  50.360  1.00  0.00     0.320 C 
HETATM    3  N1  UNL     1      24.294   3.507  48.953  1.00  0.00    -0.341 N 
HETATM    4  C2  UNL     1      23.421   4.637  48.704  1.00  0.00     0.164 C 
HETATM    5  C3  UNL     1      22.171   4.805  49.455  1.00  0.00     0.286 C 
HETATM    6  N2  UNL     1      21.334   5.724  48.651  1.00  0.00     0.096 N 
HETATM    7  C4  UNL     1      19.937   5.440  48.775  1.00  0.00     0.296 C 
HETATM    8  C5  UNL     1      19.592   4.007  48.556  1.00  0.00     0.200 C 
HETATM    9  O2  UNL     1      20.498   3.084  49.049  1.00  0.00    -0.363 OA
HETATM   10  C6  UNL     1      21.433   3.613  49.938  1.00  0.00     0.255 C 
HETATM   11  N3  UNL     1      20.776   3.870  51.233  1.00  0.00    -0.372 N 
HETATM   12  C7  UNL     1      19.523   3.344  51.703  1.00  0.00     0.082 C 
HETATM   13  C8  UNL     1      19.889   2.282  52.350  1.00  0.00    -0.004 C 
HETATM   14  C9  UNL     1      20.140   1.075  53.100  1.00  0.00     0.045 C 
HETATM   15  C10 UNL     1      21.538   1.217  52.919  1.00  0.00    -0.014 C 
HETATM   16  C11 UNL     1      21.843  -0.084  53.748  1.00  0.00     0.032 C 
HETATM   17  C12 UNL     1      23.076  -0.507  54.003  1.00  0.00     0.027 C 
HETATM   18  C13 UNL     1      24.521  -0.789  54.168  1.00  0.00     0.033 C 
HETATM   19  N4  UNL     1      25.696  -1.346  54.531  1.00  0.00    -0.247 NA
HETATM   20  C14 UNL     1      26.807  -0.575  53.950  1.00  0.00     0.227 C 
HETATM   21  N5  UNL     1      27.167   0.635  54.054  1.00  0.00    -0.279 NA
HETATM   22  C15 UNL     1      28.228   1.380  53.484  1.00  0.00     0.179 C 
HETATM   23  C16 UNL     1      27.680   2.463  52.549  1.00  0.00     0.020 C 
HETATM   24  C17 UNL     1      26.426   2.469  52.338  1.00  0.00     0.016 C 
HETATM   25  C18 UNL     1      25.195   1.613  52.761  1.00  0.00     0.050 C 
HETATM   26  C19 UNL     1      24.832   0.492  53.415  1.00  0.00     0.041 C 
HETATM   27  N6  UNL     1      25.614   3.019  51.348  1.00  0.00    -0.313 N 
HETATM   28  H1  UNL     1      24.876   2.756  49.126  1.00  0.00     0.164 HD
HETATM   29  H5  UNL     1      21.623   5.618  47.643  1.00  0.00     0.316 HD
HETATM   30  H11 UNL     1      21.156   4.486  51.981  1.00  0.00     0.161 HD
HETATM   31  H24 UNL     1      26.057   2.471  50.542  1.00  0.00     0.170 HD
ENDROOT
TORSDOF 0
ENDMDL
MODEL 7
REMARK VINA RESULT:      -8.4      1.614      4.209
REMARK  0 active torsions:
REMARK  status: ('A' for Active; 'I' for Inactive)
ROOT
HETATM    1  O1  UNL     1      25.400   2.851  52.885  1.00  0.00    -0.247 OA
HETATM    2  C1  UNL     1      25.548   2.096  51.916  1.00  0.00     0.320 C 
HETATM    3  N1  UNL     1      25.998   2.154  50.510  1.00  0.00    -0.341 N 
HETATM    4  C2  UNL     1      26.448   3.517  50.307  1.00  0.00     0.164 C 
HETATM    5  C3  UNL     1      25.519   4.647  50.443  1.00  0.00     0.286 C 
HETATM    6  N2  UNL     1      26.146   5.777  49.721  1.00  0.00     0.096 N 
HETATM    7  C4  UNL     1      25.179   6.642  49.117  1.00  0.00     0.296 C 
HETATM    8  C5  UNL     1      24.163   5.928  48.294  1.00  0.00     0.200 C 
HETATM    9  O2  UNL     1      23.737   4.706  48.785  1.00  0.00    -0.363 OA
HETATM   10  C6  UNL     1      24.084   4.466  50.115  1.00  0.00     0.255 C 
HETATM   11  N3  UNL     1      23.221   5.279  50.993  1.00  0.00    -0.372 N 
HETATM   12  C7  UNL     1      21.979   5.918  50.656  1.00  0.00     0.082 C 
HETATM   13  C8  UNL     1      21.102   5.025  50.991  1.00  0.00    -0.004 C 
HETATM   14  C9  UNL     1      20.015   4.133  51.313  1.00  0.00     0.045 C 
HETATM   15  C10 UNL     1      20.917   3.166  51.822  1.00  0.00    -0.014 C 
HETATM   16  C11 UNL     1      19.751   2.182  52.201  1.00  0.00     0.032 C 
HETATM   17  C12 UNL     1      19.955   1.018  52.808  1.00  0.00     0.027 C 
HETATM   18  C13 UNL     1      20.410  -0.221  53.481  1.00  0.00     0.033 C 
HETATM   19  N4  UNL     1      20.436  -1.417  54.106  1.00  0.00    -0.247 NA
HETATM   20  C14 UNL     1      21.831  -1.804  54.372  1.00  0.00     0.227 C 
HETATM   21  N5  UNL     1      22.768  -1.261  55.029  1.00  0.00    -0.279 NA
HETATM   22  C15 UNL     1      24.115  -1.626  55.273  1.00  0.00     0.179 C 
HETATM   23  C16 UNL     1      25.068  -0.617  54.626  1.00  0.00     0.020 C 
HETATM   24  C17 UNL     1      24.551   0.293  53.904  1.00  0.00     0.016 C 
HETATM   25  C18 UNL     1      23.124   0.693  53.425  1.00  0.00     0.050 C 
HETATM   26  C19 UNL     1      21.834   0.302  53.427  1.00  0.00     0.041 C 
HETATM   27  N6  UNL     1      25.043   1.140  52.913  1.00  0.00    -0.313 N 
HETATM   28  H1  UNL     1      25.697   1.248  50.652  1.00  0.00     0.164 HD
HETATM   29  H5  UNL     1      26.767   5.372  48.973  1.00  0.00     0.316 HD
HETATM   30  H11 UNL     1      23.421   5.492  51.991  1.00  0.00     0.161 HD
HETATM   31  H24 UNL     1      25.338   0.352  52.249  1.00  0.00     0.170 HD
ENDROOT
TORSDOF 0
ENDMDL
MODEL 8
REMARK VINA RESULT:      -8.4      2.398      7.630
REMARK  0 active torsions:
REMARK  status: ('A' for Active; 'I' for Inactive)
ROOT
HETATM    1  O1  UNL     1      26.270   2.604  49.923  1.00  0.00    -0.247 OA
HETATM    2  C1  UNL     1      26.783   3.142  50.912  1.00  0.00     0.320 C 
HETATM    3  N1  UNL     1      27.388   2.762  52.206  1.00  0.00    -0.341 N 
HETATM    4  C2  UNL     1      27.411   1.313  52.207  1.00  0.00     0.164 C 
HETATM    5  C3  UNL     1      26.166   0.537  52.141  1.00  0.00     0.286 C 
HETATM    6  N2  UNL     1      26.502  -0.816  52.640  1.00  0.00     0.096 N 
HETATM    7  C4  UNL     1      25.409  -1.431  53.328  1.00  0.00     0.296 C 
HETATM    8  C5  UNL     1      24.796  -0.568  54.377  1.00  0.00     0.200 C 
HETATM    9  O2  UNL     1      24.710   0.780  54.077  1.00  0.00    -0.363 OA
HETATM   10  C6  UNL     1      24.921   1.087  52.733  1.00  0.00     0.255 C 
HETATM   11  N3  UNL     1      23.732   0.693  51.955  1.00  0.00    -0.372 N 
HETATM   12  C7  UNL     1      22.413   0.409  52.450  1.00  0.00     0.082 C 
HETATM   13  C8  UNL     1      21.823   1.559  52.354  1.00  0.00    -0.004 C 
HETATM   14  C9  UNL     1      21.036   2.767  52.309  1.00  0.00     0.045 C 
HETATM   15  C10 UNL     1      22.113   3.484  51.733  1.00  0.00    -0.014 C 
HETATM   16  C11 UNL     1      21.274   4.811  51.654  1.00  0.00     0.032 C 
HETATM   17  C12 UNL     1      21.744   5.935  51.123  1.00  0.00     0.027 C 
HETATM   18  C13 UNL     1      22.464   7.064  50.489  1.00  0.00     0.033 C 
HETATM   19  N4  UNL     1      22.775   8.273  49.975  1.00  0.00    -0.247 NA
HETATM   20  C14 UNL     1      24.168   8.263  49.500  1.00  0.00     0.227 C 
HETATM   21  N5  UNL     1      24.784   7.563  48.643  1.00  0.00    -0.279 NA
HETATM   22  C15 UNL     1      26.128   7.544  48.196  1.00  0.00     0.179 C 
HETATM   23  C16 UNL     1      26.799   6.219  48.575  1.00  0.00     0.020 C 
HETATM   24  C17 UNL     1      26.130   5.413  49.296  1.00  0.00     0.016 C 
HETATM   25  C18 UNL     1      24.733   5.391  49.984  1.00  0.00     0.050 C 
HETATM   26  C19 UNL     1      23.644   6.142  50.244  1.00  0.00     0.041 C 
HETATM   27  N6  UNL     1      26.468   4.331  50.106  1.00  0.00    -0.313 N 
HETATM   28  H1  UNL     1      27.369   3.727  52.198  1.00  0.00     0.164 HD
HETATM   29  H5  UNL     1      27.319  -0.718  53.297  1.00  0.00     0.316 HD
HETATM   30  H11 UNL     1      23.711   0.569  50.922  1.00  0.00     0.161 HD
HETATM   31  H24 UNL     1      27.086   4.898  50.774  1.00  0.00     0.170 HD
ENDROOT
TORSDOF 0
ENDMDL
MODEL 9
REMARK VINA RESULT:      -8.3      3.040      6.899
REMARK  0 active torsions:
REMARK  status: ('A' for Active; 'I' for Inactive)
ROOT
HETATM    1  O1  UNL     1      19.179   3.170  51.154  1.00  0.00    -0.247 OA
HETATM    2  C1  UNL     1      19.617   2.626  50.133  1.00  0.00     0.320 C 
HETATM    3  N1  UNL     1      19.121   2.092  48.847  1.00  0.00    -0.341 N 
HETATM    4  C2  UNL     1      17.705   2.398  48.826  1.00  0.00     0.164 C 
HETATM    5  C3  UNL     1      16.795   1.837  49.833  1.00  0.00     0.286 C 
HETATM    6  N2  UNL     1      15.436   1.939  49.256  1.00  0.00     0.096 N 
HETATM    7  C4  UNL     1      14.585   0.865  49.670  1.00  0.00     0.296 C 
HETATM    8  C5  UNL     1      15.188  -0.485  49.486  1.00  0.00     0.200 C 
HETATM    9  O2  UNL     1      16.545  -0.583  49.744  1.00  0.00    -0.363 OA
HETATM   10  C6  UNL     1      17.081   0.508  50.427  1.00  0.00     0.255 C 
HETATM   11  N3  UNL     1      16.664   0.445  51.841  1.00  0.00    -0.372 N 
HETATM   12  C7  UNL     1      16.139  -0.688  52.553  1.00  0.00     0.082 C 
HETATM   13  C8  UNL     1      17.205  -1.212  53.073  1.00  0.00    -0.004 C 
HETATM   14  C9  UNL     1      18.294  -1.907  53.714  1.00  0.00     0.045 C 
HETATM   15  C10 UNL     1      19.224  -0.949  53.241  1.00  0.00    -0.014 C 
HETATM   16  C11 UNL     1      20.428  -1.675  53.945  1.00  0.00     0.032 C 
HETATM   17  C12 UNL     1      21.672  -1.208  53.916  1.00  0.00     0.027 C 
HETATM   18  C13 UNL     1      22.969  -0.511  53.758  1.00  0.00     0.033 C 
HETATM   19  N4  UNL     1      24.274  -0.172  53.843  1.00  0.00    -0.247 NA
HETATM   20  C14 UNL     1      24.517   1.050  53.060  1.00  0.00     0.227 C 
HETATM   21  N5  UNL     1      24.044   2.224  53.122  1.00  0.00    -0.279 NA
HETATM   22  C15 UNL     1      24.268   3.397  52.359  1.00  0.00     0.179 C 
HETATM   23  C16 UNL     1      22.998   3.791  51.598  1.00  0.00     0.020 C 
HETATM   24  C17 UNL     1      22.010   2.993  51.662  1.00  0.00     0.016 C 
HETATM   25  C18 UNL     1      21.701   1.612  52.313  1.00  0.00     0.050 C 
HETATM   26  C19 UNL     1      22.256   0.590  52.995  1.00  0.00     0.041 C 
HETATM   27  N6  UNL     1      20.868   2.804  50.887  1.00  0.00    -0.313 N 
HETATM   28  H1  UNL     1      20.065   1.891  48.868  1.00  0.00     0.164 HD
HETATM   29  H5  UNL     1      15.533   1.923  48.208  1.00  0.00     0.316 HD
HETATM   30  H11 UNL     1      16.701   1.243  52.508  1.00  0.00     0.161 HD
HETATM   31  H24 UNL     1      21.398   2.563  49.987  1.00  0.00     0.170 HD
ENDROOT
TORSDOF 0
ENDMDL
