MODEL 1
REMARK VINA RESULT:      -8.5      0.000      0.000
REMARK  3 active torsions:
REMARK  status: ('A' for Active; 'I' for Inactive)
REMARK    1  A    between atoms: C7_7  and  N1_8 
REMARK    2  A    between atoms: N1_8  and  C8_9 
REMARK    3  A    between atoms: C15_18  and  N3_19 
ROOT
HETATM    1  C1  UNL     1      16.634   0.634  49.415  1.00  0.00     0.018 C 
HETATM    2  C2  UNL     1      17.297   0.267  50.365  1.00  0.00    -0.078 C 
HETATM    3  C3  UNL     1      18.065  -0.185  51.475  1.00  0.00     0.019 A 
HETATM    4  C4  UNL     1      17.536  -1.084  52.404  1.00  0.00     0.021 A 
HETATM    5  C5  UNL     1      18.331  -1.508  53.471  1.00  0.00     0.004 A 
HETATM    6  C6  UNL     1      19.644  -1.032  53.605  1.00  0.00     0.029 A 
HETATM    7  C7  UNL     1      20.149  -0.152  52.688  1.00  0.00     0.034 A 
HETATM    8  C22 UNL     1      19.366   0.244  51.669  1.00  0.00     0.050 A 
ENDROOT
BRANCH   7   9
HETATM    9  N1  UNL     1      21.482   0.227  52.996  1.00  0.00    -0.344 N 
HETATM   10  H5  UNL     1      22.045  -0.006  53.795  1.00  0.00     0.167 HD
BRANCH   9  11
HETATM   11  C8  UNL     1      22.043   1.048  52.025  1.00  0.00     0.118 C 
HETATM   12  N2  UNL     1      21.938   1.094  50.758  1.00  0.00    -0.271 NA
HETATM   13  C9  UNL     1      22.321   1.717  49.604  1.00  0.00     0.106 C 
HETATM   14  C10 UNL     1      21.086   1.602  48.560  1.00  0.00     0.034 C 
HETATM   15  C11 UNL     1      23.061   2.887  49.186  1.00  0.00     0.027 C 
HETATM   16  C12 UNL     1      24.480   3.222  49.416  1.00  0.00     0.002 C 
HETATM   17  O1  UNL     1      24.803   3.720  50.792  1.00  0.00     0.000 OA
HETATM   18  C13 UNL     1      24.241   2.770  51.712  1.00  0.00     0.057 A 
HETATM   19  C14 UNL     1      23.326   3.698  51.476  1.00  0.00     0.053 A 
HETATM   20  C19 UNL     1      25.131   1.843  51.957  1.00  0.00     0.089 A 
HETATM   21  C17 UNL     1      23.080   2.100  52.401  1.00  0.00     0.123 A 
HETATM   22  C18 UNL     1      24.070   1.123  52.637  1.00  0.00     0.096 A 
HETATM   23  O2  UNL     1      26.395   1.351  51.865  1.00  0.00    -0.350 OA
HETATM   24  O3  UNL     1      24.167  -0.108  53.258  1.00  0.00    -0.349 OA
HETATM   25  C21 UNL     1      25.562  -0.438  53.398  1.00  0.00     0.202 C 
HETATM   26  C20 UNL     1      26.441  -0.049  52.279  1.00  0.00     0.202 C 
HETATM   27  C15 UNL     1      22.279   3.120  52.093  1.00  0.00     0.204 A 
BRANCH  27  28
HETATM   28  N3  UNL     1      20.936   3.290  52.437  1.00  0.00     0.028 NA
HETATM   29  C16 UNL     1      20.152   3.991  51.677  1.00  0.00     0.709 C 
ENDBRANCH  27  28
ENDBRANCH   9  11
ENDBRANCH   7   9
TORSDOF 3
ENDMDL
MODEL 2
REMARK VINA RESULT:      -8.4      2.932      5.294
REMARK  3 active torsions:
REMARK  status: ('A' for Active; 'I' for Inactive)
REMARK    1  A    between atoms: C7_7  and  N1_8 
REMARK    2  A    between atoms: N1_8  and  C8_9 
REMARK    3  A    between atoms: C15_18  and  N3_19 
ROOT
HETATM    1  C1  UNL     1      22.115  -1.249  54.550  1.00  0.00     0.018 C 
HETATM    2  C2  UNL     1      22.971  -0.597  53.986  1.00  0.00    -0.078 C 
HETATM    3  C3  UNL     1      23.979   0.149  53.312  1.00  0.00     0.019 A 
HETATM    4  C4  UNL     1      25.217  -0.420  53.006  1.00  0.00     0.021 A 
HETATM    5  C5  UNL     1      26.172   0.347  52.334  1.00  0.00     0.004 A 
HETATM    6  C6  UNL     1      25.886   1.673  51.975  1.00  0.00     0.029 A 
HETATM    7  C7  UNL     1      24.669   2.217  52.282  1.00  0.00     0.034 A 
HETATM    8  C22 UNL     1      23.765   1.461  52.930  1.00  0.00     0.050 A 
ENDROOT
BRANCH   7   9
HETATM    9  N1  UNL     1      24.570   3.567  51.853  1.00  0.00    -0.344 N 
HETATM   10  H5  UNL     1      25.090   4.372  52.152  1.00  0.00     0.167 HD
BRANCH   9  11
HETATM   11  C8  UNL     1      23.589   3.750  50.886  1.00  0.00     0.118 C 
HETATM   12  N2  UNL     1      23.107   2.997  49.982  1.00  0.00    -0.271 NA
HETATM   13  C9  UNL     1      22.217   2.876  48.953  1.00  0.00     0.106 C 
HETATM   14  C10 UNL     1      21.752   1.323  48.895  1.00  0.00     0.034 C 
HETATM   15  C11 UNL     1      21.128   3.617  48.354  1.00  0.00     0.027 C 
HETATM   16  C12 UNL     1      21.153   4.943  47.706  1.00  0.00     0.002 C 
HETATM   17  O1  UNL     1      21.207   6.111  48.643  1.00  0.00     0.000 OA
HETATM   18  C13 UNL     1      22.289   5.854  49.553  1.00  0.00     0.057 A 
HETATM   19  C14 UNL     1      21.187   5.346  50.081  1.00  0.00     0.053 A 
HETATM   20  C19 UNL     1      23.390   6.348  49.047  1.00  0.00     0.089 A 
HETATM   21  C17 UNL     1      22.928   5.111  50.698  1.00  0.00     0.123 A 
HETATM   22  C18 UNL     1      24.091   5.659  50.115  1.00  0.00     0.096 A 
HETATM   23  O2  UNL     1      24.045   7.095  48.118  1.00  0.00    -0.350 OA
HETATM   24  O3  UNL     1      25.454   5.646  50.343  1.00  0.00    -0.349 OA
HETATM   25  C21 UNL     1      26.058   6.675  49.536  1.00  0.00     0.202 C 
HETATM   26  C20 UNL     1      25.487   6.872  48.191  1.00  0.00     0.202 C 
HETATM   27  C15 UNL     1      21.737   4.683  51.114  1.00  0.00     0.204 A 
BRANCH  27  28
HETATM   28  N3  UNL     1      21.450   3.902  52.236  1.00  0.00     0.028 NA
HETATM   29  C16 UNL     1      20.337   3.238  52.301  1.00  0.00     0.709 C 
ENDBRANCH  27  28
ENDBRANCH   9  11
ENDBRANCH   7   9
TORSDOF 3
ENDMDL
MODEL 3
REMARK VINA RESULT:      -8.2      2.465      6.232
REMARK  3 active torsions:
REMARK  status: ('A' for Active; 'I' for Inactive)
REMARK    1  A    between atoms: C7_7  and  N1_8 
REMARK    2  A    between atoms: N1_8  and  C8_9 
REMARK    3  A    between atoms: C15_18  and  N3_19 
ROOT
HETATM    1  C1  UNL     1      24.753   8.460  49.827  1.00  0.00     0.018 C 
HETATM    2  C2  UNL     1      25.125   7.304  49.777  1.00  0.00    -0.078 C 
HETATM    3  C3  UNL     1      25.582   5.957  49.720  1.00  0.00     0.019 A 
HETATM    4  C4  UNL     1      26.704   5.605  48.966  1.00  0.00     0.021 A 
HETATM    5  C5  UNL     1      27.122   4.272  48.949  1.00  0.00     0.004 A 
HETATM    6  C6  UNL     1      26.419   3.303  49.680  1.00  0.00     0.029 A 
HETATM    7  C7  UNL     1      25.322   3.662  50.413  1.00  0.00     0.034 A 
HETATM    8  C22 UNL     1      24.936   4.950  50.415  1.00  0.00     0.050 A 
ENDROOT
BRANCH   7   9
HETATM    9  N1  UNL     1      24.737   2.548  51.070  1.00  0.00    -0.344 N 
HETATM   10  H5  UNL     1      25.178   1.783  51.548  1.00  0.00     0.167 HD
BRANCH   9  11
HETATM   11  C8  UNL     1      23.348   2.558  51.005  1.00  0.00     0.118 C 
HETATM   12  N2  UNL     1      22.471   3.443  51.263  1.00  0.00    -0.271 NA
HETATM   13  C9  UNL     1      21.142   3.752  51.307  1.00  0.00     0.106 C 
HETATM   14  C10 UNL     1      21.003   5.339  51.004  1.00  0.00     0.034 C 
HETATM   15  C11 UNL     1      19.872   3.181  50.914  1.00  0.00     0.027 C 
HETATM   16  C12 UNL     1      19.232   1.933  51.372  1.00  0.00     0.002 C 
HETATM   17  O1  UNL     1      19.787   0.675  50.778  1.00  0.00     0.000 OA
HETATM   18  C13 UNL     1      21.212   0.733  50.956  1.00  0.00     0.057 A 
HETATM   19  C14 UNL     1      20.926   1.286  49.787  1.00  0.00     0.053 A 
HETATM   20  C19 UNL     1      21.514   0.194  52.109  1.00  0.00     0.089 A 
HETATM   21  C17 UNL     1      22.578   1.292  50.649  1.00  0.00     0.123 A 
HETATM   22  C18 UNL     1      22.859   0.700  51.898  1.00  0.00     0.096 A 
HETATM   23  O2  UNL     1      21.174  -0.512  53.221  1.00  0.00    -0.350 OA
HETATM   24  O3  UNL     1      23.941   0.561  52.745  1.00  0.00    -0.349 OA
HETATM   25  C21 UNL     1      23.617  -0.431  53.738  1.00  0.00     0.202 C 
HETATM   26  C20 UNL     1      22.227  -0.434  54.230  1.00  0.00     0.202 C 
HETATM   27  C15 UNL     1      22.140   1.785  49.491  1.00  0.00     0.204 A 
BRANCH  27  28
HETATM   28  N3  UNL     1      22.873   2.470  48.518  1.00  0.00     0.028 NA
HETATM   29  C16 UNL     1      22.268   3.249  47.674  1.00  0.00     0.709 C 
ENDBRANCH  27  28
ENDBRANCH   9  11
ENDBRANCH   7   9
TORSDOF 3
ENDMDL
MODEL 4
REMARK VINA RESULT:      -7.9      2.689      6.504
REMARK  3 active torsions:
REMARK  status: ('A' for Active; 'I' for Inactive)
REMARK    1  A    between atoms: C7_7  and  N1_8 
REMARK    2  A    between atoms: N1_8  and  C8_9 
REMARK    3  A    between atoms: C15_18  and  N3_19 
ROOT
HETATM    1  C1  UNL     1      27.629   4.748  48.609  1.00  0.00     0.018 C 
HETATM    2  C2  UNL     1      26.933   4.162  49.415  1.00  0.00    -0.078 C 
HETATM    3  C3  UNL     1      26.137   3.470  50.371  1.00  0.00     0.019 A 
HETATM    4  C4  UNL     1      26.566   2.267  50.936  1.00  0.00     0.021 A 
HETATM    5  C5  UNL     1      25.756   1.630  51.879  1.00  0.00     0.004 A 
HETATM    6  C6  UNL     1      24.526   2.196  52.249  1.00  0.00     0.029 A 
HETATM    7  C7  UNL     1      24.119   3.374  51.688  1.00  0.00     0.034 A 
HETATM    8  C22 UNL     1      24.914   3.970  50.781  1.00  0.00     0.050 A 
ENDROOT
BRANCH   7   9
HETATM    9  N1  UNL     1      22.849   3.780  52.173  1.00  0.00    -0.344 N 
HETATM   10  H5  UNL     1      22.605   4.212  53.047  1.00  0.00     0.167 HD
BRANCH   9  11
HETATM   11  C8  UNL     1      21.822   3.509  51.276  1.00  0.00     0.118 C 
HETATM   12  N2  UNL     1      21.751   2.798  50.224  1.00  0.00    -0.271 NA
HETATM   13  C9  UNL     1      20.967   2.356  49.196  1.00  0.00     0.106 C 
HETATM   14  C10 UNL     1      21.495   0.879  48.785  1.00  0.00     0.034 C 
HETATM   15  C11 UNL     1      19.580   2.387  48.787  1.00  0.00     0.027 C 
HETATM   16  C12 UNL     1      18.733   3.551  48.460  1.00  0.00     0.002 C 
HETATM   17  O1  UNL     1      18.224   4.322  49.640  1.00  0.00     0.000 OA
HETATM   18  C13 UNL     1      19.367   4.608  50.464  1.00  0.00     0.057 A 
HETATM   19  C14 UNL     1      18.856   3.453  50.864  1.00  0.00     0.053 A 
HETATM   20  C19 UNL     1      19.887   5.746  50.082  1.00  0.00     0.089 A 
HETATM   21  C17 UNL     1      20.472   4.205  51.406  1.00  0.00     0.123 A 
HETATM   22  C18 UNL     1      20.999   5.436  50.963  1.00  0.00     0.096 A 
HETATM   23  O2  UNL     1      19.843   6.890  49.348  1.00  0.00    -0.350 OA
HETATM   24  O3  UNL     1      22.127   6.204  51.178  1.00  0.00    -0.349 OA
HETATM   25  C21 UNL     1      21.895   7.515  50.628  1.00  0.00     0.202 C 
HETATM   26  C20 UNL     1      21.136   7.570  49.365  1.00  0.00     0.202 C 
HETATM   27  C15 UNL     1      19.829   3.080  51.716  1.00  0.00     0.204 A 
BRANCH  27  28
HETATM   28  N3  UNL     1      20.213   2.095  52.629  1.00  0.00     0.028 NA
HETATM   29  C16 UNL     1      19.754   0.887  52.517  1.00  0.00     0.709 C 
ENDBRANCH  27  28
ENDBRANCH   9  11
ENDBRANCH   7   9
TORSDOF 3
ENDMDL
MODEL 5
REMARK VINA RESULT:      -7.6      2.620      4.806
REMARK  3 active torsions:
REMARK  status: ('A' for Active; 'I' for Inactive)
REMARK    1  A    between atoms: C7_7  and  N1_8 
REMARK    2  A    between atoms: N1_8  and  C8_9 
REMARK    3  A    between atoms: C15_18  and  N3_19 
ROOT
HETATM    1  C1  UNL     1      17.772  -0.886  52.823  1.00  0.00     0.018 C 
HETATM    2  C2  UNL     1      18.921  -0.503  52.720  1.00  0.00    -0.078 C 
HETATM    3  C3  UNL     1      20.273  -0.071  52.613  1.00  0.00     0.019 A 
HETATM    4  C4  UNL     1      21.142  -0.135  53.704  1.00  0.00     0.021 A 
HETATM    5  C5  UNL     1      22.464   0.290  53.548  1.00  0.00     0.004 A 
HETATM    6  C6  UNL     1      22.907   0.775  52.309  1.00  0.00     0.029 A 
HETATM    7  C7  UNL     1      22.045   0.832  51.249  1.00  0.00     0.034 A 
HETATM    8  C22 UNL     1      20.777   0.420  51.421  1.00  0.00     0.050 A 
ENDROOT
BRANCH   7   9
HETATM    9  N1  UNL     1      22.667   1.362  50.088  1.00  0.00    -0.344 N 
HETATM   10  H5  UNL     1      22.861   0.920  49.208  1.00  0.00     0.167 HD
BRANCH   9  11
HETATM   11  C8  UNL     1      23.057   2.687  50.249  1.00  0.00     0.118 C 
HETATM   12  N2  UNL     1      22.926   3.523  51.198  1.00  0.00    -0.271 NA
HETATM   13  C9  UNL     1      23.167   4.793  51.641  1.00  0.00     0.106 C 
HETATM   14  C10 UNL     1      23.336   4.720  53.252  1.00  0.00     0.034 C 
HETATM   15  C11 UNL     1      23.903   5.971  51.238  1.00  0.00     0.027 C 
HETATM   16  C12 UNL     1      23.734   6.806  50.032  1.00  0.00     0.002 C 
HETATM   17  O1  UNL     1      24.302   6.229  48.771  1.00  0.00     0.000 OA
HETATM   18  C13 UNL     1      23.787   4.891  48.667  1.00  0.00     0.057 A 
HETATM   19  C14 UNL     1      24.930   4.836  49.333  1.00  0.00     0.053 A 
HETATM   20  C19 UNL     1      22.655   4.926  48.013  1.00  0.00     0.089 A 
HETATM   21  C17 UNL     1      23.707   3.450  49.101  1.00  0.00     0.123 A 
HETATM   22  C18 UNL     1      22.492   3.533  48.390  1.00  0.00     0.096 A 
HETATM   23  O2  UNL     1      21.730   5.585  47.264  1.00  0.00    -0.350 OA
HETATM   24  O3  UNL     1      21.431   2.706  48.075  1.00  0.00    -0.349 OA
HETATM   25  C21 UNL     1      20.646   3.344  47.050  1.00  0.00     0.202 C 
HETATM   26  C20 UNL     1      20.498   4.808  47.155  1.00  0.00     0.202 C 
HETATM   27  C15 UNL     1      24.882   3.549  49.723  1.00  0.00     0.204 A 
BRANCH  27  28
HETATM   28  N3  UNL     1      25.582   2.547  50.399  1.00  0.00     0.028 NA
HETATM   29  C16 UNL     1      26.546   2.857  51.210  1.00  0.00     0.709 C 
ENDBRANCH  27  28
ENDBRANCH   9  11
ENDBRANCH   7   9
TORSDOF 3
ENDMDL
MODEL 6
REMARK VINA RESULT:      -7.5      8.063     12.089
REMARK  3 active torsions:
REMARK  status: ('A' for Active; 'I' for Inactive)
REMARK    1  A    between atoms: C7_7  and  N1_8 
REMARK    2  A    between atoms: N1_8  and  C8_9 
REMARK    3  A    between atoms: C15_18  and  N3_19 
ROOT
HETATM    1  C1  UNL     1      35.629   8.345  48.323  1.00  0.00     0.018 C 
HETATM    2  C2  UNL     1      34.924   7.366  48.176  1.00  0.00    -0.078 C 
HETATM    3  C3  UNL     1      34.113   6.207  48.018  1.00  0.00     0.019 A 
HETATM    4  C4  UNL     1      34.680   4.935  47.915  1.00  0.00     0.021 A 
HETATM    5  C5  UNL     1      33.843   3.826  47.772  1.00  0.00     0.004 A 
HETATM    6  C6  UNL     1      32.450   3.993  47.732  1.00  0.00     0.029 A 
HETATM    7  C7  UNL     1      31.910   5.245  47.834  1.00  0.00     0.034 A 
HETATM    8  C22 UNL     1      32.733   6.299  47.969  1.00  0.00     0.050 A 
ENDROOT
BRANCH   7   9
HETATM    9  N1  UNL     1      30.492   5.216  47.758  1.00  0.00    -0.344 N 
HETATM   10  H5  UNL     1      29.877   4.448  47.557  1.00  0.00     0.167 HD
BRANCH   9  11
HETATM   11  C8  UNL     1      29.919   6.461  47.992  1.00  0.00     0.118 C 
HETATM   12  N2  UNL     1      30.226   7.430  48.757  1.00  0.00    -0.271 NA
HETATM   13  C9  UNL     1      29.904   8.683  49.196  1.00  0.00     0.106 C 
HETATM   14  C10 UNL     1      31.289   9.430  49.584  1.00  0.00     0.034 C 
HETATM   15  C11 UNL     1      28.977   9.748  48.882  1.00  0.00     0.027 C 
HETATM   16  C12 UNL     1      27.501   9.740  48.928  1.00  0.00     0.002 C 
HETATM   17  O1  UNL     1      26.830   9.048  47.781  1.00  0.00     0.000 OA
HETATM   18  C13 UNL     1      27.446   7.754  47.667  1.00  0.00     0.057 A 
HETATM   19  C14 UNL     1      28.124   8.596  46.902  1.00  0.00     0.053 A 
HETATM   20  C19 UNL     1      26.790   6.909  48.420  1.00  0.00     0.089 A 
HETATM   21  C17 UNL     1      28.601   6.847  47.331  1.00  0.00     0.123 A 
HETATM   22  C18 UNL     1      27.864   5.969  48.154  1.00  0.00     0.096 A 
HETATM   23  O2  UNL     1      25.726   6.587  49.204  1.00  0.00    -0.350 OA
HETATM   24  O3  UNL     1      27.975   4.677  48.630  1.00  0.00    -0.349 OA
HETATM   25  C21 UNL     1      26.706   4.289  49.190  1.00  0.00     0.202 C 
HETATM   26  C20 UNL     1      25.965   5.335  49.918  1.00  0.00     0.202 C 
HETATM   27  C15 UNL     1      29.160   7.798  46.583  1.00  0.00     0.204 A 
BRANCH  27  28
HETATM   28  N3  UNL     1      30.336   7.720  45.833  1.00  0.00     0.028 NA
HETATM   29  C16 UNL     1      30.964   8.802  45.490  1.00  0.00     0.709 C 
ENDBRANCH  27  28
ENDBRANCH   9  11
ENDBRANCH   7   9
TORSDOF 3
ENDMDL
MODEL 7
REMARK VINA RESULT:      -7.3      8.610     11.359
REMARK  3 active torsions:
REMARK  status: ('A' for Active; 'I' for Inactive)
REMARK    1  A    between atoms: C7_7  and  N1_8 
REMARK    2  A    between atoms: N1_8  and  C8_9 
REMARK    3  A    between atoms: C15_18  and  N3_19 
ROOT
HETATM    1  C1  UNL     1      23.994   5.714  49.458  1.00  0.00     0.018 C 
HETATM    2  C2  UNL     1      25.035   6.068  48.941  1.00  0.00    -0.078 C 
HETATM    3  C3  UNL     1      26.248   6.506  48.339  1.00  0.00     0.019 A 
HETATM    4  C4  UNL     1      26.286   7.644  47.530  1.00  0.00     0.021 A 
HETATM    5  C5  UNL     1      27.503   8.041  46.970  1.00  0.00     0.004 A 
HETATM    6  C6  UNL     1      28.669   7.301  47.218  1.00  0.00     0.029 A 
HETATM    7  C7  UNL     1      28.616   6.189  48.012  1.00  0.00     0.034 A 
HETATM    8  C22 UNL     1      27.435   5.823  48.540  1.00  0.00     0.050 A 
ENDROOT
BRANCH   7   9
HETATM    9  N1  UNL     1      29.886   5.566  48.134  1.00  0.00    -0.344 N 
HETATM   10  H5  UNL     1      30.118   4.642  48.453  1.00  0.00     0.167 HD
BRANCH   9  11
HETATM   11  C8  UNL     1      30.930   6.403  47.757  1.00  0.00     0.118 C 
HETATM   12  N2  UNL     1      31.122   7.153  46.748  1.00  0.00    -0.271 NA
HETATM   13  C9  UNL     1      31.964   8.028  46.121  1.00  0.00     0.106 C 
HETATM   14  C10 UNL     1      31.044   9.071  45.288  1.00  0.00     0.034 C 
HETATM   15  C11 UNL     1      33.197   8.737  46.381  1.00  0.00     0.027 C 
HETATM   16  C12 UNL     1      34.542   8.194  46.655  1.00  0.00     0.002 C 
HETATM   17  O1  UNL     1      34.750   7.671  48.043  1.00  0.00     0.000 OA
HETATM   18  C13 UNL     1      33.660   6.771  48.307  1.00  0.00     0.057 A 
HETATM   19  C14 UNL     1      33.293   7.980  48.703  1.00  0.00     0.053 A 
HETATM   20  C19 UNL     1      34.004   5.569  47.920  1.00  0.00     0.089 A 
HETATM   21  C17 UNL     1      32.209   6.470  48.582  1.00  0.00     0.123 A 
HETATM   22  C18 UNL     1      32.622   5.191  48.153  1.00  0.00     0.096 A 
HETATM   23  O2  UNL     1      34.932   4.680  47.474  1.00  0.00    -0.350 OA
HETATM   24  O3  UNL     1      32.059   3.943  47.963  1.00  0.00    -0.349 OA
HETATM   25  C21 UNL     1      33.123   2.987  47.789  1.00  0.00     0.202 C 
HETATM   26  C20 UNL     1      34.296   3.446  47.022  1.00  0.00     0.202 C 
HETATM   27  C15 UNL     1      31.997   7.729  48.962  1.00  0.00     0.204 A 
BRANCH  27  28
HETATM   28  N3  UNL     1      30.812   8.292  49.441  1.00  0.00     0.028 NA
HETATM   29  C16 UNL     1      30.660   9.581  49.453  1.00  0.00     0.709 C 
ENDBRANCH  27  28
ENDBRANCH   9  11
ENDBRANCH   7   9
TORSDOF 3
ENDMDL
MODEL 8
REMARK VINA RESULT:      -7.3      3.663      5.948
REMARK  3 active torsions:
REMARK  status: ('A' for Active; 'I' for Inactive)
REMARK    1  A    between atoms: C7_7  and  N1_8 
REMARK    2  A    between atoms: N1_8  and  C8_9 
REMARK    3  A    between atoms: C15_18  and  N3_19 
ROOT
HETATM    1  C1  UNL     1      20.899   0.362  50.940  1.00  0.00     0.018 C 
HETATM    2  C2  UNL     1      21.993   0.842  51.163  1.00  0.00    -0.078 C 
HETATM    3  C3  UNL     1      23.281   1.384  51.432  1.00  0.00     0.019 A 
HETATM    4  C4  UNL     1      23.997   1.019  52.575  1.00  0.00     0.021 A 
HETATM    5  C5  UNL     1      25.263   1.569  52.791  1.00  0.00     0.004 A 
HETATM    6  C6  UNL     1      25.804   2.477  51.869  1.00  0.00     0.029 A 
HETATM    7  C7  UNL     1      25.092   2.826  50.755  1.00  0.00     0.034 A 
HETATM    8  C22 UNL     1      23.875   2.286  50.567  1.00  0.00     0.050 A 
ENDROOT
BRANCH   7   9
HETATM    9  N1  UNL     1      25.793   3.764  49.952  1.00  0.00    -0.344 N 
HETATM   10  H5  UNL     1      26.741   3.741  49.621  1.00  0.00     0.167 HD
BRANCH   9  11
HETATM   11  C8  UNL     1      25.012   4.861  49.607  1.00  0.00     0.118 C 
HETATM   12  N2  UNL     1      24.000   5.006  48.850  1.00  0.00    -0.271 NA
HETATM   13  C9  UNL     1      23.077   5.870  48.333  1.00  0.00     0.106 C 
HETATM   14  C10 UNL     1      21.713   5.029  48.085  1.00  0.00     0.034 C 
HETATM   15  C11 UNL     1      22.650   7.242  48.497  1.00  0.00     0.027 C 
HETATM   16  C12 UNL     1      23.412   8.486  48.277  1.00  0.00     0.002 C 
HETATM   17  O1  UNL     1      24.385   8.839  49.360  1.00  0.00     0.000 OA
HETATM   18  C13 UNL     1      25.182   7.666  49.591  1.00  0.00     0.057 A 
HETATM   19  C14 UNL     1      24.136   7.613  50.401  1.00  0.00     0.053 A 
HETATM   20  C19 UNL     1      26.221   7.699  48.796  1.00  0.00     0.089 A 
HETATM   21  C17 UNL     1      25.378   6.258  50.094  1.00  0.00     0.123 A 
HETATM   22  C18 UNL     1      26.484   6.336  49.221  1.00  0.00     0.096 A 
HETATM   23  O2  UNL     1      27.019   8.345  47.904  1.00  0.00    -0.350 OA
HETATM   24  O3  UNL     1      27.520   5.522  48.807  1.00  0.00    -0.349 OA
HETATM   25  C21 UNL     1      28.487   6.335  48.115  1.00  0.00     0.202 C 
HETATM   26  C20 UNL     1      27.948   7.414  47.268  1.00  0.00     0.202 C 
HETATM   27  C15 UNL     1      24.299   6.361  50.869  1.00  0.00     0.204 A 
BRANCH  27  28
HETATM   28  N3  UNL     1      23.785   5.411  51.754  1.00  0.00     0.028 NA
HETATM   29  C16 UNL     1      22.514   5.381  52.013  1.00  0.00     0.709 C 
ENDBRANCH  27  28
ENDBRANCH   9  11
ENDBRANCH   7   9
TORSDOF 3
ENDMDL
MODEL 9
REMARK VINA RESULT:      -7.0      2.739      5.997
REMARK  3 active torsions:
REMARK  status: ('A' for Active; 'I' for Inactive)
REMARK    1  A    between atoms: C7_7  and  N1_8 
REMARK    2  A    between atoms: N1_8  and  C8_9 
REMARK    3  A    between atoms: C15_18  and  N3_19 
ROOT
HETATM    1  C1  UNL     1      24.440  -1.250  55.115  1.00  0.00     0.018 C 
HETATM    2  C2  UNL     1      24.654  -0.421  54.253  1.00  0.00    -0.078 C 
HETATM    3  C3  UNL     1      24.912   0.533  53.229  1.00  0.00     0.019 A 
HETATM    4  C4  UNL     1      25.980   0.374  52.342  1.00  0.00     0.021 A 
HETATM    5  C5  UNL     1      26.186   1.332  51.346  1.00  0.00     0.004 A 
HETATM    6  C6  UNL     1      25.329   2.438  51.242  1.00  0.00     0.029 A 
HETATM    7  C7  UNL     1      24.288   2.580  52.117  1.00  0.00     0.034 A 
HETATM    8  C22 UNL     1      24.108   1.648  53.069  1.00  0.00     0.050 A 
ENDROOT
BRANCH   7   9
HETATM    9  N1  UNL     1      23.544   3.763  51.865  1.00  0.00    -0.344 N 
HETATM   10  H5  UNL     1      23.709   4.702  52.182  1.00  0.00     0.167 HD
BRANCH   9  11
HETATM   11  C8  UNL     1      22.428   3.533  51.068  1.00  0.00     0.118 C 
HETATM   12  N2  UNL     1      22.255   2.912  49.972  1.00  0.00    -0.271 NA
HETATM   13  C9  UNL     1      21.369   2.532  49.004  1.00  0.00     0.106 C 
HETATM   14  C10 UNL     1      21.883   1.115  48.407  1.00  0.00     0.034 C 
HETATM   15  C11 UNL     1      19.944   2.550  48.757  1.00  0.00     0.027 C 
HETATM   16  C12 UNL     1      19.037   3.708  48.631  1.00  0.00     0.002 C 
HETATM   17  O1  UNL     1      18.648   4.358  49.924  1.00  0.00     0.000 OA
HETATM   18  C13 UNL     1      19.870   4.612  50.637  1.00  0.00     0.057 A 
HETATM   19  C14 UNL     1      19.437   3.411  50.988  1.00  0.00     0.053 A 
HETATM   20  C19 UNL     1      20.315   5.795  50.301  1.00  0.00     0.089 A 
HETATM   21  C17 UNL     1      21.086   4.169  51.410  1.00  0.00     0.123 A 
HETATM   22  C18 UNL     1      21.528   5.451  51.020  1.00  0.00     0.096 A 
HETATM   23  O2  UNL     1      20.159   6.996  49.680  1.00  0.00    -0.350 OA
HETATM   24  O3  UNL     1      22.654   6.237  51.175  1.00  0.00    -0.349 OA
HETATM   25  C21 UNL     1      22.328   7.581  50.772  1.00  0.00     0.202 C 
HETATM   26  C20 UNL     1      21.428   7.716  49.612  1.00  0.00     0.202 C 
HETATM   27  C15 UNL     1      20.510   3.000  51.689  1.00  0.00     0.204 A 
BRANCH  27  28
HETATM   28  N3  UNL     1      21.020   1.956  52.464  1.00  0.00     0.028 NA
HETATM   29  C16 UNL     1      20.266   1.362  53.337  1.00  0.00     0.709 C 
ENDBRANCH  27  28
ENDBRANCH   9  11
ENDBRANCH   7   9
TORSDOF 3
ENDMDL
