MODEL 1
REMARK VINA RESULT:      -7.9      0.000      0.000
REMARK  5 active torsions:
REMARK  status: ('A' for Active; 'I' for Inactive)
REMARK    1  A    between atoms: C3_3  and  O1_4 
REMARK    2  A    between atoms: O1_4  and  C4_5 
REMARK    3  A    between atoms: N1_9  and  C8_10 
REMARK    4  A    between atoms: C11_14  and  C12_15 
REMARK    5  A    between atoms: C17_21  and  N3_22 
ROOT
HETATM    1  C4  UNL     1      24.920   5.660  50.475  1.00  0.00     0.203 C 
HETATM    2  C5  UNL     1      23.448   6.014  50.569  1.00  0.00     0.007 C 
HETATM    3  C6  UNL     1      22.602   5.520  51.464  1.00  0.00    -0.009 C 
HETATM    4  C7  UNL     1      23.355   4.558  52.356  1.00  0.00     0.150 C 
HETATM    5  N1  UNL     1      24.149   3.671  51.615  1.00  0.00    -0.342 N 
HETATM    6  C17 UNL     1      24.997   4.174  50.604  1.00  0.00     0.350 C 
ENDROOT
BRANCH   5   7
HETATM    7  C8  UNL     1      23.792   2.306  51.535  1.00  0.00     0.195 A 
HETATM    8  C9  UNL     1      22.863   1.884  50.491  1.00  0.00     0.146 A 
HETATM    9  N2  UNL     1      22.050   1.425  51.329  1.00  0.00    -0.288 NA
HETATM   10  C10 UNL     1      22.795   1.755  52.443  1.00  0.00     0.198 A 
HETATM   11  C11 UNL     1      23.928   0.994  52.959  1.00  0.00     0.159 C 
HETATM   12  O2  UNL     1      24.728   1.386  51.919  1.00  0.00    -0.346 OA
BRANCH  11  13
HETATM   13  C12 UNL     1      23.798  -0.488  53.195  1.00  0.00     0.017 C 
HETATM   14  C13 UNL     1      22.599  -0.880  53.977  1.00  0.00     0.007 C 
HETATM   15  C14 UNL     1      23.066  -1.237  55.355  1.00  0.00     0.000 C 
HETATM   16  C15 UNL     1      24.541  -1.042  55.423  1.00  0.00     0.000 C 
HETATM   17  C16 UNL     1      25.004  -0.920  54.010  1.00  0.00     0.007 C 
ENDBRANCH  11  13
ENDBRANCH   5   7
BRANCH   6  18
HETATM   18  N3  UNL     1      26.376   3.805  50.853  1.00  0.00     0.104 N 
HETATM   19  H22 UNL     1      26.599   2.815  50.726  1.00  0.00     0.315 HD
HETATM   20  H23 UNL     1      26.745   4.117  51.772  1.00  0.00     0.315 HD
ENDBRANCH   6  18
BRANCH   1  21
HETATM   21  O1  UNL     1      25.464   6.166  49.288  1.00  0.00    -0.340 OA
BRANCH  21  22
HETATM   22  C3  UNL     1      26.067   7.408  49.279  1.00  0.00     0.069 C 
HETATM   23  C2  UNL     1      27.291   7.328  48.772  1.00  0.00    -0.048 C 
HETATM   24  C1  UNL     1      27.758   5.975  48.332  1.00  0.00     0.046 C 
HETATM   25  C20 UNL     1      28.173   8.531  48.642  1.00  0.00     0.082 C 
HETATM   26  C19 UNL     1      27.976   9.355  49.865  1.00  0.00     0.088 C 
HETATM   27  N4  UNL     1      26.792   9.430  50.306  1.00  0.00    -0.299 NA
HETATM   28  C18 UNL     1      25.671   8.777  49.695  1.00  0.00     0.212 C 
ENDBRANCH  21  22
ENDBRANCH   1  21
TORSDOF 5
ENDMDL
MODEL 2
REMARK VINA RESULT:      -7.5      2.523      7.517
REMARK  5 active torsions:
REMARK  status: ('A' for Active; 'I' for Inactive)
REMARK    1  A    between atoms: C3_3  and  O1_4 
REMARK    2  A    between atoms: O1_4  and  C4_5 
REMARK    3  A    between atoms: N1_9  and  C8_10 
REMARK    4  A    between atoms: C11_14  and  C12_15 
REMARK    5  A    between atoms: C17_21  and  N3_22 
ROOT
HETATM    1  C4  UNL     1      25.438   1.800  52.329  1.00  0.00     0.203 C 
HETATM    2  C5  UNL     1      24.007   1.566  52.773  1.00  0.00     0.007 C 
HETATM    3  C6  UNL     1      22.936   1.738  52.009  1.00  0.00    -0.009 C 
HETATM    4  C7  UNL     1      23.389   2.201  50.642  1.00  0.00     0.150 C 
HETATM    5  N1  UNL     1      24.332   3.236  50.728  1.00  0.00    -0.342 N 
HETATM    6  C17 UNL     1      25.437   3.101  51.596  1.00  0.00     0.350 C 
ENDROOT
BRANCH   5   7
HETATM    7  C8  UNL     1      23.974   4.547  50.341  1.00  0.00     0.195 A 
HETATM    8  C9  UNL     1      22.559   4.866  50.169  1.00  0.00     0.146 A 
HETATM    9  N2  UNL     1      22.729   5.209  48.974  1.00  0.00    -0.288 NA
HETATM   10  C10 UNL     1      24.086   4.957  48.947  1.00  0.00     0.198 A 
HETATM   11  C11 UNL     1      25.122   5.844  49.465  1.00  0.00     0.159 C 
HETATM   12  O2  UNL     1      24.778   5.570  50.761  1.00  0.00    -0.346 OA
BRANCH  11  13
HETATM   13  C12 UNL     1      25.144   7.295  49.059  1.00  0.00     0.017 C 
HETATM   14  C13 UNL     1      25.257   7.520  47.596  1.00  0.00     0.007 C 
HETATM   15  C14 UNL     1      26.660   7.968  47.324  1.00  0.00     0.000 C 
HETATM   16  C15 UNL     1      27.409   7.996  48.610  1.00  0.00     0.000 C 
HETATM   17  C16 UNL     1      26.379   7.916  49.687  1.00  0.00     0.007 C 
ENDBRANCH  11  13
ENDBRANCH   5   7
BRANCH   6  18
HETATM   18  N3  UNL     1      26.685   3.220  50.869  1.00  0.00     0.104 N 
HETATM   19  H22 UNL     1      26.769   2.633  50.035  1.00  0.00     0.315 HD
HETATM   20  H23 UNL     1      27.536   3.101  51.452  1.00  0.00     0.315 HD
ENDBRANCH   6  18
BRANCH   1  21
HETATM   21  O1  UNL     1      26.300   1.757  53.431  1.00  0.00    -0.340 OA
BRANCH  21  22
HETATM   22  C3  UNL     1      27.044   0.622  53.683  1.00  0.00     0.069 C 
HETATM   23  C2  UNL     1      28.330   0.927  53.815  1.00  0.00    -0.048 C 
HETATM   24  C1  UNL     1      28.704   2.371  53.671  1.00  0.00     0.046 C 
HETATM   25  C20 UNL     1      29.365  -0.117  54.096  1.00  0.00     0.082 C 
HETATM   26  C19 UNL     1      29.011  -1.315  53.289  1.00  0.00     0.088 C 
HETATM   27  N4  UNL     1      27.779  -1.591  53.206  1.00  0.00    -0.299 NA
HETATM   28  C18 UNL     1      26.745  -0.824  53.838  1.00  0.00     0.212 C 
ENDBRANCH  21  22
ENDBRANCH   1  21
TORSDOF 5
ENDMDL
MODEL 3
REMARK VINA RESULT:      -7.4      4.646      6.936
REMARK  5 active torsions:
REMARK  status: ('A' for Active; 'I' for Inactive)
REMARK    1  A    between atoms: C3_3  and  O1_4 
REMARK    2  A    between atoms: O1_4  and  C4_5 
REMARK    3  A    between atoms: N1_9  and  C8_10 
REMARK    4  A    between atoms: C11_14  and  C12_15 
REMARK    5  A    between atoms: C17_21  and  N3_22 
ROOT
HETATM    1  C4  UNL     1      24.115   0.586  53.049  1.00  0.00     0.203 C 
HETATM    2  C5  UNL     1      24.567   1.649  52.066  1.00  0.00     0.007 C 
HETATM    3  C6  UNL     1      23.786   2.589  51.549  1.00  0.00    -0.009 C 
HETATM    4  C7  UNL     1      22.390   2.412  52.104  1.00  0.00     0.150 C 
HETATM    5  N1  UNL     1      21.970   1.076  52.046  1.00  0.00    -0.342 N 
HETATM    6  C17 UNL     1      22.823   0.056  52.520  1.00  0.00     0.350 C 
ENDROOT
BRANCH   5   7
HETATM    7  C8  UNL     1      20.957   0.696  51.135  1.00  0.00     0.195 A 
HETATM    8  C9  UNL     1      21.262   0.700  49.707  1.00  0.00     0.146 A 
HETATM    9  N2  UNL     1      20.339   1.512  49.460  1.00  0.00    -0.288 NA
HETATM   10  C10 UNL     1      19.912   1.641  50.766  1.00  0.00     0.198 A 
HETATM   11  C11 UNL     1      19.046   0.701  51.469  1.00  0.00     0.159 C 
HETATM   12  O2  UNL     1      20.045  -0.231  51.557  1.00  0.00    -0.346 OA
BRANCH  11  13
HETATM   13  C12 UNL     1      17.751   0.252  50.842  1.00  0.00     0.017 C 
HETATM   14  C13 UNL     1      16.738   1.327  50.695  1.00  0.00     0.007 C 
HETATM   15  C14 UNL     1      15.696   1.099  51.746  1.00  0.00     0.000 C 
HETATM   16  C15 UNL     1      16.080  -0.096  52.547  1.00  0.00     0.000 C 
HETATM   17  C16 UNL     1      17.144  -0.790  51.764  1.00  0.00     0.007 C 
ENDBRANCH  11  13
ENDBRANCH   5   7
BRANCH   6  18
HETATM   18  N3  UNL     1      22.179  -0.714  53.565  1.00  0.00     0.104 N 
HETATM   19  H22 UNL     1      22.392  -0.423  54.523  1.00  0.00     0.315 HD
HETATM   20  H23 UNL     1      22.313  -1.740  53.489  1.00  0.00     0.315 HD
ENDBRANCH   6  18
BRANCH   1  21
HETATM   21  O1  UNL     1      25.115  -0.381  53.209  1.00  0.00    -0.340 OA
BRANCH  21  22
HETATM   22  C3  UNL     1      26.409   0.004  53.496  1.00  0.00     0.069 C 
HETATM   23  C2  UNL     1      27.273  -0.905  53.062  1.00  0.00    -0.048 C 
HETATM   24  C1  UNL     1      26.705  -2.112  52.379  1.00  0.00     0.046 C 
HETATM   25  C20 UNL     1      28.751  -0.741  53.240  1.00  0.00     0.082 C 
HETATM   26  C19 UNL     1      28.968  -0.161  54.592  1.00  0.00     0.088 C 
HETATM   27  N4  UNL     1      28.140   0.722  54.964  1.00  0.00    -0.299 NA
HETATM   28  C18 UNL     1      27.040   1.171  54.161  1.00  0.00     0.212 C 
ENDBRANCH  21  22
ENDBRANCH   1  21
TORSDOF 5
ENDMDL
MODEL 4
REMARK VINA RESULT:      -7.4      3.083      7.392
REMARK  5 active torsions:
REMARK  status: ('A' for Active; 'I' for Inactive)
REMARK    1  A    between atoms: C3_3  and  O1_4 
REMARK    2  A    between atoms: O1_4  and  C4_5 
REMARK    3  A    between atoms: N1_9  and  C8_10 
REMARK    4  A    between atoms: C11_14  and  C12_15 
REMARK    5  A    between atoms: C17_21  and  N3_22 
ROOT
HETATM    1  C4  UNL     1      26.036   2.946  51.552  1.00  0.00     0.203 C 
HETATM    2  C5  UNL     1      26.648   2.916  50.165  1.00  0.00     0.007 C 
HETATM    3  C6  UNL     1      26.516   3.872  49.254  1.00  0.00    -0.009 C 
HETATM    4  C7  UNL     1      25.663   4.976  49.837  1.00  0.00     0.150 C 
HETATM    5  N1  UNL     1      24.512   4.473  50.460  1.00  0.00    -0.342 N 
HETATM    6  C17 UNL     1      24.625   3.403  51.373  1.00  0.00     0.350 C 
ENDROOT
BRANCH   5   7
HETATM    7  C8  UNL     1      23.244   4.686  49.872  1.00  0.00     0.195 A 
HETATM    8  C9  UNL     1      22.655   3.617  49.069  1.00  0.00     0.146 A 
HETATM    9  N2  UNL     1      22.578   4.352  48.055  1.00  0.00    -0.288 NA
HETATM   10  C10 UNL     1      23.125   5.470  48.650  1.00  0.00     0.198 A 
HETATM   11  C11 UNL     1      22.411   6.402  49.516  1.00  0.00     0.159 C 
HETATM   12  O2  UNL     1      22.366   5.494  50.540  1.00  0.00    -0.346 OA
BRANCH  11  13
HETATM   13  C12 UNL     1      21.097   6.991  49.072  1.00  0.00     0.017 C 
HETATM   14  C13 UNL     1      21.102   7.521  47.685  1.00  0.00     0.007 C 
HETATM   15  C14 UNL     1      21.136   9.015  47.782  1.00  0.00     0.000 C 
HETATM   16  C15 UNL     1      21.175   9.398  49.221  1.00  0.00     0.000 C 
HETATM   17  C16 UNL     1      20.804   8.170  49.982  1.00  0.00     0.007 C 
ENDBRANCH  11  13
ENDBRANCH   5   7
BRANCH   6  18
HETATM   18  N3  UNL     1      24.092   3.768  52.670  1.00  0.00     0.104 N 
HETATM   19  H22 UNL     1      23.269   4.377  52.654  1.00  0.00     0.315 HD
HETATM   20  H23 UNL     1      24.791   4.165  53.326  1.00  0.00     0.315 HD
ENDBRANCH   6  18
BRANCH   1  21
HETATM   21  O1  UNL     1      26.165   1.694  52.166  1.00  0.00    -0.340 OA
BRANCH  21  22
HETATM   22  C3  UNL     1      27.320   1.378  52.854  1.00  0.00     0.069 C 
HETATM   23  C2  UNL     1      27.513   0.065  52.861  1.00  0.00    -0.048 C 
HETATM   24  C1  UNL     1      26.493  -0.777  52.157  1.00  0.00     0.046 C 
HETATM   25  C20 UNL     1      28.695  -0.557  53.538  1.00  0.00     0.082 C 
HETATM   26  C19 UNL     1      28.917   0.189  54.806  1.00  0.00     0.088 C 
HETATM   27  N4  UNL     1      28.749   1.442  54.756  1.00  0.00    -0.299 NA
HETATM   28  C18 UNL     1      28.368   2.150  53.569  1.00  0.00     0.212 C 
ENDBRANCH  21  22
ENDBRANCH   1  21
TORSDOF 5
ENDMDL
MODEL 5
REMARK VINA RESULT:      -7.3      3.241      7.023
REMARK  5 active torsions:
REMARK  status: ('A' for Active; 'I' for Inactive)
REMARK    1  A    between atoms: C3_3  and  O1_4 
REMARK    2  A    between atoms: O1_4  and  C4_5 
REMARK    3  A    between atoms: N1_9  and  C8_10 
REMARK    4  A    between atoms: C11_14  and  C12_15 
REMARK    5  A    between atoms: C17_21  and  N3_22 
ROOT
HETATM    1  C4  UNL     1      26.167   3.091  51.392  1.00  0.00     0.203 C 
HETATM    2  C5  UNL     1      26.708   3.183  49.978  1.00  0.00     0.007 C 
HETATM    3  C6  UNL     1      26.548   4.222  49.169  1.00  0.00    -0.009 C 
HETATM    4  C7  UNL     1      25.745   5.278  49.895  1.00  0.00     0.150 C 
HETATM    5  N1  UNL     1      24.618   4.734  50.527  1.00  0.00    -0.342 N 
HETATM    6  C17 UNL     1      24.757   3.581  51.329  1.00  0.00     0.350 C 
ENDROOT
BRANCH   5   7
HETATM    7  C8  UNL     1      23.326   5.018  50.028  1.00  0.00     0.195 A 
HETATM    8  C9  UNL     1      22.291   5.444  50.965  1.00  0.00     0.146 A 
HETATM    9  N2  UNL     1      21.543   4.487  50.652  1.00  0.00    -0.288 NA
HETATM   10  C10 UNL     1      22.402   3.933  49.726  1.00  0.00     0.198 A 
HETATM   11  C11 UNL     1      22.575   4.392  48.352  1.00  0.00     0.159 C 
HETATM   12  O2  UNL     1      23.237   5.519  48.759  1.00  0.00    -0.346 OA
BRANCH  11  13
HETATM   13  C12 UNL     1      21.373   4.592  47.466  1.00  0.00     0.017 C 
HETATM   14  C13 UNL     1      21.096   3.460  46.546  1.00  0.00     0.007 C 
HETATM   15  C14 UNL     1      21.519   3.890  45.175  1.00  0.00     0.000 C 
HETATM   16  C15 UNL     1      22.073   5.269  45.258  1.00  0.00     0.000 C 
HETATM   17  C16 UNL     1      21.658   5.799  46.590  1.00  0.00     0.007 C 
ENDBRANCH  11  13
ENDBRANCH   5   7
BRANCH   6  18
HETATM   18  N3  UNL     1      24.297   3.830  52.680  1.00  0.00     0.104 N 
HETATM   19  H22 UNL     1      24.292   3.018  53.303  1.00  0.00     0.315 HD
HETATM   20  H23 UNL     1      23.376   4.305  52.740  1.00  0.00     0.315 HD
ENDBRANCH   6  18
BRANCH   1  21
HETATM   21  O1  UNL     1      26.304   1.785  51.878  1.00  0.00    -0.340 OA
BRANCH  21  22
HETATM   22  C3  UNL     1      27.373   1.458  52.689  1.00  0.00     0.069 C 
HETATM   23  C2  UNL     1      27.492   0.140  52.796  1.00  0.00    -0.048 C 
HETATM   24  C1  UNL     1      26.493  -0.695  52.054  1.00  0.00     0.046 C 
HETATM   25  C20 UNL     1      28.572  -0.493  53.617  1.00  0.00     0.082 C 
HETATM   26  C19 UNL     1      28.721   0.325  54.851  1.00  0.00     0.088 C 
HETATM   27  N4  UNL     1      28.628   1.579  54.708  1.00  0.00    -0.299 NA
HETATM   28  C18 UNL     1      28.394   2.223  53.449  1.00  0.00     0.212 C 
ENDBRANCH  21  22
ENDBRANCH   1  21
TORSDOF 5
ENDMDL
MODEL 6
REMARK VINA RESULT:      -7.3      1.806      8.312
REMARK  5 active torsions:
REMARK  status: ('A' for Active; 'I' for Inactive)
REMARK    1  A    between atoms: C3_3  and  O1_4 
REMARK    2  A    between atoms: O1_4  and  C4_5 
REMARK    3  A    between atoms: N1_9  and  C8_10 
REMARK    4  A    between atoms: C11_14  and  C12_15 
REMARK    5  A    between atoms: C17_21  and  N3_22 
ROOT
HETATM    1  C4  UNL     1      23.259   1.951  51.538  1.00  0.00     0.203 C 
HETATM    2  C5  UNL     1      22.246   1.910  50.410  1.00  0.00     0.007 C 
HETATM    3  C6  UNL     1      22.443   2.398  49.192  1.00  0.00    -0.009 C 
HETATM    4  C7  UNL     1      23.833   2.992  49.132  1.00  0.00     0.150 C 
HETATM    5  N1  UNL     1      24.099   3.810  50.239  1.00  0.00    -0.342 N 
HETATM    6  C17 UNL     1      23.821   3.335  51.540  1.00  0.00     0.350 C 
ENDROOT
BRANCH   5   7
HETATM    7  C8  UNL     1      24.194   5.210  50.073  1.00  0.00     0.195 A 
HETATM    8  C9  UNL     1      23.030   6.034  50.386  1.00  0.00     0.146 A 
HETATM    9  N2  UNL     1      22.987   6.506  49.225  1.00  0.00    -0.288 NA
HETATM   10  C10 UNL     1      24.072   5.801  48.747  1.00  0.00     0.198 A 
HETATM   11  C11 UNL     1      25.472   6.155  48.959  1.00  0.00     0.159 C 
HETATM   12  O2  UNL     1      25.416   5.788  50.277  1.00  0.00    -0.346 OA
BRANCH  11  13
HETATM   13  C12 UNL     1      25.950   7.552  48.661  1.00  0.00     0.017 C 
HETATM   14  C13 UNL     1      25.705   7.999  47.267  1.00  0.00     0.007 C 
HETATM   15  C14 UNL     1      27.021   7.963  46.552  1.00  0.00     0.000 C 
HETATM   16  C15 UNL     1      28.063   7.475  47.497  1.00  0.00     0.000 C 
HETATM   17  C16 UNL     1      27.456   7.561  48.858  1.00  0.00     0.007 C 
ENDBRANCH  11  13
ENDBRANCH   5   7
BRANCH   6  18
HETATM   18  N3  UNL     1      25.014   3.346  52.362  1.00  0.00     0.104 N 
HETATM   19  H22 UNL     1      25.175   4.204  52.897  1.00  0.00     0.315 HD
HETATM   20  H23 UNL     1      25.886   3.096  51.858  1.00  0.00     0.315 HD
ENDBRANCH   6  18
BRANCH   1  21
HETATM   21  O1  UNL     1      22.656   1.570  52.744  1.00  0.00    -0.340 OA
BRANCH  21  22
HETATM   22  C3  UNL     1      23.032   0.395  53.363  1.00  0.00     0.069 C 
HETATM   23  C2  UNL     1      21.998  -0.152  53.991  1.00  0.00    -0.048 C 
HETATM   24  C1  UNL     1      20.691   0.576  53.911  1.00  0.00     0.046 C 
HETATM   25  C20 UNL     1      22.122  -1.439  54.747  1.00  0.00     0.082 C 
HETATM   26  C19 UNL     1      23.431  -1.409  55.451  1.00  0.00     0.088 C 
HETATM   27  N4  UNL     1      24.401  -0.904  54.813  1.00  0.00    -0.299 NA
HETATM   28  C18 UNL     1      24.293  -0.379  53.483  1.00  0.00     0.212 C 
ENDBRANCH  21  22
ENDBRANCH   1  21
TORSDOF 5
ENDMDL
MODEL 7
REMARK VINA RESULT:      -7.3      3.409      6.256
REMARK  5 active torsions:
REMARK  status: ('A' for Active; 'I' for Inactive)
REMARK    1  A    between atoms: C3_3  and  O1_4 
REMARK    2  A    between atoms: O1_4  and  C4_5 
REMARK    3  A    between atoms: N1_9  and  C8_10 
REMARK    4  A    between atoms: C11_14  and  C12_15 
REMARK    5  A    between atoms: C17_21  and  N3_22 
ROOT
HETATM    1  C4  UNL     1      25.720   2.272  51.510  1.00  0.00     0.203 C 
HETATM    2  C5  UNL     1      26.453   2.867  50.323  1.00  0.00     0.007 C 
HETATM    3  C6  UNL     1      26.062   3.941  49.648  1.00  0.00    -0.009 C 
HETATM    4  C7  UNL     1      24.779   4.454  50.262  1.00  0.00     0.150 C 
HETATM    5  N1  UNL     1      23.857   3.422  50.483  1.00  0.00    -0.342 N 
HETATM    6  C17 UNL     1      24.276   2.239  51.131  1.00  0.00     0.350 C 
ENDROOT
BRANCH   5   7
HETATM    7  C8  UNL     1      22.687   3.342  49.693  1.00  0.00     0.195 A 
HETATM    8  C9  UNL     1      22.665   4.025  48.402  1.00  0.00     0.146 A 
HETATM    9  N2  UNL     1      21.671   4.717  48.728  1.00  0.00    -0.288 NA
HETATM   10  C10 UNL     1      21.539   4.187  49.995  1.00  0.00     0.198 A 
HETATM   11  C11 UNL     1      20.900   2.916  50.318  1.00  0.00     0.159 C 
HETATM   12  O2  UNL     1      21.940   2.201  49.786  1.00  0.00    -0.346 OA
BRANCH  11  13
HETATM   13  C12 UNL     1      19.523   2.608  49.791  1.00  0.00     0.017 C 
HETATM   14  C13 UNL     1      18.422   3.276  50.528  1.00  0.00     0.007 C 
HETATM   15  C14 UNL     1      17.757   2.232  51.372  1.00  0.00     0.000 C 
HETATM   16  C15 UNL     1      18.461   0.936  51.169  1.00  0.00     0.000 C 
HETATM   17  C16 UNL     1      19.305   1.114  49.952  1.00  0.00     0.007 C 
ENDBRANCH  11  13
ENDBRANCH   5   7
BRANCH   6  18
HETATM   18  N3  UNL     1      23.492   1.997  52.325  1.00  0.00     0.104 N 
HETATM   19  H22 UNL     1      23.997   1.567  53.105  1.00  0.00     0.315 HD
HETATM   20  H23 UNL     1      22.612   1.471  52.164  1.00  0.00     0.315 HD
ENDBRANCH   6  18
BRANCH   1  21
HETATM   21  O1  UNL     1      26.261   1.023  51.836  1.00  0.00    -0.340 OA
BRANCH  21  22
HETATM   22  C3  UNL     1      27.366   0.942  52.660  1.00  0.00     0.069 C 
HETATM   23  C2  UNL     1      27.632  -0.324  52.960  1.00  0.00    -0.048 C 
HETATM   24  C1  UNL     1      26.727  -1.366  52.376  1.00  0.00     0.046 C 
HETATM   25  C20 UNL     1      28.783  -0.703  53.840  1.00  0.00     0.082 C 
HETATM   26  C19 UNL     1      28.848   0.303  54.934  1.00  0.00     0.088 C 
HETATM   27  N4  UNL     1      28.615   1.503  54.607  1.00  0.00    -0.299 NA
HETATM   28  C18 UNL     1      28.301   1.919  53.271  1.00  0.00     0.212 C 
ENDBRANCH  21  22
ENDBRANCH   1  21
TORSDOF 5
ENDMDL
MODEL 8
REMARK VINA RESULT:      -7.1      2.732      7.282
REMARK  5 active torsions:
REMARK  status: ('A' for Active; 'I' for Inactive)
REMARK    1  A    between atoms: C3_3  and  O1_4 
REMARK    2  A    between atoms: O1_4  and  C4_5 
REMARK    3  A    between atoms: N1_9  and  C8_10 
REMARK    4  A    between atoms: C11_14  and  C12_15 
REMARK    5  A    between atoms: C17_21  and  N3_22 
ROOT
HETATM    1  C4  UNL     1      25.238   1.353  52.093  1.00  0.00     0.203 C 
HETATM    2  C5  UNL     1      24.329   0.695  53.113  1.00  0.00     0.007 C 
HETATM    3  C6  UNL     1      23.005   0.649  53.035  1.00  0.00    -0.009 C 
HETATM    4  C7  UNL     1      22.574   1.357  51.770  1.00  0.00     0.150 C 
HETATM    5  N1  UNL     1      23.217   2.594  51.618  1.00  0.00    -0.342 N 
HETATM    6  C17 UNL     1      24.618   2.674  51.776  1.00  0.00     0.350 C 
ENDROOT
BRANCH   5   7
HETATM    7  C8  UNL     1      22.483   3.792  51.769  1.00  0.00     0.195 A 
HETATM    8  C9  UNL     1      21.137   3.723  52.331  1.00  0.00     0.146 A 
HETATM    9  N2  UNL     1      20.630   4.251  51.312  1.00  0.00    -0.288 NA
HETATM   10  C10 UNL     1      21.816   4.393  50.622  1.00  0.00     0.198 A 
HETATM   11  C11 UNL     1      22.791   5.459  50.825  1.00  0.00     0.159 C 
HETATM   12  O2  UNL     1      23.188   4.935  52.025  1.00  0.00    -0.346 OA
BRANCH  11  13
HETATM   13  C12 UNL     1      22.346   6.899  50.825  1.00  0.00     0.017 C 
HETATM   14  C13 UNL     1      21.570   7.299  49.624  1.00  0.00     0.007 C 
HETATM   15  C14 UNL     1      22.477   8.130  48.769  1.00  0.00     0.000 C 
HETATM   16  C15 UNL     1      23.808   8.219  49.431  1.00  0.00     0.000 C 
HETATM   17  C16 UNL     1      23.599   7.755  50.834  1.00  0.00     0.007 C 
ENDBRANCH  11  13
ENDBRANCH   5   7
BRANCH   6  18
HETATM   18  N3  UNL     1      25.245   3.202  50.581  1.00  0.00     0.104 N 
HETATM   19  H22 UNL     1      24.627   3.323  49.774  1.00  0.00     0.315 HD
HETATM   20  H23 UNL     1      26.096   2.689  50.279  1.00  0.00     0.315 HD
ENDBRANCH   6  18
BRANCH   1  21
HETATM   21  O1  UNL     1      26.545   1.431  52.588  1.00  0.00    -0.340 OA
BRANCH  21  22
HETATM   22  C3  UNL     1      27.168   0.300  53.079  1.00  0.00     0.069 C 
HETATM   23  C2  UNL     1      28.308   0.619  53.679  1.00  0.00    -0.048 C 
HETATM   24  C1  UNL     1      28.681   2.070  53.705  1.00  0.00     0.046 C 
HETATM   25  C20 UNL     1      29.189  -0.418  54.304  1.00  0.00     0.082 C 
HETATM   26  C19 UNL     1      29.180  -1.602  53.404  1.00  0.00     0.088 C 
HETATM   27  N4  UNL     1      28.070  -1.892  52.870  1.00  0.00    -0.299 NA
HETATM   28  C18 UNL     1      26.861  -1.152  53.089  1.00  0.00     0.212 C 
ENDBRANCH  21  22
ENDBRANCH   1  21
TORSDOF 5
ENDMDL
MODEL 9
REMARK VINA RESULT:      -7.0      1.998      2.574
REMARK  5 active torsions:
REMARK  status: ('A' for Active; 'I' for Inactive)
REMARK    1  A    between atoms: C3_3  and  O1_4 
REMARK    2  A    between atoms: O1_4  and  C4_5 
REMARK    3  A    between atoms: N1_9  and  C8_10 
REMARK    4  A    between atoms: C11_14  and  C12_15 
REMARK    5  A    between atoms: C17_21  and  N3_22 
ROOT
HETATM    1  C4  UNL     1      24.053   5.587  49.986  1.00  0.00     0.203 C 
HETATM    2  C5  UNL     1      22.599   5.509  50.409  1.00  0.00     0.007 C 
HETATM    3  C6  UNL     1      22.169   5.026  51.568  1.00  0.00    -0.009 C 
HETATM    4  C7  UNL     1      23.366   4.575  52.374  1.00  0.00     0.150 C 
HETATM    5  N1  UNL     1      24.251   3.804  51.608  1.00  0.00    -0.342 N 
HETATM    6  C17 UNL     1      24.658   4.267  50.337  1.00  0.00     0.350 C 
ENDROOT
BRANCH   5   7
HETATM    7  C8  UNL     1      24.374   2.418  51.856  1.00  0.00     0.195 A 
HETATM    8  C9  UNL     1      23.323   1.524  51.379  1.00  0.00     0.146 A 
HETATM    9  N2  UNL     1      23.090   1.097  52.536  1.00  0.00    -0.288 NA
HETATM   10  C10 UNL     1      24.039   1.876  53.166  1.00  0.00     0.198 A 
HETATM   11  C11 UNL     1      25.467   1.585  53.227  1.00  0.00     0.159 C 
HETATM   12  O2  UNL     1      25.637   1.895  51.904  1.00  0.00    -0.346 OA
BRANCH  11  13
HETATM   13  C12 UNL     1      25.943   0.227  53.674  1.00  0.00     0.017 C 
HETATM   14  C13 UNL     1      26.604   0.217  55.003  1.00  0.00     0.007 C 
HETATM   15  C14 UNL     1      28.075   0.071  54.765  1.00  0.00     0.000 C 
HETATM   16  C15 UNL     1      28.317   0.015  53.297  1.00  0.00     0.000 C 
HETATM   17  C16 UNL     1      26.986  -0.234  52.671  1.00  0.00     0.007 C 
ENDBRANCH  11  13
ENDBRANCH   5   7
BRANCH   6  18
HETATM   18  N3  UNL     1      26.100   4.388  50.267  1.00  0.00     0.104 N 
HETATM   19  H22 UNL     1      26.623   3.859  50.970  1.00  0.00     0.315 HD
HETATM   20  H23 UNL     1      26.449   5.366  50.253  1.00  0.00     0.315 HD
ENDBRANCH   6  18
BRANCH   1  21
HETATM   21  O1  UNL     1      24.145   5.922  48.629  1.00  0.00    -0.340 OA
BRANCH  21  22
HETATM   22  C3  UNL     1      24.947   6.972  48.230  1.00  0.00     0.069 C 
HETATM   23  C2  UNL     1      24.419   7.588  47.179  1.00  0.00    -0.048 C 
HETATM   24  C1  UNL     1      23.122   7.051  46.656  1.00  0.00     0.046 C 
HETATM   25  C20 UNL     1      25.083   8.768  46.538  1.00  0.00     0.082 C 
HETATM   26  C19 UNL     1      26.545   8.496  46.527  1.00  0.00     0.088 C 
HETATM   27  N4  UNL     1      27.019   7.931  47.556  1.00  0.00    -0.299 NA
HETATM   28  C18 UNL     1      26.231   7.556  48.694  1.00  0.00     0.212 C 
ENDBRANCH  21  22
ENDBRANCH   1  21
TORSDOF 5
ENDMDL
