MODEL 1
REMARK VINA RESULT:      -7.7      0.000      0.000
REMARK  3 active torsions:
REMARK  status: ('A' for Active; 'I' for Inactive)
REMARK    1  A    between atoms: C5_5  and  C6_6 
REMARK    2  A    between atoms: C7_7  and  N1_8 
REMARK    3  A    between atoms: N1_8  and  C8_9 
ROOT
HETATM    1  C1  UNL     1      26.419   2.516  50.717  1.00  0.00     0.018 C 
HETATM    2  C2  UNL     1      26.747   2.301  52.176  1.00  0.00     0.047 A 
HETATM    3  C3  UNL     1      25.862   1.242  52.821  1.00  0.00    -0.045 A 
HETATM    4  C4  UNL     1      24.898   0.402  53.379  1.00  0.00     0.003 C 
HETATM    5  C5  UNL     1      24.380  -0.822  54.038  1.00  0.00     0.115 C 
HETATM    6  N2  UNL     1      24.929  -1.043  55.420  1.00  0.00    -0.239 NA
HETATM    7  C14 UNL     1      25.944  -0.406  54.958  1.00  0.00     0.012 C 
HETATM    8  C15 UNL     1      26.772   0.125  54.557  1.00  0.00     0.072 C 
HETATM    9  O1  UNL     1      27.856   0.836  53.999  1.00  0.00    -0.292 OA
HETATM   10  C16 UNL     1      27.413   1.129  52.553  1.00  0.00     0.177 A 
HETATM   11  H14 UNL     1      25.547  -1.041  56.247  1.00  0.00     0.138 HD
ENDROOT
BRANCH   5  12
HETATM   12  C6  UNL     1      22.902  -0.692  54.219  1.00  0.00     0.014 C 
HETATM   13  C7  UNL     1      21.815  -1.450  54.225  1.00  0.00     0.086 C 
BRANCH  13  14
HETATM   14  N1  UNL     1      20.502  -0.942  54.444  1.00  0.00    -0.366 N 
HETATM   15  H9  UNL     1      20.208  -0.794  55.433  1.00  0.00     0.165 HD
BRANCH  14  16
HETATM   16  C8  UNL     1      19.654  -0.657  53.362  1.00  0.00     0.033 A 
HETATM   17  C9  UNL     1      20.110   0.158  52.347  1.00  0.00     0.029 A 
HETATM   18  C10 UNL     1      19.286   0.452  51.268  1.00  0.00     0.004 A 
HETATM   19  C11 UNL     1      17.999  -0.084  51.223  1.00  0.00     0.019 A 
HETATM   20  C12 UNL     1      17.559  -0.901  52.253  1.00  0.00     0.013 A 
HETATM   21 BR1  UNL     1      15.791  -1.608  52.143  1.00  0.00    -0.051 Br
HETATM   22  C13 UNL     1      18.382  -1.189  53.322  1.00  0.00     0.048 A 
ENDBRANCH  14  16
ENDBRANCH  13  14
ENDBRANCH   5  12
TORSDOF 3
ENDMDL
MODEL 2
REMARK VINA RESULT:      -7.7      2.277      3.312
REMARK  3 active torsions:
REMARK  status: ('A' for Active; 'I' for Inactive)
REMARK    1  A    between atoms: C5_5  and  C6_6 
REMARK    2  A    between atoms: C7_7  and  N1_8 
REMARK    3  A    between atoms: N1_8  and  C8_9 
ROOT
HETATM    1  C1  UNL     1      28.901  -2.862  53.304  1.00  0.00     0.018 C 
HETATM    2  C2  UNL     1      29.265  -1.423  53.027  1.00  0.00     0.047 A 
HETATM    3  C3  UNL     1      28.107  -0.469  53.292  1.00  0.00    -0.045 A 
HETATM    4  C4  UNL     1      26.954   0.311  53.380  1.00  0.00     0.003 C 
HETATM    5  C5  UNL     1      26.068   1.371  53.922  1.00  0.00     0.115 C 
HETATM    6  N2  UNL     1      26.624   2.760  53.768  1.00  0.00    -0.239 NA
HETATM    7  C14 UNL     1      27.756   2.154  53.829  1.00  0.00     0.012 C 
HETATM    8  C15 UNL     1      28.680   1.633  53.879  1.00  0.00     0.072 C 
HETATM    9  O1  UNL     1      29.893   0.914  53.945  1.00  0.00    -0.292 OA
HETATM   10  C16 UNL     1      29.456  -0.554  54.108  1.00  0.00     0.177 A 
HETATM   11  H14 UNL     1      27.275   3.557  53.679  1.00  0.00     0.138 HD
ENDROOT
BRANCH   5  12
HETATM   12  C6  UNL     1      24.785   1.375  53.156  1.00  0.00     0.014 C 
HETATM   13  C7  UNL     1      24.068   0.574  52.382  1.00  0.00     0.086 C 
BRANCH  13  14
HETATM   14  N1  UNL     1      22.824   0.948  51.799  1.00  0.00    -0.366 N 
HETATM   15  H9  UNL     1      22.851   1.650  51.028  1.00  0.00     0.165 HD
BRANCH  14  16
HETATM   16  C8  UNL     1      21.620   0.385  52.254  1.00  0.00     0.033 A 
HETATM   17  C9  UNL     1      21.612  -0.309  53.446  1.00  0.00     0.029 A 
HETATM   18  C10 UNL     1      20.432  -0.873  53.913  1.00  0.00     0.004 A 
HETATM   19  C11 UNL     1      19.261  -0.729  53.168  1.00  0.00     0.019 A 
HETATM   20  C12 UNL     1      19.291  -0.027  51.973  1.00  0.00     0.013 A 
HETATM   21 BR1  UNL     1      17.664   0.140  50.992  1.00  0.00    -0.051 Br
HETATM   22  C13 UNL     1      20.466   0.531  51.514  1.00  0.00     0.048 A 
ENDBRANCH  14  16
ENDBRANCH  13  14
ENDBRANCH   5  12
TORSDOF 3
ENDMDL
MODEL 3
REMARK VINA RESULT:      -7.5      1.747      2.055
REMARK  3 active torsions:
REMARK  status: ('A' for Active; 'I' for Inactive)
REMARK    1  A    between atoms: C5_5  and  C6_6 
REMARK    2  A    between atoms: C7_7  and  N1_8 
REMARK    3  A    between atoms: N1_8  and  C8_9 
ROOT
HETATM    1  C1  UNL     1      26.419   2.603  50.735  1.00  0.00     0.018 C 
HETATM    2  C2  UNL     1      26.663   2.481  52.221  1.00  0.00     0.047 A 
HETATM    3  C3  UNL     1      25.882   1.332  52.846  1.00  0.00    -0.045 A 
HETATM    4  C4  UNL     1      24.999   0.388  53.371  1.00  0.00     0.003 C 
HETATM    5  C5  UNL     1      24.600  -0.874  54.041  1.00  0.00     0.115 C 
HETATM    6  N2  UNL     1      25.069  -0.975  55.467  1.00  0.00    -0.239 NA
HETATM    7  C14 UNL     1      26.023  -0.221  55.050  1.00  0.00     0.012 C 
HETATM    8  C15 UNL     1      26.800   0.404  54.686  1.00  0.00     0.072 C 
HETATM    9  O1  UNL     1      27.819   1.238  54.175  1.00  0.00    -0.292 OA
HETATM   10  C16 UNL     1      27.449   1.422  52.691  1.00  0.00     0.177 A 
HETATM   11  H14 UNL     1      25.619  -0.862  56.334  1.00  0.00     0.138 HD
ENDROOT
BRANCH   5  12
HETATM   12  C6  UNL     1      23.108  -0.939  54.114  1.00  0.00     0.014 C 
HETATM   13  C7  UNL     1      22.140  -0.913  55.017  1.00  0.00     0.086 C 
BRANCH  13  14
HETATM   14  N1  UNL     1      20.756  -1.006  54.691  1.00  0.00    -0.366 N 
HETATM   15  H9  UNL     1      20.179  -1.674  55.246  1.00  0.00     0.165 HD
BRANCH  14  16
HETATM   16  C8  UNL     1      20.208  -0.224  53.661  1.00  0.00     0.033 A 
HETATM   17  C9  UNL     1      19.196  -0.750  52.885  1.00  0.00     0.029 A 
HETATM   18  C10 UNL     1      18.640   0.007  51.862  1.00  0.00     0.004 A 
HETATM   19  C11 UNL     1      19.114   1.299  51.630  1.00  0.00     0.019 A 
HETATM   20  C12 UNL     1      20.132   1.809  52.421  1.00  0.00     0.013 A 
HETATM   21 BR1  UNL     1      20.745   3.579  52.062  1.00  0.00    -0.051 Br
HETATM   22  C13 UNL     1      20.680   1.052  53.436  1.00  0.00     0.048 A 
ENDBRANCH  14  16
ENDBRANCH  13  14
ENDBRANCH   5  12
TORSDOF 3
ENDMDL
MODEL 4
REMARK VINA RESULT:      -7.5      4.347      7.743
REMARK  3 active torsions:
REMARK  status: ('A' for Active; 'I' for Inactive)
REMARK    1  A    between atoms: C5_5  and  C6_6 
REMARK    2  A    between atoms: C7_7  and  N1_8 
REMARK    3  A    between atoms: N1_8  and  C8_9 
ROOT
HETATM    1  C1  UNL     1      21.175  -1.022  54.121  1.00  0.00     0.018 C 
HETATM    2  C2  UNL     1      22.611  -1.485  54.188  1.00  0.00     0.047 A 
HETATM    3  C3  UNL     1      23.593  -0.395  53.779  1.00  0.00    -0.045 A 
HETATM    4  C4  UNL     1      24.409   0.588  53.218  1.00  0.00     0.003 C 
HETATM    5  C5  UNL     1      25.476   1.619  53.197  1.00  0.00     0.115 C 
HETATM    6  N2  UNL     1      26.850   1.073  53.474  1.00  0.00    -0.239 NA
HETATM    7  C14 UNL     1      26.201   0.194  54.152  1.00  0.00     0.012 C 
HETATM    8  C15 UNL     1      25.647  -0.523  54.704  1.00  0.00     0.072 C 
HETATM    9  O1  UNL     1      24.883  -1.465  55.427  1.00  0.00    -0.292 OA
HETATM   10  C16 UNL     1      23.426  -1.010  55.222  1.00  0.00     0.177 A 
HETATM   11  H14 UNL     1      27.626   0.491  53.826  1.00  0.00     0.138 HD
ENDROOT
BRANCH   5  12
HETATM   12  C6  UNL     1      25.558   2.211  51.827  1.00  0.00     0.014 C 
HETATM   13  C7  UNL     1      26.417   2.866  51.060  1.00  0.00     0.086 C 
BRANCH  13  14
HETATM   14  N1  UNL     1      26.122   3.291  49.733  1.00  0.00    -0.366 N 
HETATM   15  H9  UNL     1      25.624   2.614  49.116  1.00  0.00     0.165 HD
BRANCH  14  16
HETATM   16  C8  UNL     1      26.493   4.572  49.291  1.00  0.00     0.033 A 
HETATM   17  C9  UNL     1      27.704   4.737  48.651  1.00  0.00     0.029 A 
HETATM   18  C10 UNL     1      28.089   5.995  48.206  1.00  0.00     0.004 A 
HETATM   19  C11 UNL     1      27.241   7.084  48.412  1.00  0.00     0.019 A 
HETATM   20  C12 UNL     1      26.028   6.896  49.057  1.00  0.00     0.013 A 
HETATM   21 BR1  UNL     1      24.906   8.417  49.313  1.00  0.00    -0.051 Br
HETATM   22  C13 UNL     1      25.651   5.645  49.496  1.00  0.00     0.048 A 
ENDBRANCH  14  16
ENDBRANCH  13  14
ENDBRANCH   5  12
TORSDOF 3
ENDMDL
MODEL 5
REMARK VINA RESULT:      -7.4      5.448      8.277
REMARK  3 active torsions:
REMARK  status: ('A' for Active; 'I' for Inactive)
REMARK    1  A    between atoms: C5_5  and  C6_6 
REMARK    2  A    between atoms: C7_7  and  N1_8 
REMARK    3  A    between atoms: N1_8  and  C8_9 
ROOT
HETATM    1  C1  UNL     1      30.126   0.077  53.448  1.00  0.00     0.018 C 
HETATM    2  C2  UNL     1      28.868   0.394  54.221  1.00  0.00     0.047 A 
HETATM    3  C3  UNL     1      27.707   0.776  53.313  1.00  0.00    -0.045 A 
HETATM    4  C4  UNL     1      26.755   1.290  52.432  1.00  0.00     0.003 C 
HETATM    5  C5  UNL     1      25.471   1.328  51.690  1.00  0.00     0.115 C 
HETATM    6  N2  UNL     1      24.263   1.448  52.578  1.00  0.00    -0.239 NA
HETATM    7  C14 UNL     1      25.010   0.835  53.426  1.00  0.00     0.012 C 
HETATM    8  C15 UNL     1      25.644   0.331  54.112  1.00  0.00     0.072 C 
HETATM    9  O1  UNL     1      26.512  -0.336  55.004  1.00  0.00    -0.292 OA
HETATM   10  C16 UNL     1      27.812  -0.524  54.200  1.00  0.00     0.177 A 
HETATM   11  H14 UNL     1      23.623   1.380  53.385  1.00  0.00     0.138 HD
ENDROOT
BRANCH   5  12
HETATM   12  C6  UNL     1      25.442   2.545  50.823  1.00  0.00     0.014 C 
HETATM   13  C7  UNL     1      26.248   3.244  50.037  1.00  0.00     0.086 C 
BRANCH  13  14
HETATM   14  N1  UNL     1      25.842   4.415  49.335  1.00  0.00    -0.366 N 
HETATM   15  H9  UNL     1      24.826   4.512  49.118  1.00  0.00     0.165 HD
BRANCH  14  16
HETATM   16  C8  UNL     1      26.782   5.388  48.959  1.00  0.00     0.033 A 
HETATM   17  C9  UNL     1      28.021   4.986  48.506  1.00  0.00     0.029 A 
HETATM   18  C10 UNL     1      28.964   5.933  48.130  1.00  0.00     0.004 A 
HETATM   19  C11 UNL     1      28.646   7.289  48.214  1.00  0.00     0.019 A 
HETATM   20  C12 UNL     1      27.395   7.672  48.672  1.00  0.00     0.013 A 
HETATM   21 BR1  UNL     1      27.010   9.538  48.769  1.00  0.00    -0.051 Br
HETATM   22  C13 UNL     1      26.462   6.727  49.044  1.00  0.00     0.048 A 
ENDBRANCH  14  16
ENDBRANCH  13  14
ENDBRANCH   5  12
TORSDOF 3
ENDMDL
MODEL 6
REMARK VINA RESULT:      -7.2      5.519      8.212
REMARK  3 active torsions:
REMARK  status: ('A' for Active; 'I' for Inactive)
REMARK    1  A    between atoms: C5_5  and  C6_6 
REMARK    2  A    between atoms: C7_7  and  N1_8 
REMARK    3  A    between atoms: N1_8  and  C8_9 
ROOT
HETATM    1  C1  UNL     1      24.832   9.153  46.611  1.00  0.00     0.018 C 
HETATM    2  C2  UNL     1      26.243   9.060  47.141  1.00  0.00     0.047 A 
HETATM    3  C3  UNL     1      26.566   7.680  47.698  1.00  0.00    -0.045 A 
HETATM    4  C4  UNL     1      26.721   6.457  48.351  1.00  0.00     0.003 C 
HETATM    5  C5  UNL     1      27.288   5.107  48.591  1.00  0.00     0.115 C 
HETATM    6  N2  UNL     1      28.756   5.118  48.920  1.00  0.00    -0.239 NA
HETATM    7  C14 UNL     1      28.756   6.185  48.203  1.00  0.00     0.012 C 
HETATM    8  C15 UNL     1      28.735   7.065  47.610  1.00  0.00     0.072 C 
HETATM    9  O1  UNL     1      28.675   8.234  46.819  1.00  0.00    -0.292 OA
HETATM   10  C16 UNL     1      27.194   8.339  46.409  1.00  0.00     0.177 A 
HETATM   11  H14 UNL     1      29.753   5.383  48.969  1.00  0.00     0.138 HD
ENDROOT
BRANCH   5  12
HETATM   12  C6  UNL     1      26.624   4.502  49.785  1.00  0.00     0.014 C 
HETATM   13  C7  UNL     1      25.831   3.485  50.092  1.00  0.00     0.086 C 
BRANCH  13  14
HETATM   14  N1  UNL     1      25.380   3.211  51.415  1.00  0.00    -0.366 N 
HETATM   15  H9  UNL     1      25.006   4.013  51.967  1.00  0.00     0.165 HD
BRANCH  14  16
HETATM   16  C8  UNL     1      25.444   1.909  51.939  1.00  0.00     0.033 A 
HETATM   17  C9  UNL     1      26.606   1.181  51.791  1.00  0.00     0.029 A 
HETATM   18  C10 UNL     1      26.689  -0.107  52.301  1.00  0.00     0.004 A 
HETATM   19  C11 UNL     1      25.590  -0.654  52.964  1.00  0.00     0.019 A 
HETATM   20  C12 UNL     1      24.430   0.094  53.102  1.00  0.00     0.013 A 
HETATM   21 BR1  UNL     1      22.956  -0.700  54.015  1.00  0.00    -0.051 Br
HETATM   22  C13 UNL     1      24.354   1.373  52.593  1.00  0.00     0.048 A 
ENDBRANCH  14  16
ENDBRANCH  13  14
ENDBRANCH   5  12
TORSDOF 3
ENDMDL
MODEL 7
REMARK VINA RESULT:      -7.2      4.194      7.909
REMARK  3 active torsions:
REMARK  status: ('A' for Active; 'I' for Inactive)
REMARK    1  A    between atoms: C5_5  and  C6_6 
REMARK    2  A    between atoms: C7_7  and  N1_8 
REMARK    3  A    between atoms: N1_8  and  C8_9 
ROOT
HETATM    1  C1  UNL     1      18.929   1.955  49.700  1.00  0.00     0.018 C 
HETATM    2  C2  UNL     1      18.540   0.652  50.358  1.00  0.00     0.047 A 
HETATM    3  C3  UNL     1      19.448   0.296  51.528  1.00  0.00    -0.045 A 
HETATM    4  C4  UNL     1      20.428  -0.047  52.460  1.00  0.00     0.003 C 
HETATM    5  C5  UNL     1      20.980  -0.341  53.805  1.00  0.00     0.115 C 
HETATM    6  N2  UNL     1      20.375  -1.556  54.454  1.00  0.00    -0.239 NA
HETATM    7  C14 UNL     1      19.350  -1.240  53.745  1.00  0.00     0.012 C 
HETATM    8  C15 UNL     1      18.516  -0.964  53.150  1.00  0.00     0.072 C 
HETATM    9  O1  UNL     1      17.423  -0.574  52.345  1.00  0.00    -0.292 OA
HETATM   10  C16 UNL     1      17.922   0.686  51.613  1.00  0.00     0.177 A 
HETATM   11  H14 UNL     1      19.716  -2.303  54.724  1.00  0.00     0.138 HD
ENDROOT
BRANCH   5  12
HETATM   12  C6  UNL     1      22.437  -0.648  53.680  1.00  0.00     0.014 C 
HETATM   13  C7  UNL     1      23.593  -0.017  53.539  1.00  0.00     0.086 C 
BRANCH  13  14
HETATM   14  N1  UNL     1      24.849  -0.684  53.451  1.00  0.00    -0.366 N 
HETATM   15  H9  UNL     1      24.831  -1.723  53.364  1.00  0.00     0.165 HD
BRANCH  14  16
HETATM   16  C8  UNL     1      26.051   0.042  53.480  1.00  0.00     0.033 A 
HETATM   17  C9  UNL     1      26.002   1.421  53.491  1.00  0.00     0.029 A 
HETATM   18  C10 UNL     1      27.179   2.157  53.520  1.00  0.00     0.004 A 
HETATM   19  C11 UNL     1      28.405   1.490  53.540  1.00  0.00     0.019 A 
HETATM   20  C12 UNL     1      28.432   0.104  53.529  1.00  0.00     0.013 A 
HETATM   21 BR1  UNL     1      30.132  -0.759  53.556  1.00  0.00    -0.051 Br
HETATM   22  C13 UNL     1      27.259  -0.622  53.500  1.00  0.00     0.048 A 
ENDBRANCH  14  16
ENDBRANCH  13  14
ENDBRANCH   5  12
TORSDOF 3
ENDMDL
MODEL 8
REMARK VINA RESULT:      -7.1      3.816      7.656
REMARK  3 active torsions:
REMARK  status: ('A' for Active; 'I' for Inactive)
REMARK    1  A    between atoms: C5_5  and  C6_6 
REMARK    2  A    between atoms: C7_7  and  N1_8 
REMARK    3  A    between atoms: N1_8  and  C8_9 
ROOT
HETATM    1  C1  UNL     1      18.105   2.103  49.561  1.00  0.00     0.018 C 
HETATM    2  C2  UNL     1      17.705   0.710  49.989  1.00  0.00     0.047 A 
HETATM    3  C3  UNL     1      18.433   0.257  51.248  1.00  0.00    -0.045 A 
HETATM    4  C4  UNL     1      19.268  -0.150  52.288  1.00  0.00     0.003 C 
HETATM    5  C5  UNL     1      19.612  -0.582  53.666  1.00  0.00     0.115 C 
HETATM    6  N2  UNL     1      18.995  -1.896  54.058  1.00  0.00    -0.239 NA
HETATM    7  C14 UNL     1      18.080  -1.546  53.226  1.00  0.00     0.012 C 
HETATM    8  C15 UNL     1      17.337  -1.239  52.533  1.00  0.00     0.072 C 
HETATM    9  O1  UNL     1      16.367  -0.807  51.602  1.00  0.00    -0.292 OA
HETATM   10  C16 UNL     1      16.889   0.557  51.115  1.00  0.00     0.177 A 
HETATM   11  H14 UNL     1      18.355  -2.704  54.125  1.00  0.00     0.138 HD
ENDROOT
BRANCH   5  12
HETATM   12  C6  UNL     1      21.088  -0.799  53.757  1.00  0.00     0.014 C 
HETATM   13  C7  UNL     1      22.215  -0.106  53.694  1.00  0.00     0.086 C 
BRANCH  13  14
HETATM   14  N1  UNL     1      23.507  -0.690  53.835  1.00  0.00    -0.366 N 
HETATM   15  H9  UNL     1      23.590  -1.515  54.468  1.00  0.00     0.165 HD
BRANCH  14  16
HETATM   16  C8  UNL     1      24.611  -0.166  53.143  1.00  0.00     0.033 A 
HETATM   17  C9  UNL     1      25.800  -0.865  53.149  1.00  0.00     0.029 A 
HETATM   18  C10 UNL     1      26.904  -0.364  52.471  1.00  0.00     0.004 A 
HETATM   19  C11 UNL     1      26.796   0.848  51.787  1.00  0.00     0.019 A 
HETATM   20  C12 UNL     1      25.591   1.534  51.793  1.00  0.00     0.013 A 
HETATM   21 BR1  UNL     1      25.497   3.185  50.844  1.00  0.00    -0.051 Br
HETATM   22  C13 UNL     1      24.499   1.031  52.468  1.00  0.00     0.048 A 
ENDBRANCH  14  16
ENDBRANCH  13  14
ENDBRANCH   5  12
TORSDOF 3
ENDMDL
MODEL 9
REMARK VINA RESULT:      -7.0      1.765      2.774
REMARK  3 active torsions:
REMARK  status: ('A' for Active; 'I' for Inactive)
REMARK    1  A    between atoms: C5_5  and  C6_6 
REMARK    2  A    between atoms: C7_7  and  N1_8 
REMARK    3  A    between atoms: N1_8  and  C8_9 
ROOT
HETATM    1  C1  UNL     1      26.735   0.791  52.011  1.00  0.00     0.018 C 
HETATM    2  C2  UNL     1      26.203   0.661  53.419  1.00  0.00     0.047 A 
HETATM    3  C3  UNL     1      24.814   0.037  53.461  1.00  0.00    -0.045 A 
HETATM    4  C4  UNL     1      23.479  -0.365  53.402  1.00  0.00     0.003 C 
HETATM    5  C5  UNL     1      22.319  -1.262  53.629  1.00  0.00     0.115 C 
HETATM    6  N2  UNL     1      22.000  -1.481  55.082  1.00  0.00    -0.239 NA
HETATM    7  C14 UNL     1      23.259  -1.272  55.237  1.00  0.00     0.012 C 
HETATM    8  C15 UNL     1      24.300  -1.095  55.343  1.00  0.00     0.072 C 
HETATM    9  O1  UNL     1      25.687  -0.852  55.454  1.00  0.00    -0.292 OA
HETATM   10  C16 UNL     1      26.146  -0.609  54.005  1.00  0.00     0.177 A 
HETATM   11  H14 UNL     1      22.087  -1.579  56.106  1.00  0.00     0.138 HD
ENDROOT
BRANCH   5  12
HETATM   12  C6  UNL     1      21.094  -0.634  53.048  1.00  0.00     0.014 C 
HETATM   13  C7  UNL     1      19.799  -0.519  53.306  1.00  0.00     0.086 C 
BRANCH  13  14
HETATM   14  N1  UNL     1      18.892   0.198  52.475  1.00  0.00    -0.366 N 
HETATM   15  H9  UNL     1      19.132   1.187  52.249  1.00  0.00     0.165 HD
BRANCH  14  16
HETATM   16  C8  UNL     1      17.727  -0.417  51.988  1.00  0.00     0.033 A 
HETATM   17  C9  UNL     1      17.052  -1.311  52.793  1.00  0.00     0.029 A 
HETATM   18  C10 UNL     1      15.898  -1.929  52.331  1.00  0.00     0.004 A 
HETATM   19  C11 UNL     1      15.430  -1.637  51.049  1.00  0.00     0.019 A 
HETATM   20  C12 UNL     1      16.123  -0.735  50.256  1.00  0.00     0.013 A 
HETATM   21 BR1  UNL     1      15.442  -0.370  48.512  1.00  0.00    -0.051 Br
HETATM   22  C13 UNL     1      17.268  -0.124  50.721  1.00  0.00     0.048 A 
ENDBRANCH  14  16
ENDBRANCH  13  14
ENDBRANCH   5  12
TORSDOF 3
ENDMDL
