MODEL 1
REMARK VINA RESULT:      -7.7      0.000      0.000
REMARK  8 active torsions:
REMARK  status: ('A' for Active; 'I' for Inactive)
REMARK    1  A    between atoms: C2_2  and  C3_3 
REMARK    2  A    between atoms: C7_8  and  N2_9 
REMARK    3  A    between atoms: N2_9  and  N3_10 
REMARK    4  A    between atoms: N3_10  and  C8_11 
REMARK    5  A    between atoms: C14_18  and  C15_19 
REMARK    6  A    between atoms: C15_19  and  C16_20 
REMARK    7  A    between atoms: C16_20  and  N4_21 
REMARK       I    between atoms: N4_21  and  C17_22 
REMARK    8  A    between atoms: C17_22  and  C18_24 
ROOT
HETATM    1  C3  UNL     1      22.229   1.033  53.002  1.00  0.00     0.109 A 
HETATM    2  N1  UNL     1      21.074   1.642  52.758  1.00  0.00    -0.251 NA
HETATM    3  C4  UNL     1      21.105   2.934  52.383  1.00  0.00     0.127 A 
HETATM    4  C5  UNL     1      22.298   3.609  52.256  1.00  0.00    -0.015 A 
HETATM    5  C6  UNL     1      22.313   5.025  51.843  1.00  0.00     0.052 C 
HETATM    6  C7  UNL     1      23.447   2.903  52.528  1.00  0.00     0.068 A 
HETATM    7  C14 UNL     1      23.473   1.554  52.923  1.00  0.00     0.027 A 
ENDROOT
BRANCH   6   8
HETATM    8  N2  UNL     1      24.660   3.652  52.381  1.00  0.00    -0.299 N 
HETATM    9  H7  UNL     1      25.255   4.134  53.065  1.00  0.00     0.187 HD
BRANCH   8  10
HETATM   10  N3  UNL     1      25.017   3.672  51.022  1.00  0.00    -0.300 N 
HETATM   11  H8  UNL     1      24.655   2.867  50.433  1.00  0.00     0.187 HD
BRANCH  10  12
HETATM   12  C8  UNL     1      25.770   4.520  50.169  1.00  0.00     0.049 A 
HETATM   13  C9  UNL     1      26.834   3.980  49.446  1.00  0.00     0.031 A 
HETATM   14  C10 UNL     1      27.544   4.828  48.630  1.00  0.00     0.004 A 
HETATM   15  C11 UNL     1      27.198   6.166  48.546  1.00  0.00     0.019 A 
HETATM   16  C12 UNL     1      26.147   6.690  49.263  1.00  0.00     0.013 A 
HETATM   17 BR1  UNL     1      25.623   8.518  49.188  1.00  0.00    -0.051 Br
HETATM   18  C13 UNL     1      25.425   5.842  50.088  1.00  0.00     0.050 A 
ENDBRANCH  10  12
ENDBRANCH   8  10
ENDBRANCH   6   8
BRANCH   7  19
HETATM   19  C15 UNL     1      24.632   1.029  53.156  1.00  0.00     0.009 C 
BRANCH  19  20
HETATM   20  C16 UNL     1      25.614   0.453  52.229  1.00  0.00     0.151 C 
BRANCH  20  21
HETATM   21  N4  UNL     1      26.889   0.118  52.887  1.00  0.00    -0.354 N 
HETATM   22  C17 UNL     1      27.828   1.173  52.903  1.00  0.00     0.240 C 
HETATM   23  O1  UNL     1      27.651   2.318  52.416  1.00  0.00    -0.269 OA
HETATM   24  H16 UNL     1      27.142  -0.800  53.323  1.00  0.00     0.163 HD
BRANCH  22  25
HETATM   25  C18 UNL     1      29.124   0.943  53.531  1.00  0.00     0.064 C 
HETATM   26  C19 UNL     1      29.658  -0.258  53.727  1.00  0.00     0.017 C 
ENDBRANCH  22  25
ENDBRANCH  20  21
ENDBRANCH  19  20
ENDBRANCH   7  19
BRANCH   1  27
HETATM   27  C2  UNL     1      22.185  -0.246  53.365  1.00  0.00    -0.123 C 
HETATM   28  C1  UNL     1      22.004  -1.318  54.095  1.00  0.00     0.099 C 
ENDBRANCH   1  27
TORSDOF 8
ENDMDL
MODEL 2
REMARK VINA RESULT:      -7.3      2.888      5.433
REMARK  8 active torsions:
REMARK  status: ('A' for Active; 'I' for Inactive)
REMARK    1  A    between atoms: C2_2  and  C3_3 
REMARK    2  A    between atoms: C7_8  and  N2_9 
REMARK    3  A    between atoms: N2_9  and  N3_10 
REMARK    4  A    between atoms: N3_10  and  C8_11 
REMARK    5  A    between atoms: C14_18  and  C15_19 
REMARK    6  A    between atoms: C15_19  and  C16_20 
REMARK    7  A    between atoms: C16_20  and  N4_21 
REMARK       I    between atoms: N4_21  and  C17_22 
REMARK    8  A    between atoms: C17_22  and  C18_24 
ROOT
HETATM    1  C3  UNL     1      21.059   1.602  52.795  1.00  0.00     0.109 A 
HETATM    2  N1  UNL     1      20.332   1.078  53.775  1.00  0.00    -0.251 NA
HETATM    3  C4  UNL     1      20.878   0.094  54.512  1.00  0.00     0.127 A 
HETATM    4  C5  UNL     1      22.153  -0.360  54.261  1.00  0.00    -0.015 A 
HETATM    5  C6  UNL     1      22.735  -1.440  55.079  1.00  0.00     0.052 C 
HETATM    6  C7  UNL     1      22.835   0.238  53.227  1.00  0.00     0.068 A 
HETATM    7  C14 UNL     1      22.315   1.269  52.425  1.00  0.00     0.027 A 
ENDROOT
BRANCH   6   8
HETATM    8  N2  UNL     1      24.156  -0.272  53.007  1.00  0.00    -0.299 N 
HETATM    9  H7  UNL     1      24.503  -1.055  52.440  1.00  0.00     0.187 HD
BRANCH   8  10
HETATM   10  N3  UNL     1      25.069   0.505  53.741  1.00  0.00    -0.300 N 
HETATM   11  H8  UNL     1      24.667   1.047  54.560  1.00  0.00     0.187 HD
BRANCH  10  12
HETATM   12  C8  UNL     1      26.460   0.781  53.688  1.00  0.00     0.049 A 
HETATM   13  C9  UNL     1      26.885   2.110  53.666  1.00  0.00     0.031 A 
HETATM   14  C10 UNL     1      28.239   2.344  53.613  1.00  0.00     0.004 A 
HETATM   15  C11 UNL     1      29.128   1.284  53.584  1.00  0.00     0.019 A 
HETATM   16  C12 UNL     1      28.699  -0.024  53.605  1.00  0.00     0.013 A 
HETATM   17 BR1  UNL     1      29.873  -1.522  53.567  1.00  0.00    -0.051 Br
HETATM   18  C13 UNL     1      27.337  -0.269  53.658  1.00  0.00     0.050 A 
ENDBRANCH  10  12
ENDBRANCH   8  10
ENDBRANCH   6   8
BRANCH   7  19
HETATM   19  C15 UNL     1      23.074   1.724  51.481  1.00  0.00     0.009 C 
BRANCH  19  20
HETATM   20  C16 UNL     1      23.781   3.005  51.370  1.00  0.00     0.151 C 
BRANCH  20  21
HETATM   21  N4  UNL     1      25.134   2.861  50.804  1.00  0.00    -0.354 N 
HETATM   22  C17 UNL     1      25.477   3.854  49.861  1.00  0.00     0.240 C 
HETATM   23  O1  UNL     1      24.737   4.803  49.495  1.00  0.00    -0.269 OA
HETATM   24  H16 UNL     1      25.830   2.113  51.036  1.00  0.00     0.163 HD
BRANCH  22  25
HETATM   25  C18 UNL     1      26.796   3.802  49.240  1.00  0.00     0.064 C 
HETATM   26  C19 UNL     1      27.428   4.857  48.739  1.00  0.00     0.017 C 
ENDBRANCH  22  25
ENDBRANCH  20  21
ENDBRANCH  19  20
ENDBRANCH   7  19
BRANCH   1  27
HETATM   27  C2  UNL     1      20.511   2.580  52.078  1.00  0.00    -0.123 C 
HETATM   28  C1  UNL     1      19.666   3.501  51.685  1.00  0.00     0.099 C 
ENDBRANCH   1  27
TORSDOF 8
ENDMDL
MODEL 3
REMARK VINA RESULT:      -7.2      1.981      5.432
REMARK  8 active torsions:
REMARK  status: ('A' for Active; 'I' for Inactive)
REMARK    1  A    between atoms: C2_2  and  C3_3 
REMARK    2  A    between atoms: C7_8  and  N2_9 
REMARK    3  A    between atoms: N2_9  and  N3_10 
REMARK    4  A    between atoms: N3_10  and  C8_11 
REMARK    5  A    between atoms: C14_18  and  C15_19 
REMARK    6  A    between atoms: C15_19  and  C16_20 
REMARK    7  A    between atoms: C16_20  and  N4_21 
REMARK       I    between atoms: N4_21  and  C17_22 
REMARK    8  A    between atoms: C17_22  and  C18_24 
ROOT
HETATM    1  C3  UNL     1      26.035  -0.127  54.340  1.00  0.00     0.109 A 
HETATM    2  N1  UNL     1      25.671  -0.900  55.356  1.00  0.00    -0.251 NA
HETATM    3  C4  UNL     1      24.387  -1.297  55.422  1.00  0.00     0.127 A 
HETATM    4  C5  UNL     1      23.473  -0.915  54.466  1.00  0.00    -0.015 A 
HETATM    5  C6  UNL     1      22.070  -1.360  54.554  1.00  0.00     0.052 C 
HETATM    6  C7  UNL     1      23.935  -0.113  53.448  1.00  0.00     0.068 A 
HETATM    7  C14 UNL     1      25.264   0.331  53.329  1.00  0.00     0.027 A 
ENDROOT
BRANCH   6   8
HETATM    8  N2  UNL     1      22.945   0.256  52.480  1.00  0.00    -0.299 N 
HETATM    9  H7  UNL     1      22.663  -0.172  51.590  1.00  0.00     0.187 HD
BRANCH   8  10
HETATM   10  N3  UNL     1      22.299   1.426  52.917  1.00  0.00    -0.300 N 
HETATM   11  H8  UNL     1      22.461   1.697  53.930  1.00  0.00     0.187 HD
BRANCH  10  12
HETATM   12  C8  UNL     1      21.442   2.401  52.346  1.00  0.00     0.049 A 
HETATM   13  C9  UNL     1      20.087   2.105  52.193  1.00  0.00     0.031 A 
HETATM   14  C10 UNL     1      19.284   3.071  51.635  1.00  0.00     0.004 A 
HETATM   15  C11 UNL     1      19.822   4.286  51.247  1.00  0.00     0.019 A 
HETATM   16  C12 UNL     1      21.160   4.569  51.401  1.00  0.00     0.013 A 
HETATM   17 BR1  UNL     1      21.957   6.219  50.888  1.00  0.00    -0.051 Br
HETATM   18  C13 UNL     1      21.977   3.602  51.962  1.00  0.00     0.050 A 
ENDBRANCH  10  12
ENDBRANCH   8  10
ENDBRANCH   6   8
BRANCH   7  19
HETATM   19  C15 UNL     1      25.545   1.091  52.321  1.00  0.00     0.009 C 
BRANCH  19  20
HETATM   20  C16 UNL     1      25.581   2.555  52.220  1.00  0.00     0.151 C 
BRANCH  20  21
HETATM   21  N4  UNL     1      26.611   3.035  51.281  1.00  0.00    -0.354 N 
HETATM   22  C17 UNL     1      26.095   3.616  50.102  1.00  0.00     0.240 C 
HETATM   23  O1  UNL     1      24.876   3.740  49.820  1.00  0.00    -0.269 OA
HETATM   24  H16 UNL     1      27.649   2.982  51.414  1.00  0.00     0.163 HD
BRANCH  22  25
HETATM   25  C18 UNL     1      27.032   4.123  49.106  1.00  0.00     0.064 C 
HETATM   26  C19 UNL     1      27.132   5.401  48.757  1.00  0.00     0.017 C 
ENDBRANCH  22  25
ENDBRANCH  20  21
ENDBRANCH  19  20
ENDBRANCH   7  19
BRANCH   1  27
HETATM   27  C2  UNL     1      27.308   0.253  54.282  1.00  0.00    -0.123 C 
HETATM   28  C1  UNL     1      28.538   0.514  54.649  1.00  0.00     0.099 C 
ENDBRANCH   1  27
TORSDOF 8
ENDMDL
MODEL 4
REMARK VINA RESULT:      -7.2      1.574      1.945
REMARK  8 active torsions:
REMARK  status: ('A' for Active; 'I' for Inactive)
REMARK    1  A    between atoms: C2_2  and  C3_3 
REMARK    2  A    between atoms: C7_8  and  N2_9 
REMARK    3  A    between atoms: N2_9  and  N3_10 
REMARK    4  A    between atoms: N3_10  and  C8_11 
REMARK    5  A    between atoms: C14_18  and  C15_19 
REMARK    6  A    between atoms: C15_19  and  C16_20 
REMARK    7  A    between atoms: C16_20  and  N4_21 
REMARK       I    between atoms: N4_21  and  C17_22 
REMARK    8  A    between atoms: C17_22  and  C18_24 
ROOT
HETATM    1  C3  UNL     1      23.765   1.059  53.184  1.00  0.00     0.109 A 
HETATM    2  N1  UNL     1      22.474   0.794  53.024  1.00  0.00    -0.251 NA
HETATM    3  C4  UNL     1      21.688   1.758  52.510  1.00  0.00     0.127 A 
HETATM    4  C5  UNL     1      22.204   2.986  52.159  1.00  0.00    -0.015 A 
HETATM    5  C6  UNL     1      21.328   4.030  51.597  1.00  0.00     0.052 C 
HETATM    6  C7  UNL     1      23.552   3.175  52.360  1.00  0.00     0.068 A 
HETATM    7  C14 UNL     1      24.419   2.205  52.892  1.00  0.00     0.027 A 
ENDROOT
BRANCH   6   8
HETATM    8  N2  UNL     1      24.038   4.469  51.980  1.00  0.00    -0.299 N 
HETATM    9  H7  UNL     1      24.153   5.340  52.510  1.00  0.00     0.187 HD
BRANCH   8  10
HETATM   10  N3  UNL     1      24.394   4.437  50.620  1.00  0.00    -0.300 N 
HETATM   11  H8  UNL     1      24.118   3.563  50.086  1.00  0.00     0.187 HD
BRANCH  10  12
HETATM   12  C8  UNL     1      25.059   5.300  49.711  1.00  0.00     0.049 A 
HETATM   13  C9  UNL     1      24.337   6.330  49.106  1.00  0.00     0.031 A 
HETATM   14  C10 UNL     1      25.010   7.148  48.230  1.00  0.00     0.004 A 
HETATM   15  C11 UNL     1      26.354   6.938  47.973  1.00  0.00     0.019 A 
HETATM   16  C12 UNL     1      27.057   5.920  48.574  1.00  0.00     0.013 A 
HETATM   17 BR1  UNL     1      28.904   5.583  48.261  1.00  0.00    -0.051 Br
HETATM   18  C13 UNL     1      26.387   5.090  49.459  1.00  0.00     0.050 A 
ENDBRANCH  10  12
ENDBRANCH   8  10
ENDBRANCH   6   8
BRANCH   7  19
HETATM   19  C15 UNL     1      25.661   2.536  53.032  1.00  0.00     0.009 C 
BRANCH  19  20
HETATM   20  C16 UNL     1      26.808   2.308  52.144  1.00  0.00     0.151 C 
BRANCH  20  21
HETATM   21  N4  UNL     1      27.641   1.169  52.571  1.00  0.00    -0.354 N 
HETATM   22  C17 UNL     1      28.610   1.494  53.545  1.00  0.00     0.240 C 
HETATM   23  O1  UNL     1      28.796   2.634  54.042  1.00  0.00    -0.269 OA
HETATM   24  H16 UNL     1      27.573   0.183  52.224  1.00  0.00     0.163 HD
BRANCH  22  25
HETATM   25  C18 UNL     1      29.488   0.437  54.035  1.00  0.00     0.064 C 
HETATM   26  C19 UNL     1      29.514  -0.799  53.547  1.00  0.00     0.017 C 
ENDBRANCH  22  25
ENDBRANCH  20  21
ENDBRANCH  19  20
ENDBRANCH   7  19
BRANCH   1  27
HETATM   27  C2  UNL     1      24.533   0.096  53.687  1.00  0.00    -0.123 C 
HETATM   28  C1  UNL     1      24.926  -0.914  54.422  1.00  0.00     0.099 C 
ENDBRANCH   1  27
TORSDOF 8
ENDMDL
MODEL 5
REMARK VINA RESULT:      -7.1      2.650      3.895
REMARK  8 active torsions:
REMARK  status: ('A' for Active; 'I' for Inactive)
REMARK    1  A    between atoms: C2_2  and  C3_3 
REMARK    2  A    between atoms: C7_8  and  N2_9 
REMARK    3  A    between atoms: N2_9  and  N3_10 
REMARK    4  A    between atoms: N3_10  and  C8_11 
REMARK    5  A    between atoms: C14_18  and  C15_19 
REMARK    6  A    between atoms: C15_19  and  C16_20 
REMARK    7  A    between atoms: C16_20  and  N4_21 
REMARK       I    between atoms: N4_21  and  C17_22 
REMARK    8  A    between atoms: C17_22  and  C18_24 
ROOT
HETATM    1  C3  UNL     1      24.597  -0.512  53.303  1.00  0.00     0.109 A 
HETATM    2  N1  UNL     1      23.993  -1.304  54.181  1.00  0.00    -0.251 NA
HETATM    3  C4  UNL     1      22.734  -1.001  54.546  1.00  0.00     0.127 A 
HETATM    4  C5  UNL     1      22.086   0.098  54.027  1.00  0.00    -0.015 A 
HETATM    5  C6  UNL     1      20.706   0.415  54.438  1.00  0.00     0.052 C 
HETATM    6  C7  UNL     1      22.786   0.864  53.123  1.00  0.00     0.068 A 
HETATM    7  C14 UNL     1      24.102   0.595  52.707  1.00  0.00     0.027 A 
ENDROOT
BRANCH   6   8
HETATM    8  N2  UNL     1      22.068   1.995  52.614  1.00  0.00    -0.299 N 
HETATM    9  H7  UNL     1      21.871   2.919  53.017  1.00  0.00     0.187 HD
BRANCH   8  10
HETATM   10  N3  UNL     1      21.589   1.685  51.330  1.00  0.00    -0.300 N 
HETATM   11  H8  UNL     1      20.833   0.942  51.281  1.00  0.00     0.187 HD
BRANCH  10  12
HETATM   12  C8  UNL     1      21.849   2.117  50.004  1.00  0.00     0.049 A 
HETATM   13  C9  UNL     1      21.656   1.222  48.951  1.00  0.00     0.031 A 
HETATM   14  C10 UNL     1      21.918   1.670  47.678  1.00  0.00     0.004 A 
HETATM   15  C11 UNL     1      22.357   2.967  47.473  1.00  0.00     0.019 A 
HETATM   16  C12 UNL     1      22.545   3.843  48.518  1.00  0.00     0.013 A 
HETATM   17 BR1  UNL     1      23.145   5.636  48.299  1.00  0.00    -0.051 Br
HETATM   18  C13 UNL     1      22.283   3.400  49.804  1.00  0.00     0.050 A 
ENDBRANCH  10  12
ENDBRANCH   8  10
ENDBRANCH   6   8
BRANCH   7  19
HETATM   19  C15 UNL     1      24.632   1.415  51.859  1.00  0.00     0.009 C 
BRANCH  19  20
HETATM   20  C16 UNL     1      25.309   2.699  52.079  1.00  0.00     0.151 C 
BRANCH  20  21
HETATM   21  N4  UNL     1      26.776   2.566  52.140  1.00  0.00    -0.354 N 
HETATM   22  C17 UNL     1      27.284   2.342  53.438  1.00  0.00     0.240 C 
HETATM   23  O1  UNL     1      26.598   2.254  54.489  1.00  0.00    -0.269 OA
HETATM   24  H16 UNL     1      27.440   2.622  51.332  1.00  0.00     0.163 HD
BRANCH  22  25
HETATM   25  C18 UNL     1      28.725   2.197  53.608  1.00  0.00     0.064 C 
HETATM   26  C19 UNL     1      29.305   1.184  54.243  1.00  0.00     0.017 C 
ENDBRANCH  22  25
ENDBRANCH  20  21
ENDBRANCH  19  20
ENDBRANCH   7  19
BRANCH   1  27
HETATM   27  C2  UNL     1      25.839  -0.826  52.945  1.00  0.00    -0.123 C 
HETATM   28  C1  UNL     1      27.006  -1.420  52.923  1.00  0.00     0.099 C 
ENDBRANCH   1  27
TORSDOF 8
ENDMDL
MODEL 6
REMARK VINA RESULT:      -7.0      3.095      5.691
REMARK  8 active torsions:
REMARK  status: ('A' for Active; 'I' for Inactive)
REMARK    1  A    between atoms: C2_2  and  C3_3 
REMARK    2  A    between atoms: C7_8  and  N2_9 
REMARK    3  A    between atoms: N2_9  and  N3_10 
REMARK    4  A    between atoms: N3_10  and  C8_11 
REMARK    5  A    between atoms: C14_18  and  C15_19 
REMARK    6  A    between atoms: C15_19  and  C16_20 
REMARK    7  A    between atoms: C16_20  and  N4_21 
REMARK       I    between atoms: N4_21  and  C17_22 
REMARK    8  A    between atoms: C17_22  and  C18_24 
ROOT
HETATM    1  C3  UNL     1      25.729   4.606  49.968  1.00  0.00     0.109 A 
HETATM    2  N1  UNL     1      24.950   5.675  49.857  1.00  0.00    -0.251 NA
HETATM    3  C4  UNL     1      23.832   5.724  50.604  1.00  0.00     0.127 A 
HETATM    4  C5  UNL     1      23.501   4.697  51.459  1.00  0.00    -0.015 A 
HETATM    5  C6  UNL     1      22.272   4.768  52.271  1.00  0.00     0.052 C 
HETATM    6  C7  UNL     1      24.364   3.627  51.512  1.00  0.00     0.068 A 
HETATM    7  C14 UNL     1      25.544   3.523  50.755  1.00  0.00     0.027 A 
ENDROOT
BRANCH   6   8
HETATM    8  N2  UNL     1      23.974   2.586  52.416  1.00  0.00    -0.299 N 
HETATM    9  H7  UNL     1      24.044   2.504  53.437  1.00  0.00     0.187 HD
BRANCH   8  10
HETATM   10  N3  UNL     1      23.404   1.535  51.677  1.00  0.00    -0.300 N 
HETATM   11  H8  UNL     1      24.026   0.692  51.510  1.00  0.00     0.187 HD
BRANCH  10  12
HETATM   12  C8  UNL     1      22.155   1.273  51.056  1.00  0.00     0.049 A 
HETATM   13  C9  UNL     1      21.996   1.575  49.703  1.00  0.00     0.031 A 
HETATM   14  C10 UNL     1      20.774   1.310  49.132  1.00  0.00     0.004 A 
HETATM   15  C11 UNL     1      19.753   0.765  49.892  1.00  0.00     0.019 A 
HETATM   16  C12 UNL     1      19.920   0.471  51.226  1.00  0.00     0.013 A 
HETATM   17 BR1  UNL     1      18.555  -0.278  52.321  1.00  0.00    -0.051 Br
HETATM   18  C13 UNL     1      21.148   0.735  51.810  1.00  0.00     0.050 A 
ENDBRANCH  10  12
ENDBRANCH   8  10
ENDBRANCH   6   8
BRANCH   7  19
HETATM   19  C15 UNL     1      26.249   2.448  50.904  1.00  0.00     0.009 C 
BRANCH  19  20
HETATM   20  C16 UNL     1      27.280   2.122  51.896  1.00  0.00     0.151 C 
BRANCH  20  21
HETATM   21  N4  UNL     1      26.962   0.908  52.670  1.00  0.00    -0.354 N 
HETATM   22  C17 UNL     1      26.479   1.161  53.972  1.00  0.00     0.240 C 
HETATM   23  O1  UNL     1      26.314   2.298  54.485  1.00  0.00    -0.269 OA
HETATM   24  H16 UNL     1      27.061  -0.082  52.343  1.00  0.00     0.163 HD
BRANCH  22  25
HETATM   25  C18 UNL     1      26.135   0.026  54.821  1.00  0.00     0.064 C 
HETATM   26  C19 UNL     1      25.136  -0.816  54.575  1.00  0.00     0.017 C 
ENDBRANCH  22  25
ENDBRANCH  20  21
ENDBRANCH  19  20
ENDBRANCH   7  19
BRANCH   1  27
HETATM   27  C2  UNL     1      26.835   4.572  49.229  1.00  0.00    -0.123 C 
HETATM   28  C1  UNL     1      27.843   4.971  48.493  1.00  0.00     0.099 C 
ENDBRANCH   1  27
TORSDOF 8
ENDMDL
MODEL 7
REMARK VINA RESULT:      -7.0      2.982      6.027
REMARK  8 active torsions:
REMARK  status: ('A' for Active; 'I' for Inactive)
REMARK    1  A    between atoms: C2_2  and  C3_3 
REMARK    2  A    between atoms: C7_8  and  N2_9 
REMARK    3  A    between atoms: N2_9  and  N3_10 
REMARK    4  A    between atoms: N3_10  and  C8_11 
REMARK    5  A    between atoms: C14_18  and  C15_19 
REMARK    6  A    between atoms: C15_19  and  C16_20 
REMARK    7  A    between atoms: C16_20  and  N4_21 
REMARK       I    between atoms: N4_21  and  C17_22 
REMARK    8  A    between atoms: C17_22  and  C18_24 
ROOT
HETATM    1  C3  UNL     1      23.690   5.053  50.498  1.00  0.00     0.109 A 
HETATM    2  N1  UNL     1      24.139   6.040  49.732  1.00  0.00    -0.251 NA
HETATM    3  C4  UNL     1      25.363   5.912  49.186  1.00  0.00     0.127 A 
HETATM    4  C5  UNL     1      26.130   4.791  49.413  1.00  0.00    -0.015 A 
HETATM    5  C6  UNL     1      27.468   4.667  48.806  1.00  0.00     0.052 C 
HETATM    6  C7  UNL     1      25.587   3.817  50.219  1.00  0.00     0.068 A 
HETATM    7  C14 UNL     1      24.317   3.898  50.815  1.00  0.00     0.027 A 
ENDROOT
BRANCH   6   8
HETATM    8  N2  UNL     1      26.425   2.673  50.424  1.00  0.00    -0.299 N 
HETATM    9  H7  UNL     1      26.597   1.838  49.851  1.00  0.00     0.187 HD
BRANCH   8  10
HETATM   10  N3  UNL     1      27.089   2.813  51.654  1.00  0.00    -0.300 N 
HETATM   11  H8  UNL     1      27.486   3.774  51.864  1.00  0.00     0.187 HD
BRANCH  10  12
HETATM   12  C8  UNL     1      27.394   1.976  52.759  1.00  0.00     0.049 A 
HETATM   13  C9  UNL     1      28.672   2.029  53.316  1.00  0.00     0.031 A 
HETATM   14  C10 UNL     1      28.935   1.206  54.385  1.00  0.00     0.004 A 
HETATM   15  C11 UNL     1      27.952   0.361  54.872  1.00  0.00     0.019 A 
HETATM   16  C12 UNL     1      26.694   0.315  54.316  1.00  0.00     0.013 A 
HETATM   17 BR1  UNL     1      25.303  -0.822  54.942  1.00  0.00    -0.051 Br
HETATM   18  C13 UNL     1      26.420   1.142  53.239  1.00  0.00     0.050 A 
ENDBRANCH  10  12
ENDBRANCH   8  10
ENDBRANCH   6   8
BRANCH   7  19
HETATM   19  C15 UNL     1      23.948   2.906  51.558  1.00  0.00     0.009 C 
BRANCH  19  20
HETATM   20  C16 UNL     1      23.185   1.700  51.217  1.00  0.00     0.151 C 
BRANCH  20  21
HETATM   21  N4  UNL     1      23.050   0.770  52.353  1.00  0.00    -0.354 N 
HETATM   22  C17 UNL     1      21.841   0.901  53.069  1.00  0.00     0.240 C 
HETATM   23  O1  UNL     1      20.921   1.720  52.811  1.00  0.00    -0.269 OA
HETATM   24  H16 UNL     1      23.751   0.052  52.656  1.00  0.00     0.163 HD
BRANCH  22  25
HETATM   25  C18 UNL     1      21.610   0.027  54.214  1.00  0.00     0.064 C 
HETATM   26  C19 UNL     1      21.235  -1.244  54.119  1.00  0.00     0.017 C 
ENDBRANCH  22  25
ENDBRANCH  20  21
ENDBRANCH  19  20
ENDBRANCH   7  19
BRANCH   1  27
HETATM   27  C2  UNL     1      22.477   5.189  51.026  1.00  0.00    -0.123 C 
HETATM   28  C1  UNL     1      21.222   5.537  51.168  1.00  0.00     0.099 C 
ENDBRANCH   1  27
TORSDOF 8
ENDMDL
MODEL 8
REMARK VINA RESULT:      -6.9      2.278      4.748
REMARK  8 active torsions:
REMARK  status: ('A' for Active; 'I' for Inactive)
REMARK    1  A    between atoms: C2_2  and  C3_3 
REMARK    2  A    between atoms: C7_8  and  N2_9 
REMARK    3  A    between atoms: N2_9  and  N3_10 
REMARK    4  A    between atoms: N3_10  and  C8_11 
REMARK    5  A    between atoms: C14_18  and  C15_19 
REMARK    6  A    between atoms: C15_19  and  C16_20 
REMARK    7  A    between atoms: C16_20  and  N4_21 
REMARK       I    between atoms: N4_21  and  C17_22 
REMARK    8  A    between atoms: C17_22  and  C18_24 
ROOT
HETATM    1  C3  UNL     1      23.926  -0.043  53.431  1.00  0.00     0.109 A 
HETATM    2  N1  UNL     1      25.051  -0.647  53.796  1.00  0.00    -0.251 NA
HETATM    3  C4  UNL     1      26.196   0.058  53.741  1.00  0.00     0.127 A 
HETATM    4  C5  UNL     1      26.206   1.369  53.319  1.00  0.00    -0.015 A 
HETATM    5  C6  UNL     1      27.470   2.126  53.267  1.00  0.00     0.052 C 
HETATM    6  C7  UNL     1      24.996   1.917  52.959  1.00  0.00     0.068 A 
HETATM    7  C14 UNL     1      23.772   1.228  52.996  1.00  0.00     0.027 A 
ENDROOT
BRANCH   6   8
HETATM    8  N2  UNL     1      25.062   3.281  52.528  1.00  0.00    -0.299 N 
HETATM    9  H7  UNL     1      24.890   4.165  53.021  1.00  0.00     0.187 HD
BRANCH   8  10
HETATM   10  N3  UNL     1      25.436   3.310  51.173  1.00  0.00    -0.300 N 
HETATM   11  H8  UNL     1      25.417   2.379  50.664  1.00  0.00     0.187 HD
BRANCH  10  12
HETATM   12  C8  UNL     1      25.857   4.296  50.244  1.00  0.00     0.049 A 
HETATM   13  C9  UNL     1      27.008   4.066  49.488  1.00  0.00     0.031 A 
HETATM   14  C10 UNL     1      27.389   5.041  48.597  1.00  0.00     0.004 A 
HETATM   15  C11 UNL     1      26.643   6.200  48.472  1.00  0.00     0.019 A 
HETATM   16  C12 UNL     1      25.510   6.419  49.222  1.00  0.00     0.013 A 
HETATM   17 BR1  UNL     1      24.445   7.991  49.094  1.00  0.00    -0.051 Br
HETATM   18  C13 UNL     1      25.118   5.441  50.122  1.00  0.00     0.050 A 
ENDBRANCH  10  12
ENDBRANCH   8  10
ENDBRANCH   6   8
BRANCH   7  19
HETATM   19  C15 UNL     1      22.718   1.874  52.615  1.00  0.00     0.009 C 
BRANCH  19  20
HETATM   20  C16 UNL     1      22.078   1.949  51.296  1.00  0.00     0.151 C 
BRANCH  20  21
HETATM   21  N4  UNL     1      21.127   0.848  51.062  1.00  0.00    -0.354 N 
HETATM   22  C17 UNL     1      19.844   1.064  51.613  1.00  0.00     0.240 C 
HETATM   23  O1  UNL     1      19.485   2.082  52.257  1.00  0.00    -0.269 OA
HETATM   24  H16 UNL     1      21.318  -0.041  50.542  1.00  0.00     0.163 HD
BRANCH  22  25
HETATM   25  C18 UNL     1      18.828   0.033  51.437  1.00  0.00     0.064 C 
HETATM   26  C19 UNL     1      18.164  -0.540  52.435  1.00  0.00     0.017 C 
ENDBRANCH  22  25
ENDBRANCH  20  21
ENDBRANCH  19  20
ENDBRANCH   7  19
BRANCH   1  27
HETATM   27  C2  UNL     1      22.800  -0.748  53.496  1.00  0.00    -0.123 C 
HETATM   28  C1  UNL     1      21.915  -1.631  53.887  1.00  0.00     0.099 C 
ENDBRANCH   1  27
TORSDOF 8
ENDMDL
MODEL 9
REMARK VINA RESULT:      -6.8      3.185      6.356
REMARK  8 active torsions:
REMARK  status: ('A' for Active; 'I' for Inactive)
REMARK    1  A    between atoms: C2_2  and  C3_3 
REMARK    2  A    between atoms: C7_8  and  N2_9 
REMARK    3  A    between atoms: N2_9  and  N3_10 
REMARK    4  A    between atoms: N3_10  and  C8_11 
REMARK    5  A    between atoms: C14_18  and  C15_19 
REMARK    6  A    between atoms: C15_19  and  C16_20 
REMARK    7  A    between atoms: C16_20  and  N4_21 
REMARK       I    between atoms: N4_21  and  C17_22 
REMARK    8  A    between atoms: C17_22  and  C18_24 
ROOT
HETATM    1  C3  UNL     1      26.087  -0.288  54.465  1.00  0.00     0.109 A 
HETATM    2  N1  UNL     1      25.610  -0.857  55.566  1.00  0.00    -0.251 NA
HETATM    3  C4  UNL     1      24.299  -1.156  55.608  1.00  0.00     0.127 A 
HETATM    4  C5  UNL     1      23.471  -0.882  54.542  1.00  0.00    -0.015 A 
HETATM    5  C6  UNL     1      22.037  -1.217  54.606  1.00  0.00     0.052 C 
HETATM    6  C7  UNL     1      24.048  -0.291  53.442  1.00  0.00     0.068 A 
HETATM    7  C14 UNL     1      25.409   0.043  53.344  1.00  0.00     0.027 A 
ENDROOT
BRANCH   6   8
HETATM    8  N2  UNL     1      23.144  -0.026  52.362  1.00  0.00    -0.299 N 
HETATM    9  H7  UNL     1      23.008  -0.486  51.454  1.00  0.00     0.187 HD
BRANCH   8  10
HETATM   10  N3  UNL     1      22.343   1.078  52.702  1.00  0.00    -0.300 N 
HETATM   11  H8  UNL     1      22.746   1.740  53.426  1.00  0.00     0.187 HD
BRANCH  10  12
HETATM   12  C8  UNL     1      21.072   1.581  52.323  1.00  0.00     0.049 A 
HETATM   13  C9  UNL     1      20.864   2.961  52.323  1.00  0.00     0.031 A 
HETATM   14  C10 UNL     1      19.621   3.417  51.951  1.00  0.00     0.004 A 
HETATM   15  C11 UNL     1      18.628   2.520  51.596  1.00  0.00     0.019 A 
HETATM   16  C12 UNL     1      18.842   1.161  51.599  1.00  0.00     0.013 A 
HETATM   17 BR1  UNL     1      17.518  -0.119  51.120  1.00  0.00    -0.051 Br
HETATM   18  C13 UNL     1      20.092   0.692  51.972  1.00  0.00     0.050 A 
ENDBRANCH  10  12
ENDBRANCH   8  10
ENDBRANCH   6   8
BRANCH   7  19
HETATM   19  C15 UNL     1      25.802   0.606  52.247  1.00  0.00     0.009 C 
BRANCH  19  20
HETATM   20  C16 UNL     1      26.234   1.986  51.993  1.00  0.00     0.151 C 
BRANCH  20  21
HETATM   21  N4  UNL     1      25.497   2.618  50.883  1.00  0.00    -0.354 N 
HETATM   22  C17 UNL     1      24.455   3.477  51.295  1.00  0.00     0.240 C 
HETATM   23  O1  UNL     1      24.135   3.723  52.486  1.00  0.00    -0.269 OA
HETATM   24  H16 UNL     1      25.678   2.485  49.860  1.00  0.00     0.163 HD
BRANCH  22  25
HETATM   25  C18 UNL     1      23.664   4.153  50.272  1.00  0.00     0.064 C 
HETATM   26  C19 UNL     1      24.148   4.569  49.107  1.00  0.00     0.017 C 
ENDBRANCH  22  25
ENDBRANCH  20  21
ENDBRANCH  19  20
ENDBRANCH   7  19
BRANCH   1  27
HETATM   27  C2  UNL     1      27.385  -0.003  54.433  1.00  0.00    -0.123 C 
HETATM   28  C1  UNL     1      28.581   0.362  54.825  1.00  0.00     0.099 C 
ENDBRANCH   1  27
TORSDOF 8
ENDMDL
