MODEL 1
REMARK VINA RESULT:      -8.5      0.000      0.000
REMARK  7 active torsions:
REMARK  status: ('A' for Active; 'I' for Inactive)
REMARK    1  A    between atoms: C5_7  and  C6_8 
REMARK    2  A    between atoms: C6_8  and  C7_9 
REMARK    3  A    between atoms: C7_9  and  O2_10 
REMARK    4  A    between atoms: O2_10  and  C8_11 
REMARK    5  A    between atoms: C10_13  and  N2_14 
REMARK    6  A    between atoms: N2_14  and  C11_15 
REMARK    7  A    between atoms: C15_20  and  O3_21 
ROOT
HETATM    1  C8  UNL     1      23.141   2.926  49.942  1.00  0.00     0.176 C 
HETATM    2  C9  UNL     1      24.610   2.876  49.961  1.00  0.00     0.059 C 
HETATM    3  C10 UNL     1      25.038   2.956  51.237  1.00  0.00     0.128 C 
HETATM    4  N3  UNL     1      24.512   3.062  52.536  1.00  0.00    -0.225 NA
HETATM    5  C17 UNL     1      23.817   3.981  53.056  1.00  0.00     0.234 C 
HETATM    6  N4  UNL     1      23.387   5.156  52.451  1.00  0.00    -0.254 NA
HETATM    7  C18 UNL     1      23.028   5.385  51.262  1.00  0.00     0.118 C 
HETATM    8  C19 UNL     1      22.685   5.290  49.846  1.00  0.00     0.024 C 
HETATM    9  C20 UNL     1      22.732   4.151  49.182  1.00  0.00    -0.050 C 
HETATM   10  C21 UNL     1      22.476   4.382  47.716  1.00  0.00     0.046 C 
ENDROOT
BRANCH   1  11
HETATM   11  O2  UNL     1      22.489   2.820  51.125  1.00  0.00    -0.377 OA
BRANCH  11  12
HETATM   12  C7  UNL     1      21.392   1.997  51.172  1.00  0.00     0.171 C 
BRANCH  12  13
HETATM   13  C6  UNL     1      20.790   1.847  52.547  1.00  0.00     0.063 C 
BRANCH  13  14
HETATM   14  C5  UNL     1      21.574   0.888  53.417  1.00  0.00     0.236 C 
HETATM   15  C2  UNL     1      20.803  -0.331  53.774  1.00  0.00     0.024 C 
HETATM   16  C1  UNL     1      19.635  -0.872  53.453  1.00  0.00     0.015 C 
HETATM   17  C3  UNL     1      21.556  -1.153  54.752  1.00  0.00     0.182 C 
HETATM   18  O1  UNL     1      22.891  -0.868  54.627  1.00  0.00    -0.362 OA
HETATM   19  C4  UNL     1      23.337  -0.724  53.315  1.00  0.00     0.438 C 
HETATM   20  N1  UNL     1      22.743   0.445  52.679  1.00  0.00     0.112 N 
HETATM   21  H7  UNL     1      23.431   1.216  52.523  1.00  0.00     0.319 HD
ENDBRANCH  13  14
ENDBRANCH  12  13
ENDBRANCH  11  12
ENDBRANCH   1  11
BRANCH   3  22
HETATM   22  N2  UNL     1      26.428   2.929  51.503  1.00  0.00    -0.341 N 
HETATM   23  H15 UNL     1      26.885   3.719  50.997  1.00  0.00     0.167 HD
BRANCH  22  24
HETATM   24  C11 UNL     1      27.170   2.027  52.307  1.00  0.00     0.036 A 
HETATM   25  C12 UNL     1      26.998   0.665  52.241  1.00  0.00     0.032 A 
HETATM   26  C13 UNL     1      27.763  -0.133  53.061  1.00  0.00     0.047 A 
HETATM   27  C14 UNL     1      28.693   0.355  53.947  1.00  0.00     0.149 A 
HETATM   28  F1  UNL     1      29.389  -0.528  54.705  1.00  0.00    -0.203 F 
HETATM   29  C15 UNL     1      28.840   1.738  53.988  1.00  0.00     0.106 A 
HETATM   30  C16 UNL     1      28.090   2.552  53.182  1.00  0.00     0.069 A 
BRANCH  29  31
HETATM   31  O3  UNL     1      29.771   2.242  54.873  1.00  0.00    -0.358 OA
HETATM   32  H18 UNL     1      30.632   1.736  55.001  1.00  0.00     0.217 HD
ENDBRANCH  29  31
ENDBRANCH  22  24
ENDBRANCH   3  22
TORSDOF 7
ENDMDL
MODEL 2
REMARK VINA RESULT:      -8.1      3.706      5.577
REMARK  7 active torsions:
REMARK  status: ('A' for Active; 'I' for Inactive)
REMARK    1  A    between atoms: C5_7  and  C6_8 
REMARK    2  A    between atoms: C6_8  and  C7_9 
REMARK    3  A    between atoms: C7_9  and  O2_10 
REMARK    4  A    between atoms: O2_10  and  C8_11 
REMARK    5  A    between atoms: C10_13  and  N2_14 
REMARK    6  A    between atoms: N2_14  and  C11_15 
REMARK    7  A    between atoms: C15_20  and  O3_21 
ROOT
HETATM    1  C8  UNL     1      23.727   2.770  49.837  1.00  0.00     0.176 C 
HETATM    2  C9  UNL     1      23.906   4.067  49.169  1.00  0.00     0.059 C 
HETATM    3  C10 UNL     1      24.123   5.018  50.100  1.00  0.00     0.128 C 
HETATM    4  N3  UNL     1      24.238   5.141  51.495  1.00  0.00    -0.225 NA
HETATM    5  C17 UNL     1      23.388   4.911  52.401  1.00  0.00     0.234 C 
HETATM    6  N4  UNL     1      22.081   4.464  52.236  1.00  0.00    -0.254 NA
HETATM    7  C18 UNL     1      21.587   3.664  51.393  1.00  0.00     0.118 C 
HETATM    8  C19 UNL     1      21.363   2.724  50.299  1.00  0.00     0.024 C 
HETATM    9  C20 UNL     1      22.343   2.282  49.534  1.00  0.00    -0.050 C 
HETATM   10  C21 UNL     1      21.799   1.452  48.401  1.00  0.00     0.046 C 
ENDROOT
BRANCH   1  11
HETATM   11  O2  UNL     1      24.014   2.695  51.160  1.00  0.00    -0.377 OA
BRANCH  11  12
HETATM   12  C7  UNL     1      24.689   1.584  51.600  1.00  0.00     0.171 C 
BRANCH  12  13
HETATM   13  C6  UNL     1      24.611   1.363  53.090  1.00  0.00     0.063 C 
BRANCH  13  14
HETATM   14  C5  UNL     1      25.967   1.450  53.756  1.00  0.00     0.236 C 
HETATM   15  C2  UNL     1      26.720   0.170  53.705  1.00  0.00     0.024 C 
HETATM   16  C1  UNL     1      26.577  -1.020  53.136  1.00  0.00     0.015 C 
HETATM   17  C3  UNL     1      27.963   0.266  54.507  1.00  0.00     0.182 C 
HETATM   18  O1  UNL     1      28.324   1.587  54.598  1.00  0.00    -0.362 OA
HETATM   19  C4  UNL     1      28.170   2.316  53.420  1.00  0.00     0.438 C 
HETATM   20  N1  UNL     1      26.766   2.437  53.052  1.00  0.00     0.112 N 
HETATM   21  H7  UNL     1      26.397   3.407  53.173  1.00  0.00     0.319 HD
ENDBRANCH  13  14
ENDBRANCH  12  13
ENDBRANCH  11  12
ENDBRANCH   1  11
BRANCH   3  22
HETATM   22  N2  UNL     1      24.323   6.357  49.687  1.00  0.00    -0.341 N 
HETATM   23  H15 UNL     1      23.394   6.819  49.578  1.00  0.00     0.167 HD
BRANCH  22  24
HETATM   24  C11 UNL     1      25.537   7.047  49.438  1.00  0.00     0.036 A 
HETATM   25  C12 UNL     1      26.319   6.795  48.337  1.00  0.00     0.032 A 
HETATM   26  C13 UNL     1      27.481   7.514  48.179  1.00  0.00     0.047 A 
HETATM   27  C14 UNL     1      27.908   8.474  49.063  1.00  0.00     0.149 A 
HETATM   28  F1  UNL     1      29.072   9.120  48.804  1.00  0.00    -0.203 F 
HETATM   29  C15 UNL     1      27.092   8.704  50.167  1.00  0.00     0.106 A 
HETATM   30  C16 UNL     1      25.931   8.000  50.345  1.00  0.00     0.069 A 
BRANCH  29  31
HETATM   31  O3  UNL     1      27.509   9.666  51.064  1.00  0.00    -0.358 OA
HETATM   32  H18 UNL     1      28.453  10.009  50.993  1.00  0.00     0.217 HD
ENDBRANCH  29  31
ENDBRANCH  22  24
ENDBRANCH   3  22
TORSDOF 7
ENDMDL
MODEL 3
REMARK VINA RESULT:      -8.0      1.866      4.979
REMARK  7 active torsions:
REMARK  status: ('A' for Active; 'I' for Inactive)
REMARK    1  A    between atoms: C5_7  and  C6_8 
REMARK    2  A    between atoms: C6_8  and  C7_9 
REMARK    3  A    between atoms: C7_9  and  O2_10 
REMARK    4  A    between atoms: O2_10  and  C8_11 
REMARK    5  A    between atoms: C10_13  and  N2_14 
REMARK    6  A    between atoms: N2_14  and  C11_15 
REMARK    7  A    between atoms: C15_20  and  O3_21 
ROOT
HETATM    1  C8  UNL     1      22.349   2.306  52.685  1.00  0.00     0.176 C 
HETATM    2  C9  UNL     1      23.759   1.892  52.643  1.00  0.00     0.059 C 
HETATM    3  C10 UNL     1      24.290   2.255  51.457  1.00  0.00     0.128 C 
HETATM    4  N3  UNL     1      23.912   2.908  50.272  1.00  0.00    -0.225 NA
HETATM    5  C17 UNL     1      23.043   2.587  49.413  1.00  0.00     0.234 C 
HETATM    6  N4  UNL     1      22.217   1.469  49.427  1.00  0.00    -0.254 NA
HETATM    7  C18 UNL     1      21.670   0.864  50.392  1.00  0.00     0.118 C 
HETATM    8  C19 UNL     1      21.207   0.425  51.705  1.00  0.00     0.024 C 
HETATM    9  C20 UNL     1      21.510   1.071  52.814  1.00  0.00    -0.050 C 
HETATM   10  C21 UNL     1      21.027   0.309  54.021  1.00  0.00     0.046 C 
ENDROOT
BRANCH   1  11
HETATM   11  O2  UNL     1      21.900   3.125  51.703  1.00  0.00    -0.377 OA
BRANCH  11  12
HETATM   12  C7  UNL     1      21.134   4.201  52.076  1.00  0.00     0.171 C 
BRANCH  12  13
HETATM   13  C6  UNL     1      20.839   5.168  50.956  1.00  0.00     0.063 C 
BRANCH  13  14
HETATM   14  C5  UNL     1      22.079   5.895  50.482  1.00  0.00     0.236 C 
HETATM   15  C2  UNL     1      21.817   7.315  50.130  1.00  0.00     0.024 C 
HETATM   16  C1  UNL     1      20.804   8.167  50.215  1.00  0.00     0.015 C 
HETATM   17  C3  UNL     1      23.023   7.929  49.524  1.00  0.00     0.182 C 
HETATM   18  O1  UNL     1      24.128   7.236  49.948  1.00  0.00    -0.362 OA
HETATM   19  C4  UNL     1      24.106   6.870  51.292  1.00  0.00     0.438 C 
HETATM   20  N1  UNL     1      23.052   5.901  51.560  1.00  0.00     0.112 N 
HETATM   21  H7  UNL     1      23.421   4.946  51.768  1.00  0.00     0.319 HD
ENDBRANCH  13  14
ENDBRANCH  12  13
ENDBRANCH  11  12
ENDBRANCH   1  11
BRANCH   3  22
HETATM   22  N2  UNL     1      25.647   1.957  51.188  1.00  0.00    -0.341 N 
HETATM   23  H15 UNL     1      25.873   2.258  50.215  1.00  0.00     0.167 HD
BRANCH  22  24
HETATM   24  C11 UNL     1      26.617   1.356  52.030  1.00  0.00     0.036 A 
HETATM   25  C12 UNL     1      26.740  -0.007  52.163  1.00  0.00     0.032 A 
HETATM   26  C13 UNL     1      27.711  -0.499  53.004  1.00  0.00     0.047 A 
HETATM   27  C14 UNL     1      28.570   0.296  53.723  1.00  0.00     0.149 A 
HETATM   28  F1  UNL     1      29.489  -0.302  54.521  1.00  0.00    -0.203 F 
HETATM   29  C15 UNL     1      28.418   1.670  53.565  1.00  0.00     0.106 A 
HETATM   30  C16 UNL     1      27.459   2.183  52.734  1.00  0.00     0.069 A 
BRANCH  29  31
HETATM   31  O3  UNL     1      29.275   2.481  54.281  1.00  0.00    -0.358 OA
HETATM   32  H18 UNL     1      29.101   3.473  54.286  1.00  0.00     0.217 HD
ENDBRANCH  29  31
ENDBRANCH  22  24
ENDBRANCH   3  22
TORSDOF 7
ENDMDL
MODEL 4
REMARK VINA RESULT:      -7.9      2.265      3.227
REMARK  7 active torsions:
REMARK  status: ('A' for Active; 'I' for Inactive)
REMARK    1  A    between atoms: C5_7  and  C6_8 
REMARK    2  A    between atoms: C6_8  and  C7_9 
REMARK    3  A    between atoms: C7_9  and  O2_10 
REMARK    4  A    between atoms: O2_10  and  C8_11 
REMARK    5  A    between atoms: C10_13  and  N2_14 
REMARK    6  A    between atoms: N2_14  and  C11_15 
REMARK    7  A    between atoms: C15_20  and  O3_21 
ROOT
HETATM    1  C8  UNL     1      25.009   3.712  49.642  1.00  0.00     0.176 C 
HETATM    2  C9  UNL     1      25.740   3.107  50.765  1.00  0.00     0.059 C 
HETATM    3  C10 UNL     1      24.861   2.748  51.722  1.00  0.00     0.128 C 
HETATM    4  N3  UNL     1      23.476   2.769  51.964  1.00  0.00    -0.225 NA
HETATM    5  C17 UNL     1      22.687   3.750  52.066  1.00  0.00     0.234 C 
HETATM    6  N4  UNL     1      23.003   5.100  51.962  1.00  0.00    -0.254 NA
HETATM    7  C18 UNL     1      23.846   5.693  51.232  1.00  0.00     0.118 C 
HETATM    8  C19 UNL     1      24.889   6.035  50.269  1.00  0.00     0.024 C 
HETATM    9  C20 UNL     1      25.470   5.131  49.504  1.00  0.00    -0.050 C 
HETATM   10  C21 UNL     1      26.604   5.745  48.725  1.00  0.00     0.046 C 
ENDROOT
BRANCH   1  11
HETATM   11  O2  UNL     1      23.657   3.615  49.641  1.00  0.00    -0.377 OA
BRANCH  11  12
HETATM   12  C7  UNL     1      23.042   3.353  48.442  1.00  0.00     0.171 C 
BRANCH  12  13
HETATM   13  C6  UNL     1      22.408   1.986  48.358  1.00  0.00     0.063 C 
BRANCH  13  14
HETATM   14  C5  UNL     1      20.936   2.013  48.707  1.00  0.00     0.236 C 
HETATM   15  C2  UNL     1      20.594   1.114  49.840  1.00  0.00     0.024 C 
HETATM   16  C1  UNL     1      21.247   0.361  50.715  1.00  0.00     0.015 C 
HETATM   17  C3  UNL     1      19.125   1.058  50.033  1.00  0.00     0.182 C 
HETATM   18  O1  UNL     1      18.572   2.203  49.518  1.00  0.00    -0.362 OA
HETATM   19  C4  UNL     1      19.287   3.368  49.786  1.00  0.00     0.438 C 
HETATM   20  N1  UNL     1      20.582   3.360  49.117  1.00  0.00     0.112 N 
HETATM   21  H7  UNL     1      20.635   4.043  48.327  1.00  0.00     0.319 HD
ENDBRANCH  13  14
ENDBRANCH  12  13
ENDBRANCH  11  12
ENDBRANCH   1  11
BRANCH   3  22
HETATM   22  N2  UNL     1      25.339   2.141  52.908  1.00  0.00    -0.341 N 
HETATM   23  H15 UNL     1      24.610   2.228  53.650  1.00  0.00     0.167 HD
BRANCH  22  24
HETATM   24  C11 UNL     1      26.579   1.497  53.148  1.00  0.00     0.036 A 
HETATM   25  C12 UNL     1      26.820   0.195  52.781  1.00  0.00     0.032 A 
HETATM   26  C13 UNL     1      28.055  -0.347  53.056  1.00  0.00     0.047 A 
HETATM   27  C14 UNL     1      29.067   0.342  53.679  1.00  0.00     0.149 A 
HETATM   28  F1  UNL     1      30.243  -0.296  53.898  1.00  0.00    -0.203 F 
HETATM   29  C15 UNL     1      28.789   1.658  54.037  1.00  0.00     0.106 A 
HETATM   30  C16 UNL     1      27.568   2.218  53.774  1.00  0.00     0.069 A 
BRANCH  29  31
HETATM   31  O3  UNL     1      29.796   2.362  54.664  1.00  0.00    -0.358 OA
HETATM   32  H18 UNL     1      30.339   1.892  55.371  1.00  0.00     0.217 HD
ENDBRANCH  29  31
ENDBRANCH  22  24
ENDBRANCH   3  22
TORSDOF 7
ENDMDL
MODEL 5
REMARK VINA RESULT:      -7.8      2.633      6.190
REMARK  7 active torsions:
REMARK  status: ('A' for Active; 'I' for Inactive)
REMARK    1  A    between atoms: C5_7  and  C6_8 
REMARK    2  A    between atoms: C6_8  and  C7_9 
REMARK    3  A    between atoms: C7_9  and  O2_10 
REMARK    4  A    between atoms: O2_10  and  C8_11 
REMARK    5  A    between atoms: C10_13  and  N2_14 
REMARK    6  A    between atoms: N2_14  and  C11_15 
REMARK    7  A    between atoms: C15_20  and  O3_21 
ROOT
HETATM    1  C8  UNL     1      23.837   4.201  51.765  1.00  0.00     0.176 C 
HETATM    2  C9  UNL     1      22.452   4.077  52.242  1.00  0.00     0.059 C 
HETATM    3  C10 UNL     1      21.925   2.926  51.776  1.00  0.00     0.128 C 
HETATM    4  N3  UNL     1      22.298   1.821  50.992  1.00  0.00    -0.225 NA
HETATM    5  C17 UNL     1      22.648   1.770  49.779  1.00  0.00     0.234 C 
HETATM    6  N4  UNL     1      22.754   2.831  48.887  1.00  0.00    -0.254 NA
HETATM    7  C18 UNL     1      23.117   4.027  49.072  1.00  0.00     0.118 C 
HETATM    8  C19 UNL     1      23.577   5.293  49.634  1.00  0.00     0.024 C 
HETATM    9  C20 UNL     1      23.920   5.422  50.902  1.00  0.00    -0.050 C 
HETATM   10  C21 UNL     1      24.205   6.864  51.230  1.00  0.00     0.046 C 
ENDROOT
BRANCH   1  11
HETATM   11  O2  UNL     1      24.401   3.120  51.173  1.00  0.00    -0.377 OA
BRANCH  11  12
HETATM   12  C7  UNL     1      25.545   2.614  51.737  1.00  0.00     0.171 C 
BRANCH  12  13
HETATM   13  C6  UNL     1      25.313   1.815  52.995  1.00  0.00     0.063 C 
BRANCH  13  14
HETATM   14  C5  UNL     1      26.581   1.631  53.802  1.00  0.00     0.236 C 
HETATM   15  C2  UNL     1      27.182   0.282  53.635  1.00  0.00     0.024 C 
HETATM   16  C1  UNL     1      26.972  -0.789  52.882  1.00  0.00     0.015 C 
HETATM   17  C3  UNL     1      28.323   0.104  54.564  1.00  0.00     0.182 C 
HETATM   18  O1  UNL     1      28.820   1.340  54.890  1.00  0.00    -0.362 OA
HETATM   19  C4  UNL     1      28.894   2.237  53.826  1.00  0.00     0.438 C 
HETATM   20  N1  UNL     1      27.567   2.592  53.339  1.00  0.00     0.112 N 
HETATM   21  H7  UNL     1      27.300   3.576  53.566  1.00  0.00     0.319 HD
ENDBRANCH  13  14
ENDBRANCH  12  13
ENDBRANCH  11  12
ENDBRANCH   1  11
BRANCH   3  22
HETATM   22  N2  UNL     1      20.590   2.593  52.108  1.00  0.00    -0.341 N 
HETATM   23  H15 UNL     1      19.999   3.449  52.029  1.00  0.00     0.167 HD
BRANCH  22  24
HETATM   24  C11 UNL     1      20.047   1.341  52.490  1.00  0.00     0.036 A 
HETATM   25  C12 UNL     1      18.925   0.810  51.902  1.00  0.00     0.032 A 
HETATM   26  C13 UNL     1      18.470  -0.413  52.340  1.00  0.00     0.047 A 
HETATM   27  C14 UNL     1      19.076  -1.138  53.337  1.00  0.00     0.149 A 
HETATM   28  F1  UNL     1      18.538  -2.332  53.686  1.00  0.00    -0.203 F 
HETATM   29  C15 UNL     1      20.210  -0.571  53.911  1.00  0.00     0.106 A 
HETATM   30  C16 UNL     1      20.681   0.644  53.492  1.00  0.00     0.069 A 
BRANCH  29  31
HETATM   31  O3  UNL     1      20.829  -1.288  54.914  1.00  0.00    -0.358 OA
HETATM   32  H18 UNL     1      21.531  -1.962  54.655  1.00  0.00     0.217 HD
ENDBRANCH  29  31
ENDBRANCH  22  24
ENDBRANCH   3  22
TORSDOF 7
ENDMDL
MODEL 6
REMARK VINA RESULT:      -7.6      3.721      5.588
REMARK  7 active torsions:
REMARK  status: ('A' for Active; 'I' for Inactive)
REMARK    1  A    between atoms: C5_7  and  C6_8 
REMARK    2  A    between atoms: C6_8  and  C7_9 
REMARK    3  A    between atoms: C7_9  and  O2_10 
REMARK    4  A    between atoms: O2_10  and  C8_11 
REMARK    5  A    between atoms: C10_13  and  N2_14 
REMARK    6  A    between atoms: N2_14  and  C11_15 
REMARK    7  A    between atoms: C15_20  and  O3_21 
ROOT
HETATM    1  C8  UNL     1      23.868   2.678  50.418  1.00  0.00     0.176 C 
HETATM    2  C9  UNL     1      24.271   3.475  49.250  1.00  0.00     0.059 C 
HETATM    3  C10 UNL     1      24.605   4.717  49.656  1.00  0.00     0.128 C 
HETATM    4  N3  UNL     1      24.692   5.466  50.843  1.00  0.00    -0.225 NA
HETATM    5  C17 UNL     1      23.786   5.796  51.660  1.00  0.00     0.234 C 
HETATM    6  N4  UNL     1      22.432   5.490  51.585  1.00  0.00    -0.254 NA
HETATM    7  C18 UNL     1      21.845   4.457  51.159  1.00  0.00     0.118 C 
HETATM    8  C19 UNL     1      21.512   3.149  50.603  1.00  0.00     0.024 C 
HETATM    9  C20 UNL     1      22.435   2.281  50.232  1.00  0.00    -0.050 C 
HETATM   10  C21 UNL     1      21.804   1.091  49.559  1.00  0.00     0.046 C 
ENDROOT
BRANCH   1  11
HETATM   11  O2  UNL     1      24.095   3.199  51.649  1.00  0.00    -0.377 OA
BRANCH  11  12
HETATM   12  C7  UNL     1      24.771   2.417  52.552  1.00  0.00     0.171 C 
BRANCH  12  13
HETATM   13  C6  UNL     1      26.103   1.909  52.056  1.00  0.00     0.063 C 
BRANCH  13  14
HETATM   14  C5  UNL     1      26.726   0.908  53.005  1.00  0.00     0.236 C 
HETATM   15  C2  UNL     1      28.000   1.390  53.598  1.00  0.00     0.024 C 
HETATM   16  C1  UNL     1      28.703   2.514  53.610  1.00  0.00     0.015 C 
HETATM   17  C3  UNL     1      28.643   0.313  54.388  1.00  0.00     0.182 C 
HETATM   18  O1  UNL     1      27.677  -0.576  54.787  1.00  0.00    -0.362 OA
HETATM   19  C4  UNL     1      26.485   0.010  55.208  1.00  0.00     0.438 C 
HETATM   20  N1  UNL     1      25.807   0.681  54.106  1.00  0.00     0.112 N 
HETATM   21  H7  UNL     1      24.937   0.188  53.804  1.00  0.00     0.319 HD
ENDBRANCH  13  14
ENDBRANCH  12  13
ENDBRANCH  11  12
ENDBRANCH   1  11
BRANCH   3  22
HETATM   22  N2  UNL     1      25.027   5.668  48.697  1.00  0.00    -0.341 N 
HETATM   23  H15 UNL     1      24.213   5.927  48.097  1.00  0.00     0.167 HD
BRANCH  22  24
HETATM   24  C11 UNL     1      26.311   6.236  48.503  1.00  0.00     0.036 A 
HETATM   25  C12 UNL     1      26.505   7.587  48.336  1.00  0.00     0.032 A 
HETATM   26  C13 UNL     1      27.788   8.048  48.154  1.00  0.00     0.047 A 
HETATM   27  C14 UNL     1      28.894   7.233  48.128  1.00  0.00     0.149 A 
HETATM   28  F1  UNL     1      30.111   7.800  47.941  1.00  0.00    -0.203 F 
HETATM   29  C15 UNL     1      28.661   5.871  48.300  1.00  0.00     0.106 A 
HETATM   30  C16 UNL     1      27.393   5.389  48.483  1.00  0.00     0.069 A 
BRANCH  29  31
HETATM   31  O3  UNL     1      29.763   5.041  48.276  1.00  0.00    -0.358 OA
HETATM   32  H18 UNL     1      30.669   5.453  48.128  1.00  0.00     0.217 HD
ENDBRANCH  29  31
ENDBRANCH  22  24
ENDBRANCH   3  22
TORSDOF 7
ENDMDL
MODEL 7
REMARK VINA RESULT:      -7.6      2.627      5.507
REMARK  7 active torsions:
REMARK  status: ('A' for Active; 'I' for Inactive)
REMARK    1  A    between atoms: C5_7  and  C6_8 
REMARK    2  A    between atoms: C6_8  and  C7_9 
REMARK    3  A    between atoms: C7_9  and  O2_10 
REMARK    4  A    between atoms: O2_10  and  C8_11 
REMARK    5  A    between atoms: C10_13  and  N2_14 
REMARK    6  A    between atoms: N2_14  and  C11_15 
REMARK    7  A    between atoms: C15_20  and  O3_21 
ROOT
HETATM    1  C8  UNL     1      23.189   3.146  52.528  1.00  0.00     0.176 C 
HETATM    2  C9  UNL     1      23.679   1.766  52.651  1.00  0.00     0.059 C 
HETATM    3  C10 UNL     1      24.832   1.643  51.963  1.00  0.00     0.128 C 
HETATM    4  N3  UNL     1      25.700   2.427  51.184  1.00  0.00    -0.225 NA
HETATM    5  C17 UNL     1      25.491   3.020  50.088  1.00  0.00     0.234 C 
HETATM    6  N4  UNL     1      24.310   3.045  49.355  1.00  0.00    -0.254 NA
HETATM    7  C18 UNL     1      23.106   3.059  49.738  1.00  0.00     0.118 C 
HETATM    8  C19 UNL     1      21.870   3.072  50.514  1.00  0.00     0.024 C 
HETATM    9  C20 UNL     1      21.863   3.105  51.833  1.00  0.00    -0.050 C 
HETATM   10  C21 UNL     1      20.460   2.956  52.359  1.00  0.00     0.046 C 
ENDROOT
BRANCH   1  11
HETATM   11  O2  UNL     1      24.021   4.066  51.981  1.00  0.00    -0.377 OA
BRANCH  11  12
HETATM   12  C7  UNL     1      23.871   5.371  52.379  1.00  0.00     0.171 C 
BRANCH  12  13
HETATM   13  C6  UNL     1      23.719   6.351  51.241  1.00  0.00     0.063 C 
BRANCH  13  14
HETATM   14  C5  UNL     1      25.024   6.593  50.512  1.00  0.00     0.236 C 
HETATM   15  C2  UNL     1      24.877   6.551  49.035  1.00  0.00     0.024 C 
HETATM   16  C1  UNL     1      23.886   6.463  48.158  1.00  0.00     0.015 C 
HETATM   17  C3  UNL     1      26.205   6.633  48.379  1.00  0.00     0.182 C 
HETATM   18  O1  UNL     1      27.080   7.248  49.237  1.00  0.00    -0.362 OA
HETATM   19  C4  UNL     1      26.551   8.337  49.928  1.00  0.00     0.438 C 
HETATM   20  N1  UNL     1      25.503   7.921  50.851  1.00  0.00     0.112 N 
HETATM   21  H7  UNL     1      25.791   7.996  51.852  1.00  0.00     0.319 HD
ENDBRANCH  13  14
ENDBRANCH  12  13
ENDBRANCH  11  12
ENDBRANCH   1  11
BRANCH   3  22
HETATM   22  N2  UNL     1      25.492   0.390  51.938  1.00  0.00    -0.341 N 
HETATM   23  H15 UNL     1      24.906  -0.289  51.404  1.00  0.00     0.167 HD
BRANCH  22  24
HETATM   24  C11 UNL     1      26.737   0.021  52.506  1.00  0.00     0.036 A 
HETATM   25  C12 UNL     1      27.624   0.943  53.008  1.00  0.00     0.032 A 
HETATM   26  C13 UNL     1      28.809   0.490  53.540  1.00  0.00     0.047 A 
HETATM   27  C14 UNL     1      29.160  -0.836  53.600  1.00  0.00     0.149 A 
HETATM   28  F1  UNL     1      30.356  -1.165  54.148  1.00  0.00    -0.203 F 
HETATM   29  C15 UNL     1      28.239  -1.742  53.083  1.00  0.00     0.106 A 
HETATM   30  C16 UNL     1      27.053  -1.316  52.548  1.00  0.00     0.069 A 
BRANCH  29  31
HETATM   31  O3  UNL     1      28.578  -3.078  53.137  1.00  0.00    -0.358 OA
HETATM   32  H18 UNL     1      28.127  -3.712  52.497  1.00  0.00     0.217 HD
ENDBRANCH  29  31
ENDBRANCH  22  24
ENDBRANCH   3  22
TORSDOF 7
ENDMDL
MODEL 8
REMARK VINA RESULT:      -7.5      2.595      4.316
REMARK  7 active torsions:
REMARK  status: ('A' for Active; 'I' for Inactive)
REMARK    1  A    between atoms: C5_7  and  C6_8 
REMARK    2  A    between atoms: C6_8  and  C7_9 
REMARK    3  A    between atoms: C7_9  and  O2_10 
REMARK    4  A    between atoms: O2_10  and  C8_11 
REMARK    5  A    between atoms: C10_13  and  N2_14 
REMARK    6  A    between atoms: N2_14  and  C11_15 
REMARK    7  A    between atoms: C15_20  and  O3_21 
ROOT
HETATM    1  C8  UNL     1      24.899   4.811  49.264  1.00  0.00     0.176 C 
HETATM    2  C9  UNL     1      25.105   4.083  50.524  1.00  0.00     0.059 C 
HETATM    3  C10 UNL     1      24.117   4.402  51.385  1.00  0.00     0.128 C 
HETATM    4  N3  UNL     1      22.961   5.201  51.437  1.00  0.00    -0.225 NA
HETATM    5  C17 UNL     1      22.839   6.454  51.343  1.00  0.00     0.234 C 
HETATM    6  N4  UNL     1      23.852   7.388  51.159  1.00  0.00    -0.254 NA
HETATM    7  C18 UNL     1      24.925   7.317  50.496  1.00  0.00     0.118 C 
HETATM    8  C19 UNL     1      26.040   6.896  49.654  1.00  0.00     0.024 C 
HETATM    9  C20 UNL     1      26.073   5.719  49.059  1.00  0.00    -0.050 C 
HETATM   10  C21 UNL     1      27.403   5.502  48.386  1.00  0.00     0.046 C 
ENDROOT
BRANCH   1  11
HETATM   11  O2  UNL     1      23.720   5.457  49.091  1.00  0.00    -0.377 OA
BRANCH  11  12
HETATM   12  C7  UNL     1      23.122   5.366  47.860  1.00  0.00     0.171 C 
BRANCH  12  13
HETATM   13  C6  UNL     1      22.611   3.987  47.521  1.00  0.00     0.063 C 
BRANCH  13  14
HETATM   14  C5  UNL     1      21.270   3.697  48.162  1.00  0.00     0.236 C 
HETATM   15  C2  UNL     1      21.309   2.529  49.079  1.00  0.00     0.024 C 
HETATM   16  C1  UNL     1      22.229   1.718  49.584  1.00  0.00     0.015 C 
HETATM   17  C3  UNL     1      19.943   2.194  49.550  1.00  0.00     0.182 C 
HETATM   18  O1  UNL     1      19.162   3.319  49.464  1.00  0.00    -0.362 OA
HETATM   19  C4  UNL     1      19.791   4.497  49.861  1.00  0.00     0.438 C 
HETATM   20  N1  UNL     1      20.881   4.846  48.959  1.00  0.00     0.112 N 
HETATM   21  H7  UNL     1      20.670   5.684  48.372  1.00  0.00     0.319 HD
ENDBRANCH  13  14
ENDBRANCH  12  13
ENDBRANCH  11  12
ENDBRANCH   1  11
BRANCH   3  22
HETATM   22  N2  UNL     1      24.108   3.818  52.674  1.00  0.00    -0.341 N 
HETATM   23  H15 UNL     1      23.764   4.523  53.362  1.00  0.00     0.167 HD
BRANCH  22  24
HETATM   24  C11 UNL     1      24.481   2.508  53.068  1.00  0.00     0.036 A 
HETATM   25  C12 UNL     1      23.694   1.409  52.820  1.00  0.00     0.032 A 
HETATM   26  C13 UNL     1      24.138   0.176  53.240  1.00  0.00     0.047 A 
HETATM   27  C14 UNL     1      25.328  -0.021  53.897  1.00  0.00     0.149 A 
HETATM   28  F1  UNL     1      25.663  -1.283  54.263  1.00  0.00    -0.203 F 
HETATM   29  C15 UNL     1      26.100   1.113  54.131  1.00  0.00     0.106 A 
HETATM   30  C16 UNL     1      25.679   2.350  53.723  1.00  0.00     0.069 A 
BRANCH  29  31
HETATM   31  O3  UNL     1      27.298   0.929  54.789  1.00  0.00    -0.358 OA
HETATM   32  H18 UNL     1      28.117   1.390  54.428  1.00  0.00     0.217 HD
ENDBRANCH  29  31
ENDBRANCH  22  24
ENDBRANCH   3  22
TORSDOF 7
ENDMDL
MODEL 9
REMARK VINA RESULT:      -7.5      2.753      5.940
REMARK  7 active torsions:
REMARK  status: ('A' for Active; 'I' for Inactive)
REMARK    1  A    between atoms: C5_7  and  C6_8 
REMARK    2  A    between atoms: C6_8  and  C7_9 
REMARK    3  A    between atoms: C7_9  and  O2_10 
REMARK    4  A    between atoms: O2_10  and  C8_11 
REMARK    5  A    between atoms: C10_13  and  N2_14 
REMARK    6  A    between atoms: N2_14  and  C11_15 
REMARK    7  A    between atoms: C15_20  and  O3_21 
ROOT
HETATM    1  C8  UNL     1      24.549   4.271  51.016  1.00  0.00     0.176 C 
HETATM    2  C9  UNL     1      23.328   4.134  51.823  1.00  0.00     0.059 C 
HETATM    3  C10 UNL     1      22.633   3.060  51.394  1.00  0.00     0.128 C 
HETATM    4  N3  UNL     1      22.727   2.043  50.428  1.00  0.00    -0.225 NA
HETATM    5  C17 UNL     1      22.750   2.122  49.168  1.00  0.00     0.234 C 
HETATM    6  N4  UNL     1      22.685   3.276  48.395  1.00  0.00    -0.254 NA
HETATM    7  C18 UNL     1      23.152   4.431  48.603  1.00  0.00     0.118 C 
HETATM    8  C19 UNL     1      23.814   5.610  49.153  1.00  0.00     0.024 C 
HETATM    9  C20 UNL     1      24.478   5.581  50.293  1.00  0.00    -0.050 C 
HETATM   10  C21 UNL     1      24.921   6.967  50.683  1.00  0.00     0.046 C 
ENDROOT
BRANCH   1  11
HETATM   11  O2  UNL     1      24.878   3.251  50.187  1.00  0.00    -0.377 OA
BRANCH  11  12
HETATM   12  C7  UNL     1      26.200   2.888  50.124  1.00  0.00     0.171 C 
BRANCH  12  13
HETATM   13  C6  UNL     1      26.812   2.543  51.459  1.00  0.00     0.063 C 
BRANCH  13  14
HETATM   14  C5  UNL     1      26.628   1.083  51.815  1.00  0.00     0.236 C 
HETATM   15  C2  UNL     1      27.592   0.613  52.844  1.00  0.00     0.024 C 
HETATM   16  C1  UNL     1      28.516   1.152  53.628  1.00  0.00     0.015 C 
HETATM   17  C3  UNL     1      27.474  -0.852  53.035  1.00  0.00     0.182 C 
HETATM   18  O1  UNL     1      26.216  -1.244  52.651  1.00  0.00    -0.362 OA
HETATM   19  C4  UNL     1      25.193  -0.383  53.042  1.00  0.00     0.438 C 
HETATM   20  N1  UNL     1      25.299   0.905  52.371  1.00  0.00     0.112 N 
HETATM   21  H7  UNL     1      24.547   1.057  51.661  1.00  0.00     0.319 HD
ENDBRANCH  13  14
ENDBRANCH  12  13
ENDBRANCH  11  12
ENDBRANCH   1  11
BRANCH   3  22
HETATM   22  N2  UNL     1      21.411   2.729  52.027  1.00  0.00    -0.341 N 
HETATM   23  H15 UNL     1      20.791   3.569  52.023  1.00  0.00     0.167 HD
BRANCH  22  24
HETATM   24  C11 UNL     1      21.001   1.498  52.597  1.00  0.00     0.036 A 
HETATM   25  C12 UNL     1      21.758   0.825  53.526  1.00  0.00     0.032 A 
HETATM   26  C13 UNL     1      21.279  -0.365  54.024  1.00  0.00     0.047 A 
HETATM   27  C14 UNL     1      20.083  -0.923  53.645  1.00  0.00     0.149 A 
HETATM   28  F1  UNL     1      19.713  -2.101  54.204  1.00  0.00    -0.203 F 
HETATM   29  C15 UNL     1      19.342  -0.215  52.702  1.00  0.00     0.106 A 
HETATM   30  C16 UNL     1      19.799   0.971  52.193  1.00  0.00     0.069 A 
BRANCH  29  31
HETATM   31  O3  UNL     1      18.138  -0.764  52.312  1.00  0.00    -0.358 OA
HETATM   32  H18 UNL     1      17.292  -0.385  52.704  1.00  0.00     0.217 HD
ENDBRANCH  29  31
ENDBRANCH  22  24
ENDBRANCH   3  22
TORSDOF 7
ENDMDL
