MODEL 1
REMARK VINA RESULT:      -9.0      0.000      0.000
REMARK  4 active torsions:
REMARK  status: ('A' for Active; 'I' for Inactive)
REMARK    1  A    between atoms: C4_4  and  C5_5 
REMARK       I    between atoms: C5_5  and  N1_7 
REMARK    2  A    between atoms: N1_7  and  C6_8 
REMARK    3  A    between atoms: C11_15  and  N4_16 
REMARK    4  A    between atoms: N4_16  and  C12_17 
ROOT
HETATM    1  C6  UNL     1      24.670   3.500  50.951  1.00  0.00     0.035 A 
HETATM    2  C7  UNL     1      24.896   4.699  50.322  1.00  0.00     0.032 A 
HETATM    3  C8  UNL     1      24.201   5.051  49.190  1.00  0.00     0.035 A 
HETATM    4  C9  UNL     1      23.277   4.191  48.696  1.00  0.00     0.072 A 
HETATM    5  N2  UNL     1      22.628   4.593  47.583  1.00  0.00    -0.241 NA
HETATM    6  C10 UNL     1      21.703   3.782  47.049  1.00  0.00     0.236 A 
HETATM    7  N3  UNL     1      21.458   2.613  47.632  1.00  0.00    -0.224 NA
HETATM    8  C11 UNL     1      22.042   2.129  48.724  1.00  0.00     0.142 A 
HETATM    9  C18 UNL     1      22.988   2.964  49.268  1.00  0.00     0.041 A 
HETATM   10  C19 UNL     1      23.722   2.679  50.395  1.00  0.00     0.047 A 
ENDROOT
BRANCH   1  11
HETATM   11  N1  UNL     1      25.449   3.250  52.106  1.00  0.00    -0.325 N 
HETATM   12  C5  UNL     1      26.629   2.489  52.259  1.00  0.00     0.255 C 
HETATM   13  O1  UNL     1      27.121   1.917  51.255  1.00  0.00    -0.270 OA
HETATM   14  H6  UNL     1      25.182   3.651  53.031  1.00  0.00     0.169 HD
BRANCH  12  15
HETATM   15  C4  UNL     1      27.380   2.284  53.522  1.00  0.00     0.243 A 
HETATM   16  C3  UNL     1      28.564   1.419  53.234  1.00  0.00     0.021 A 
HETATM   17  C2  UNL     1      28.774   0.231  53.741  1.00  0.00    -0.061 A 
HETATM   18  C1  UNL     1      29.923  -0.678  53.498  1.00  0.00     0.048 C 
HETATM   19  C21 UNL     1      27.780  -0.305  54.663  1.00  0.00     0.030 A 
HETATM   20  C20 UNL     1      26.706   0.390  54.972  1.00  0.00     0.137 A 
HETATM   21  O2  UNL     1      26.513   1.629  54.426  1.00  0.00    -0.344 OA
ENDBRANCH  12  15
ENDBRANCH   1  11
BRANCH   8  22
HETATM   22  N4  UNL     1      21.765   0.882  49.323  1.00  0.00    -0.340 N 
HETATM   23  H10 UNL     1      22.202   0.013  48.985  1.00  0.00     0.167 HD
BRANCH  22  24
HETATM   24  C12 UNL     1      20.901   0.614  50.413  1.00  0.00     0.035 A 
HETATM   25  C13 UNL     1      19.535   0.744  50.357  1.00  0.00     0.029 A 
HETATM   26  C14 UNL     1      18.665   0.498  51.396  1.00  0.00     0.004 A 
HETATM   27  C15 UNL     1      19.167   0.086  52.601  1.00  0.00     0.019 A 
HETATM   28  C16 UNL     1      20.528  -0.065  52.724  1.00  0.00     0.013 A 
HETATM   29 BR1  UNL     1      21.293  -0.636  54.373  1.00  0.00    -0.051 Br
HETATM   30  C17 UNL     1      21.344   0.197  51.649  1.00  0.00     0.048 A 
ENDBRANCH  22  24
ENDBRANCH   8  22
TORSDOF 4
ENDMDL
MODEL 2
REMARK VINA RESULT:      -8.9      5.382      6.809
REMARK  4 active torsions:
REMARK  status: ('A' for Active; 'I' for Inactive)
REMARK    1  A    between atoms: C4_4  and  C5_5 
REMARK       I    between atoms: C5_5  and  N1_7 
REMARK    2  A    between atoms: N1_7  and  C6_8 
REMARK    3  A    between atoms: C11_15  and  N4_16 
REMARK    4  A    between atoms: N4_16  and  C12_17 
ROOT
HETATM    1  C6  UNL     1      28.792   5.745  48.113  1.00  0.00     0.035 A 
HETATM    2  C7  UNL     1      28.495   7.066  47.889  1.00  0.00     0.032 A 
HETATM    3  C8  UNL     1      27.248   7.572  48.166  1.00  0.00     0.035 A 
HETATM    4  C9  UNL     1      26.302   6.742  48.668  1.00  0.00     0.072 A 
HETATM    5  N2  UNL     1      25.098   7.297  48.918  1.00  0.00    -0.241 NA
HETATM    6  C10 UNL     1      24.122   6.522  49.416  1.00  0.00     0.236 A 
HETATM    7  N3  UNL     1      24.374   5.238  49.646  1.00  0.00    -0.224 NA
HETATM    8  C11 UNL     1      25.521   4.601  49.432  1.00  0.00     0.142 A 
HETATM    9  C18 UNL     1      26.517   5.398  48.924  1.00  0.00     0.041 A 
HETATM   10  C19 UNL     1      27.786   4.962  48.622  1.00  0.00     0.047 A 
ENDROOT
BRANCH   1  11
HETATM   11  N1  UNL     1      30.109   5.342  47.789  1.00  0.00    -0.325 N 
HETATM   12  C5  UNL     1      31.290   5.386  48.563  1.00  0.00     0.255 C 
HETATM   13  O1  UNL     1      31.237   5.843  49.731  1.00  0.00    -0.270 OA
HETATM   14  H6  UNL     1      30.332   4.938  46.854  1.00  0.00     0.169 HD
BRANCH  12  15
HETATM   15  C4  UNL     1      32.636   4.936  48.132  1.00  0.00     0.243 A 
HETATM   16  C3  UNL     1      32.825   5.314  46.698  1.00  0.00     0.021 A 
HETATM   17  C2  UNL     1      33.001   4.474  45.711  1.00  0.00    -0.061 A 
HETATM   18  C1  UNL     1      33.194   4.781  44.270  1.00  0.00     0.048 C 
HETATM   19  C21 UNL     1      33.016   3.049  46.019  1.00  0.00     0.030 A 
HETATM   20  C20 UNL     1      32.856   2.627  47.255  1.00  0.00     0.137 A 
HETATM   21  O2  UNL     1      32.673   3.529  48.267  1.00  0.00    -0.344 OA
ENDBRANCH  12  15
ENDBRANCH   1  11
BRANCH   8  22
HETATM   22  N4  UNL     1      25.764   3.233  49.683  1.00  0.00    -0.340 N 
HETATM   23  H10 UNL     1      25.928   2.566  48.916  1.00  0.00     0.167 HD
BRANCH  22  24
HETATM   24  C12 UNL     1      25.819   2.575  50.936  1.00  0.00     0.035 A 
HETATM   25  C13 UNL     1      24.722   2.043  51.570  1.00  0.00     0.029 A 
HETATM   26  C14 UNL     1      24.737   1.402  52.789  1.00  0.00     0.004 A 
HETATM   27  C15 UNL     1      25.925   1.264  53.455  1.00  0.00     0.019 A 
HETATM   28  C16 UNL     1      27.061   1.775  52.874  1.00  0.00     0.013 A 
HETATM   29 BR1  UNL     1      28.748   1.617  53.745  1.00  0.00    -0.051 Br
HETATM   30  C17 UNL     1      26.982   2.404  51.654  1.00  0.00     0.048 A 
ENDBRANCH  22  24
ENDBRANCH   8  22
TORSDOF 4
ENDMDL
MODEL 3
REMARK VINA RESULT:      -8.8      2.375      4.848
REMARK  4 active torsions:
REMARK  status: ('A' for Active; 'I' for Inactive)
REMARK    1  A    between atoms: C4_4  and  C5_5 
REMARK       I    between atoms: C5_5  and  N1_7 
REMARK    2  A    between atoms: N1_7  and  C6_8 
REMARK    3  A    between atoms: C11_15  and  N4_16 
REMARK    4  A    between atoms: N4_16  and  C12_17 
ROOT
HETATM    1  C6  UNL     1      22.148  -0.386  53.023  1.00  0.00     0.035 A 
HETATM    2  C7  UNL     1      21.024  -0.656  53.762  1.00  0.00     0.032 A 
HETATM    3  C8  UNL     1      19.768  -0.394  53.270  1.00  0.00     0.035 A 
HETATM    4  C9  UNL     1      19.650   0.140  52.030  1.00  0.00     0.072 A 
HETATM    5  N2  UNL     1      18.392   0.374  51.603  1.00  0.00    -0.241 NA
HETATM    6  C10 UNL     1      18.214   0.903  50.383  1.00  0.00     0.236 A 
HETATM    7  N3  UNL     1      19.280   1.177  49.637  1.00  0.00    -0.224 NA
HETATM    8  C11 UNL     1      20.553   0.984  49.969  1.00  0.00     0.142 A 
HETATM    9  C18 UNL     1      20.730   0.442  51.218  1.00  0.00     0.041 A 
HETATM   10  C19 UNL     1      21.954   0.154  51.776  1.00  0.00     0.047 A 
ENDROOT
BRANCH   1  11
HETATM   11  N1  UNL     1      23.384  -0.698  53.638  1.00  0.00    -0.325 N 
HETATM   12  C5  UNL     1      24.552   0.084  53.776  1.00  0.00     0.255 C 
HETATM   13  O1  UNL     1      24.569   1.247  53.304  1.00  0.00    -0.270 OA
HETATM   14  H6  UNL     1      23.543  -1.627  54.083  1.00  0.00     0.169 HD
BRANCH  12  15
HETATM   15  C4  UNL     1      25.810  -0.334  54.444  1.00  0.00     0.243 A 
HETATM   16  C3  UNL     1      26.736   0.838  54.484  1.00  0.00     0.021 A 
HETATM   17  C2  UNL     1      27.901   0.903  53.891  1.00  0.00    -0.061 A 
HETATM   18  C1  UNL     1      28.867   2.031  53.890  1.00  0.00     0.048 C 
HETATM   19  C21 UNL     1      28.344  -0.256  53.124  1.00  0.00     0.030 A 
HETATM   20  C20 UNL     1      27.590  -1.331  53.035  1.00  0.00     0.137 A 
HETATM   21  O2  UNL     1      26.376  -1.369  53.666  1.00  0.00    -0.344 OA
ENDBRANCH  12  15
ENDBRANCH   1  11
BRANCH   8  22
HETATM   22  N4  UNL     1      21.670   1.285  49.159  1.00  0.00    -0.340 N 
HETATM   23  H10 UNL     1      22.121   0.567  48.574  1.00  0.00     0.167 HD
BRANCH  22  24
HETATM   24  C12 UNL     1      22.328   2.530  49.015  1.00  0.00     0.035 A 
HETATM   25  C13 UNL     1      21.722   3.667  48.537  1.00  0.00     0.029 A 
HETATM   26  C14 UNL     1      22.330   4.891  48.378  1.00  0.00     0.004 A 
HETATM   27  C15 UNL     1      23.650   5.028  48.715  1.00  0.00     0.019 A 
HETATM   28  C16 UNL     1      24.316   3.928  49.199  1.00  0.00     0.013 A 
HETATM   29 BR1  UNL     1      26.155   4.048  49.687  1.00  0.00    -0.051 Br
HETATM   30  C17 UNL     1      23.654   2.731  49.335  1.00  0.00     0.048 A 
ENDBRANCH  22  24
ENDBRANCH   8  22
TORSDOF 4
ENDMDL
MODEL 4
REMARK VINA RESULT:      -8.7      3.160      5.887
REMARK  4 active torsions:
REMARK  status: ('A' for Active; 'I' for Inactive)
REMARK    1  A    between atoms: C4_4  and  C5_5 
REMARK       I    between atoms: C5_5  and  N1_7 
REMARK    2  A    between atoms: N1_7  and  C6_8 
REMARK    3  A    between atoms: C11_15  and  N4_16 
REMARK    4  A    between atoms: N4_16  and  C12_17 
ROOT
HETATM    1  C6  UNL     1      24.187   1.594  51.770  1.00  0.00     0.035 A 
HETATM    2  C7  UNL     1      25.345   1.011  52.221  1.00  0.00     0.032 A 
HETATM    3  C8  UNL     1      25.330   0.102  53.252  1.00  0.00     0.035 A 
HETATM    4  C9  UNL     1      24.144  -0.217  53.825  1.00  0.00     0.072 A 
HETATM    5  N2  UNL     1      24.195  -1.114  54.832  1.00  0.00    -0.241 NA
HETATM    6  C10 UNL     1      23.051  -1.466  55.438  1.00  0.00     0.236 A 
HETATM    7  N3  UNL     1      21.910  -0.922  55.028  1.00  0.00    -0.224 NA
HETATM    8  C11 UNL     1      21.758  -0.034  54.051  1.00  0.00     0.142 A 
HETATM    9  C18 UNL     1      22.932   0.324  53.433  1.00  0.00     0.041 A 
HETATM   10  C19 UNL     1      23.024   1.225  52.398  1.00  0.00     0.047 A 
ENDROOT
BRANCH   1  11
HETATM   11  N1  UNL     1      24.330   2.514  50.705  1.00  0.00    -0.325 N 
HETATM   12  C5  UNL     1      24.273   3.925  50.710  1.00  0.00     0.255 C 
HETATM   13  O1  UNL     1      24.066   4.525  51.794  1.00  0.00    -0.270 OA
HETATM   14  H6  UNL     1      24.508   2.186  49.732  1.00  0.00     0.169 HD
BRANCH  12  15
HETATM   15  C4  UNL     1      24.438   4.812  49.531  1.00  0.00     0.243 A 
HETATM   16  C3  UNL     1      25.823   4.638  48.998  1.00  0.00     0.021 A 
HETATM   17  C2  UNL     1      26.737   5.573  48.945  1.00  0.00    -0.061 A 
HETATM   18  C1  UNL     1      28.126   5.468  48.430  1.00  0.00     0.048 C 
HETATM   19  C21 UNL     1      26.389   6.899  49.444  1.00  0.00     0.030 A 
HETATM   20  C20 UNL     1      25.191   7.140  49.932  1.00  0.00     0.137 A 
HETATM   21  O2  UNL     1      24.256   6.141  49.975  1.00  0.00    -0.344 OA
ENDBRANCH  12  15
ENDBRANCH   1  11
BRANCH   8  22
HETATM   22  N4  UNL     1      20.534   0.532  53.634  1.00  0.00    -0.340 N 
HETATM   23  H10 UNL     1      20.375   1.549  53.658  1.00  0.00     0.167 HD
BRANCH  22  24
HETATM   24  C12 UNL     1      19.387  -0.140  53.147  1.00  0.00     0.035 A 
HETATM   25  C13 UNL     1      18.816  -1.227  53.764  1.00  0.00     0.029 A 
HETATM   26  C14 UNL     1      17.706  -1.908  53.317  1.00  0.00     0.004 A 
HETATM   27  C15 UNL     1      17.090  -1.496  52.166  1.00  0.00     0.019 A 
HETATM   28  C16 UNL     1      17.611  -0.413  51.499  1.00  0.00     0.013 A 
HETATM   29 BR1  UNL     1      16.804   0.213  49.891  1.00  0.00    -0.051 Br
HETATM   30  C17 UNL     1      18.723   0.225  51.996  1.00  0.00     0.048 A 
ENDBRANCH  22  24
ENDBRANCH   8  22
TORSDOF 4
ENDMDL
MODEL 5
REMARK VINA RESULT:      -8.6      5.636      7.304
REMARK  4 active torsions:
REMARK  status: ('A' for Active; 'I' for Inactive)
REMARK    1  A    between atoms: C4_4  and  C5_5 
REMARK       I    between atoms: C5_5  and  N1_7 
REMARK    2  A    between atoms: N1_7  and  C6_8 
REMARK    3  A    between atoms: C11_15  and  N4_16 
REMARK    4  A    between atoms: N4_16  and  C12_17 
ROOT
HETATM    1  C6  UNL     1      29.654   6.987  47.844  1.00  0.00     0.035 A 
HETATM    2  C7  UNL     1      30.071   8.238  48.225  1.00  0.00     0.032 A 
HETATM    3  C8  UNL     1      29.239   9.085  48.916  1.00  0.00     0.035 A 
HETATM    4  C9  UNL     1      27.986   8.667  49.222  1.00  0.00     0.072 A 
HETATM    5  N2  UNL     1      27.218   9.544  49.900  1.00  0.00    -0.241 NA
HETATM    6  C10 UNL     1      25.968   9.184  50.229  1.00  0.00     0.236 A 
HETATM    7  N3  UNL     1      25.530   7.980  49.877  1.00  0.00    -0.224 NA
HETATM    8  C11 UNL     1      26.208   7.051  49.209  1.00  0.00     0.142 A 
HETATM    9  C18 UNL     1      27.487   7.424  48.876  1.00  0.00     0.041 A 
HETATM   10  C19 UNL     1      28.374   6.630  48.186  1.00  0.00     0.047 A 
ENDROOT
BRANCH   1  11
HETATM   11  N1  UNL     1      30.600   6.207  47.136  1.00  0.00    -0.325 N 
HETATM   12  C5  UNL     1      31.560   5.288  47.616  1.00  0.00     0.255 C 
HETATM   13  O1  UNL     1      31.644   5.080  48.851  1.00  0.00    -0.270 OA
HETATM   14  H6  UNL     1      30.667   6.257  46.097  1.00  0.00     0.169 HD
BRANCH  12  15
HETATM   15  C4  UNL     1      32.516   4.511  46.788  1.00  0.00     0.243 A 
HETATM   16  C3  UNL     1      31.920   3.169  46.511  1.00  0.00     0.021 A 
HETATM   17  C2  UNL     1      32.418   2.024  46.903  1.00  0.00    -0.061 A 
HETATM   18  C1  UNL     1      31.880   0.661  46.663  1.00  0.00     0.048 C 
HETATM   19  C21 UNL     1      33.656   2.044  47.674  1.00  0.00     0.030 A 
HETATM   20  C20 UNL     1      34.248   3.183  47.964  1.00  0.00     0.137 A 
HETATM   21  O2  UNL     1      33.703   4.365  47.541  1.00  0.00    -0.344 OA
ENDBRANCH  12  15
ENDBRANCH   1  11
BRANCH   8  22
HETATM   22  N4  UNL     1      25.719   5.777  48.844  1.00  0.00    -0.340 N 
HETATM   23  H10 UNL     1      25.383   5.583  47.891  1.00  0.00     0.167 HD
BRANCH  22  24
HETATM   24  C12 UNL     1      25.608   4.623  49.657  1.00  0.00     0.035 A 
HETATM   25  C13 UNL     1      26.610   3.696  49.812  1.00  0.00     0.029 A 
HETATM   26  C14 UNL     1      26.536   2.561  50.588  1.00  0.00     0.004 A 
HETATM   27  C15 UNL     1      25.383   2.301  51.280  1.00  0.00     0.019 A 
HETATM   28  C16 UNL     1      24.342   3.191  51.168  1.00  0.00     0.013 A 
HETATM   29 BR1  UNL     1      22.709   2.891  52.104  1.00  0.00    -0.051 Br
HETATM   30  C17 UNL     1      24.476   4.307  50.377  1.00  0.00     0.048 A 
ENDBRANCH  22  24
ENDBRANCH   8  22
TORSDOF 4
ENDMDL
MODEL 6
REMARK VINA RESULT:      -8.6      3.039      4.151
REMARK  4 active torsions:
REMARK  status: ('A' for Active; 'I' for Inactive)
REMARK    1  A    between atoms: C4_4  and  C5_5 
REMARK       I    between atoms: C5_5  and  N1_7 
REMARK    2  A    between atoms: N1_7  and  C6_8 
REMARK    3  A    between atoms: C11_15  and  N4_16 
REMARK    4  A    between atoms: N4_16  and  C12_17 
ROOT
HETATM    1  C6  UNL     1      26.014   3.783  50.227  1.00  0.00     0.035 A 
HETATM    2  C7  UNL     1      26.993   4.093  49.315  1.00  0.00     0.032 A 
HETATM    3  C8  UNL     1      27.056   5.335  48.733  1.00  0.00     0.035 A 
HETATM    4  C9  UNL     1      26.129   6.265  49.073  1.00  0.00     0.072 A 
HETATM    5  N2  UNL     1      26.243   7.465  48.467  1.00  0.00    -0.241 NA
HETATM    6  C10 UNL     1      25.353   8.423  48.764  1.00  0.00     0.236 A 
HETATM    7  N3  UNL     1      24.391   8.159  49.643  1.00  0.00    -0.224 NA
HETATM    8  C11 UNL     1      24.195   7.013  50.288  1.00  0.00     0.142 A 
HETATM    9  C18 UNL     1      25.110   6.036  49.981  1.00  0.00     0.041 A 
HETATM   10  C19 UNL     1      25.109   4.771  50.522  1.00  0.00     0.047 A 
ENDROOT
BRANCH   1  11
HETATM   11  N1  UNL     1      26.053   2.471  50.756  1.00  0.00    -0.325 N 
HETATM   12  C5  UNL     1      26.933   1.898  51.701  1.00  0.00     0.255 C 
HETATM   13  O1  UNL     1      27.849   2.605  52.189  1.00  0.00    -0.270 OA
HETATM   14  H6  UNL     1      25.361   1.751  50.457  1.00  0.00     0.169 HD
BRANCH  12  15
HETATM   15  C4  UNL     1      26.893   0.501  52.199  1.00  0.00     0.243 A 
HETATM   16  C3  UNL     1      25.468   0.129  52.452  1.00  0.00     0.021 A 
HETATM   17  C2  UNL     1      24.964  -0.187  53.617  1.00  0.00    -0.061 A 
HETATM   18  C1  UNL     1      23.564  -0.564  53.938  1.00  0.00     0.048 C 
HETATM   19  C21 UNL     1      25.854  -0.180  54.773  1.00  0.00     0.030 A 
HETATM   20  C20 UNL     1      27.125   0.137  54.640  1.00  0.00     0.137 A 
HETATM   21  O2  UNL     1      27.623   0.463  53.408  1.00  0.00    -0.344 OA
ENDBRANCH  12  15
ENDBRANCH   1  11
BRANCH   8  22
HETATM   22  N4  UNL     1      23.164   6.756  51.217  1.00  0.00    -0.340 N 
HETATM   23  H10 UNL     1      23.202   7.122  52.179  1.00  0.00     0.167 HD
BRANCH  22  24
HETATM   24  C12 UNL     1      21.980   6.006  51.016  1.00  0.00     0.035 A 
HETATM   25  C13 UNL     1      20.983   6.367  50.142  1.00  0.00     0.029 A 
HETATM   26  C14 UNL     1      19.818   5.666  49.925  1.00  0.00     0.004 A 
HETATM   27  C15 UNL     1      19.599   4.506  50.618  1.00  0.00     0.019 A 
HETATM   28  C16 UNL     1      20.559   4.088  51.509  1.00  0.00     0.013 A 
HETATM   29 BR1  UNL     1      20.319   2.483  52.507  1.00  0.00    -0.051 Br
HETATM   30  C17 UNL     1      21.702   4.832  51.683  1.00  0.00     0.048 A 
ENDBRANCH  22  24
ENDBRANCH   8  22
TORSDOF 4
ENDMDL
MODEL 7
REMARK VINA RESULT:      -8.6      3.253      6.873
REMARK  4 active torsions:
REMARK  status: ('A' for Active; 'I' for Inactive)
REMARK    1  A    between atoms: C4_4  and  C5_5 
REMARK       I    between atoms: C5_5  and  N1_7 
REMARK    2  A    between atoms: N1_7  and  C6_8 
REMARK    3  A    between atoms: C11_15  and  N4_16 
REMARK    4  A    between atoms: N4_16  and  C12_17 
ROOT
HETATM    1  C6  UNL     1      22.164   2.672  51.408  1.00  0.00     0.035 A 
HETATM    2  C7  UNL     1      20.924   2.814  51.980  1.00  0.00     0.032 A 
HETATM    3  C8  UNL     1      20.491   1.956  52.962  1.00  0.00     0.035 A 
HETATM    4  C9  UNL     1      21.312   0.956  53.365  1.00  0.00     0.072 A 
HETATM    5  N2  UNL     1      20.829   0.147  54.331  1.00  0.00    -0.241 NA
HETATM    6  C10 UNL     1      21.598  -0.861  54.769  1.00  0.00     0.236 A 
HETATM    7  N3  UNL     1      22.805  -1.030  54.239  1.00  0.00    -0.224 NA
HETATM    8  C11 UNL     1      23.366  -0.290  53.287  1.00  0.00     0.142 A 
HETATM    9  C18 UNL     1      22.575   0.741  52.842  1.00  0.00     0.041 A 
HETATM   10  C19 UNL     1      22.941   1.637  51.864  1.00  0.00     0.047 A 
ENDROOT
BRANCH   1  11
HETATM   11  N1  UNL     1      22.497   3.615  50.407  1.00  0.00    -0.325 N 
HETATM   12  C5  UNL     1      23.431   4.674  50.431  1.00  0.00     0.255 C 
HETATM   13  O1  UNL     1      24.107   4.869  51.471  1.00  0.00    -0.270 OA
HETATM   14  H6  UNL     1      22.028   3.598  49.476  1.00  0.00     0.169 HD
BRANCH  12  15
HETATM   15  C4  UNL     1      23.712   5.619  49.321  1.00  0.00     0.243 A 
HETATM   16  C3  UNL     1      25.105   5.379  48.837  1.00  0.00     0.021 A 
HETATM   17  C2  UNL     1      26.083   6.247  48.884  1.00  0.00    -0.061 A 
HETATM   18  C1  UNL     1      27.484   6.074  48.423  1.00  0.00     0.048 C 
HETATM   19  C21 UNL     1      25.805   7.560  49.454  1.00  0.00     0.030 A 
HETATM   20  C20 UNL     1      24.604   7.856  49.905  1.00  0.00     0.137 A 
HETATM   21  O2  UNL     1      23.602   6.927  49.843  1.00  0.00    -0.344 OA
ENDBRANCH  12  15
ENDBRANCH   1  11
BRANCH   8  22
HETATM   22  N4  UNL     1      24.650  -0.490  52.737  1.00  0.00    -0.340 N 
HETATM   23  H10 UNL     1      24.806  -1.143  51.956  1.00  0.00     0.167 HD
BRANCH  22  24
HETATM   24  C12 UNL     1      25.867   0.119  53.128  1.00  0.00     0.035 A 
HETATM   25  C13 UNL     1      25.986   1.445  53.467  1.00  0.00     0.029 A 
HETATM   26  C14 UNL     1      27.152   2.072  53.846  1.00  0.00     0.004 A 
HETATM   27  C15 UNL     1      28.311   1.345  53.902  1.00  0.00     0.019 A 
HETATM   28  C16 UNL     1      28.261   0.011  53.575  1.00  0.00     0.013 A 
HETATM   29 BR1  UNL     1      29.837  -1.059  53.632  1.00  0.00    -0.051 Br
HETATM   30  C17 UNL     1      27.066  -0.558  53.204  1.00  0.00     0.048 A 
ENDBRANCH  22  24
ENDBRANCH   8  22
TORSDOF 4
ENDMDL
MODEL 8
REMARK VINA RESULT:      -8.5      1.958      2.315
REMARK  4 active torsions:
REMARK  status: ('A' for Active; 'I' for Inactive)
REMARK    1  A    between atoms: C4_4  and  C5_5 
REMARK       I    between atoms: C5_5  and  N1_7 
REMARK    2  A    between atoms: N1_7  and  C6_8 
REMARK    3  A    between atoms: C11_15  and  N4_16 
REMARK    4  A    between atoms: N4_16  and  C12_17 
ROOT
HETATM    1  C6  UNL     1      25.229   2.157  51.698  1.00  0.00     0.035 A 
HETATM    2  C7  UNL     1      25.985   2.737  50.710  1.00  0.00     0.032 A 
HETATM    3  C8  UNL     1      25.486   3.760  49.940  1.00  0.00     0.035 A 
HETATM    4  C9  UNL     1      24.224   4.196  50.170  1.00  0.00     0.072 A 
HETATM    5  N2  UNL     1      23.791   5.201  49.381  1.00  0.00    -0.241 NA
HETATM    6  C10 UNL     1      22.549   5.673  49.563  1.00  0.00     0.236 A 
HETATM    7  N3  UNL     1      21.788   5.136  50.512  1.00  0.00    -0.224 NA
HETATM    8  C11 UNL     1      22.122   4.147  51.334  1.00  0.00     0.142 A 
HETATM    9  C18 UNL     1      23.395   3.668  51.145  1.00  0.00     0.041 A 
HETATM   10  C19 UNL     1      23.960   2.648  51.875  1.00  0.00     0.047 A 
ENDROOT
BRANCH   1  11
HETATM   11  N1  UNL     1      25.852   1.113  52.423  1.00  0.00    -0.325 N 
HETATM   12  C5  UNL     1      26.307   1.081  53.759  1.00  0.00     0.255 C 
HETATM   13  O1  UNL     1      26.172   2.102  54.476  1.00  0.00    -0.270 OA
HETATM   14  H6  UNL     1      26.041   0.190  51.977  1.00  0.00     0.169 HD
BRANCH  12  15
HETATM   15  C4  UNL     1      26.953  -0.072  54.436  1.00  0.00     0.243 A 
HETATM   16  C3  UNL     1      28.433   0.126  54.399  1.00  0.00     0.021 A 
HETATM   17  C2  UNL     1      29.287  -0.656  53.790  1.00  0.00    -0.061 A 
HETATM   18  C1  UNL     1      30.764  -0.518  53.715  1.00  0.00     0.048 C 
HETATM   19  C21 UNL     1      28.765  -1.822  53.085  1.00  0.00     0.030 A 
HETATM   20  C20 UNL     1      27.473  -2.072  53.065  1.00  0.00     0.137 A 
HETATM   21  O2  UNL     1      26.605  -1.235  53.711  1.00  0.00    -0.344 OA
ENDBRANCH  12  15
ENDBRANCH   1  11
BRANCH   8  22
HETATM   22  N4  UNL     1      21.294   3.591  52.334  1.00  0.00    -0.340 N 
HETATM   23  H10 UNL     1      21.096   4.094  53.211  1.00  0.00     0.167 HD
BRANCH  22  24
HETATM   24  C12 UNL     1      20.635   2.338  52.320  1.00  0.00     0.035 A 
HETATM   25  C13 UNL     1      19.531   2.061  51.551  1.00  0.00     0.029 A 
HETATM   26  C14 UNL     1      18.863   0.858  51.515  1.00  0.00     0.004 A 
HETATM   27  C15 UNL     1      19.307  -0.174  52.298  1.00  0.00     0.019 A 
HETATM   28  C16 UNL     1      20.408   0.037  53.092  1.00  0.00     0.013 A 
HETATM   29 BR1  UNL     1      21.079  -1.356  54.206  1.00  0.00    -0.051 Br
HETATM   30  C17 UNL     1      21.033   1.262  53.084  1.00  0.00     0.048 A 
ENDBRANCH  22  24
ENDBRANCH   8  22
TORSDOF 4
ENDMDL
MODEL 9
REMARK VINA RESULT:      -8.4      3.376      7.771
REMARK  4 active torsions:
REMARK  status: ('A' for Active; 'I' for Inactive)
REMARK    1  A    between atoms: C4_4  and  C5_5 
REMARK       I    between atoms: C5_5  and  N1_7 
REMARK    2  A    between atoms: N1_7  and  C6_8 
REMARK    3  A    between atoms: C11_15  and  N4_16 
REMARK    4  A    between atoms: N4_16  and  C12_17 
ROOT
HETATM    1  C6  UNL     1      21.481   2.214  51.898  1.00  0.00     0.035 A 
HETATM    2  C7  UNL     1      20.415   1.925  52.713  1.00  0.00     0.032 A 
HETATM    3  C8  UNL     1      20.519   0.995  53.719  1.00  0.00     0.035 A 
HETATM    4  C9  UNL     1      21.702   0.358  53.902  1.00  0.00     0.072 A 
HETATM    5  N2  UNL     1      21.741  -0.543  54.904  1.00  0.00    -0.241 NA
HETATM    6  C10 UNL     1      22.886  -1.205  55.131  1.00  0.00     0.236 A 
HETATM    7  N3  UNL     1      23.940  -0.950  54.362  1.00  0.00    -0.224 NA
HETATM    8  C11 UNL     1      23.999  -0.086  53.354  1.00  0.00     0.142 A 
HETATM    9  C18 UNL     1      22.825   0.589  53.127  1.00  0.00     0.041 A 
HETATM   10  C19 UNL     1      22.647   1.531  52.139  1.00  0.00     0.047 A 
ENDROOT
BRANCH   1  11
HETATM   11  N1  UNL     1      21.251   3.187  50.898  1.00  0.00    -0.325 N 
HETATM   12  C5  UNL     1      21.460   4.584  50.924  1.00  0.00     0.255 C 
HETATM   13  O1  UNL     1      21.920   5.113  51.965  1.00  0.00    -0.270 OA
HETATM   14  H6  UNL     1      20.868   2.919  49.966  1.00  0.00     0.169 HD
BRANCH  12  15
HETATM   15  C4  UNL     1      21.186   5.531  49.814  1.00  0.00     0.243 A 
HETATM   16  C3  UNL     1      21.108   4.755  48.539  1.00  0.00     0.021 A 
HETATM   17  C2  UNL     1      21.916   4.892  47.519  1.00  0.00    -0.061 A 
HETATM   18  C1  UNL     1      21.894   4.158  46.228  1.00  0.00     0.048 C 
HETATM   19  C21 UNL     1      22.984   5.880  47.620  1.00  0.00     0.030 A 
HETATM   20  C20 UNL     1      23.127   6.606  48.708  1.00  0.00     0.137 A 
HETATM   21  O2  UNL     1      22.267   6.439  49.759  1.00  0.00    -0.344 OA
ENDBRANCH  12  15
ENDBRANCH   1  11
BRANCH   8  22
HETATM   22  N4  UNL     1      25.132   0.166  52.549  1.00  0.00    -0.340 N 
HETATM   23  H10 UNL     1      25.097   0.068  51.524  1.00  0.00     0.167 HD
BRANCH  22  24
HETATM   24  C12 UNL     1      26.424   0.565  52.967  1.00  0.00     0.035 A 
HETATM   25  C13 UNL     1      26.775   1.866  53.236  1.00  0.00     0.029 A 
HETATM   26  C14 UNL     1      28.020   2.291  53.639  1.00  0.00     0.004 A 
HETATM   27  C15 UNL     1      29.020   1.369  53.798  1.00  0.00     0.019 A 
HETATM   28  C16 UNL     1      28.735   0.049  53.545  1.00  0.00     0.013 A 
HETATM   29 BR1  UNL     1      30.080  -1.287  53.746  1.00  0.00    -0.051 Br
HETATM   30  C17 UNL     1      27.471  -0.314  53.145  1.00  0.00     0.048 A 
ENDBRANCH  22  24
ENDBRANCH   8  22
TORSDOF 4
ENDMDL
