MODEL 1
REMARK VINA RESULT:      -7.1      0.000      0.000
REMARK  1 active torsions:
REMARK  status: ('A' for Active; 'I' for Inactive)
REMARK    1  A    between atoms: C9_11  and  N1_12 
ROOT
HETATM    1  C1  UNL     1      32.602   2.275  46.965  1.00  0.00     0.063 C 
HETATM    2  C2  UNL     1      32.901   3.540  46.772  1.00  0.00     0.012 C 
HETATM    3  C3  UNL     1      33.108   3.957  45.434  1.00  0.00     0.048 C 
HETATM    4  C4  UNL     1      33.431   5.223  45.017  1.00  0.00     0.055 A 
HETATM    5 CL1  UNL     1      33.619   5.426  43.260  1.00  0.00    -0.135 Cl
HETATM    6  C5  UNL     1      33.806   6.669  44.829  1.00  0.00     0.199 A 
HETATM    7  F1  UNL     1      33.773   6.144  46.023  1.00  0.00    -0.367 F 
HETATM    8  C6  UNL     1      34.068   7.551  45.861  1.00  0.00     0.207 A 
HETATM    9  C7  UNL     1      34.275   8.176  47.257  1.00  0.00     0.121 C 
HETATM   10  C8  UNL     1      34.885   7.189  48.164  1.00  0.00     0.065 C 
HETATM   11  C9  UNL     1      34.134   6.108  48.779  1.00  0.00     0.260 C 
HETATM   12  C10 UNL     1      32.642   6.100  48.510  1.00  0.00     0.075 A 
HETATM   13  C11 UNL     1      32.036   4.876  48.304  1.00  0.00     0.142 A 
HETATM   14  N2  UNL     1      30.708   4.783  48.120  1.00  0.00    -0.224 NA
HETATM   15  C12 UNL     1      29.922   5.904  48.126  1.00  0.00     0.238 A 
HETATM   16  N3  UNL     1      30.473   7.111  48.315  1.00  0.00    -0.216 NA
HETATM   17  C13 UNL     1      31.823   7.239  48.505  1.00  0.00     0.198 A 
HETATM   18  O1  UNL     1      32.485   8.481  48.695  1.00  0.00    -0.243 OA
HETATM   19  N4  UNL     1      33.259   9.030  47.666  1.00  0.00    -0.191 NA
HETATM   20  N5  UNL     1      32.801   3.685  48.166  1.00  0.00    -0.344 N 
HETATM   21  H12 UNL     1      33.512   9.987  47.952  1.00  0.00     0.154 HD
HETATM   22  H13 UNL     1      32.897   3.528  49.148  1.00  0.00     0.167 HD
ENDROOT
BRANCH  11  23
HETATM   23  N1  UNL     1      34.725   4.826  48.494  1.00  0.00     0.087 N 
HETATM   24  H9  UNL     1      35.697   4.826  48.874  1.00  0.00     0.313 HD
HETATM   25  H10 UNL     1      34.237   4.011  48.895  1.00  0.00     0.313 HD
ENDBRANCH  11  23
TORSDOF 1
ENDMDL
MODEL 2
REMARK VINA RESULT:      -7.0      9.263     11.639
REMARK  1 active torsions:
REMARK  status: ('A' for Active; 'I' for Inactive)
REMARK    1  A    between atoms: C9_11  and  N1_12 
ROOT
HETATM    1  C1  UNL     1      25.314   5.109  49.972  1.00  0.00     0.063 C 
HETATM    2  C2  UNL     1      24.489   4.099  50.137  1.00  0.00     0.012 C 
HETATM    3  C3  UNL     1      23.879   3.568  48.975  1.00  0.00     0.048 C 
HETATM    4  C4  UNL     1      22.990   2.524  48.927  1.00  0.00     0.055 A 
HETATM    5 CL1  UNL     1      22.405   2.089  47.304  1.00  0.00    -0.135 Cl
HETATM    6  C5  UNL     1      22.024   1.391  49.150  1.00  0.00     0.199 A 
HETATM    7  F1  UNL     1      22.496   2.066  50.162  1.00  0.00    -0.367 F 
HETATM    8  C6  UNL     1      21.623   0.937  50.393  1.00  0.00     0.207 A 
HETATM    9  C7  UNL     1      21.445   0.753  51.915  1.00  0.00     0.121 C 
HETATM   10  C8  UNL     1      21.481   2.063  52.587  1.00  0.00     0.065 C 
HETATM   11  C9  UNL     1      22.713   2.793  52.836  1.00  0.00     0.260 C 
HETATM   12  C10 UNL     1      23.994   2.083  52.447  1.00  0.00     0.075 A 
HETATM   13  C11 UNL     1      25.000   2.842  51.882  1.00  0.00     0.142 A 
HETATM   14  N2  UNL     1      26.186   2.297  51.566  1.00  0.00    -0.224 NA
HETATM   15  C12 UNL     1      26.425   0.968  51.793  1.00  0.00     0.238 A 
HETATM   16  N3  UNL     1      25.473   0.195  52.333  1.00  0.00    -0.216 NA
HETATM   17  C13 UNL     1      24.253   0.722  52.664  1.00  0.00     0.198 A 
HETATM   18  O1  UNL     1      23.187  -0.032  53.224  1.00  0.00    -0.243 OA
HETATM   19  N4  UNL     1      22.076  -0.366  52.442  1.00  0.00    -0.191 NA
HETATM   20  N5  UNL     1      24.783   4.198  51.508  1.00  0.00    -0.344 N 
HETATM   21  H12 UNL     1      21.510  -1.034  52.984  1.00  0.00     0.154 HD
HETATM   22  H13 UNL     1      24.948   4.568  52.421  1.00  0.00     0.167 HD
ENDROOT
BRANCH  11  23
HETATM   23  N1  UNL     1      22.660   4.122  52.283  1.00  0.00     0.087 N 
HETATM   24  H9  UNL     1      21.950   4.667  52.818  1.00  0.00     0.313 HD
HETATM   25  H10 UNL     1      23.544   4.652  52.312  1.00  0.00     0.313 HD
ENDBRANCH  11  23
TORSDOF 1
ENDMDL
MODEL 3
REMARK VINA RESULT:      -7.0      1.732      3.967
REMARK  1 active torsions:
REMARK  status: ('A' for Active; 'I' for Inactive)
REMARK    1  A    between atoms: C9_11  and  N1_12 
ROOT
HETATM    1  C1  UNL     1      30.883   8.667  46.615  1.00  0.00     0.063 C 
HETATM    2  C2  UNL     1      31.603   7.587  46.407  1.00  0.00     0.012 C 
HETATM    3  C3  UNL     1      31.959   7.297  45.067  1.00  0.00     0.048 C 
HETATM    4  C4  UNL     1      32.697   6.225  44.634  1.00  0.00     0.055 A 
HETATM    5 CL1  UNL     1      32.979   6.146  42.881  1.00  0.00    -0.135 Cl
HETATM    6  C5  UNL     1      33.493   4.964  44.424  1.00  0.00     0.199 A 
HETATM    7  F1  UNL     1      32.961   5.224  45.587  1.00  0.00    -0.367 F 
HETATM    8  C6  UNL     1      33.780   4.044  45.415  1.00  0.00     0.207 A 
HETATM    9  C7  UNL     1      33.868   3.303  46.765  1.00  0.00     0.121 C 
HETATM   10  C8  UNL     1      32.611   3.470  47.514  1.00  0.00     0.065 C 
HETATM   11  C9  UNL     1      32.268   4.690  48.225  1.00  0.00     0.260 C 
HETATM   12  C10 UNL     1      33.331   5.770  48.238  1.00  0.00     0.075 A 
HETATM   13  C11 UNL     1      32.913   7.081  48.112  1.00  0.00     0.142 A 
HETATM   14  N2  UNL     1      33.789   8.097  48.176  1.00  0.00    -0.224 NA
HETATM   15  C12 UNL     1      35.124   7.857  48.362  1.00  0.00     0.238 A 
HETATM   16  N3  UNL     1      35.571   6.599  48.480  1.00  0.00    -0.216 NA
HETATM   17  C13 UNL     1      34.703   5.542  48.420  1.00  0.00     0.198 A 
HETATM   18  O1  UNL     1      35.099   4.181  48.520  1.00  0.00    -0.243 OA
HETATM   19  N4  UNL     1      35.111   3.366  47.382  1.00  0.00    -0.191 NA
HETATM   20  N5  UNL     1      31.562   7.400  47.798  1.00  0.00    -0.344 N 
HETATM   21  H12 UNL     1      35.571   2.483  47.644  1.00  0.00     0.154 HD
HETATM   22  H13 UNL     1      31.235   7.333  48.740  1.00  0.00     0.167 HD
ENDROOT
BRANCH  11  23
HETATM   23  N1  UNL     1      30.995   5.211  47.797  1.00  0.00     0.087 N 
HETATM   24  H9  UNL     1      31.159   5.827  46.971  1.00  0.00     0.313 HD
HETATM   25  H10 UNL     1      30.294   4.506  47.523  1.00  0.00     0.313 HD
ENDBRANCH  11  23
TORSDOF 1
ENDMDL
MODEL 4
REMARK VINA RESULT:      -6.9      5.350      7.520
REMARK  1 active torsions:
REMARK  status: ('A' for Active; 'I' for Inactive)
REMARK    1  A    between atoms: C9_11  and  N1_12 
ROOT
HETATM    1  C1  UNL     1      23.773   7.191  50.933  1.00  0.00     0.063 C 
HETATM    2  C2  UNL     1      24.857   6.947  50.231  1.00  0.00     0.012 C 
HETATM    3  C3  UNL     1      25.252   5.593  50.103  1.00  0.00     0.048 C 
HETATM    4  C4  UNL     1      26.347   5.125  49.422  1.00  0.00     0.055 A 
HETATM    5 CL1  UNL     1      26.565   3.360  49.443  1.00  0.00    -0.135 Cl
HETATM    6  C5  UNL     1      27.611   4.879  48.642  1.00  0.00     0.199 A 
HETATM    7  F1  UNL     1      27.264   6.093  48.973  1.00  0.00    -0.367 F 
HETATM    8  C6  UNL     1      28.444   5.875  48.165  1.00  0.00     0.207 A 
HETATM    9  C7  UNL     1      29.071   7.244  47.827  1.00  0.00     0.121 C 
HETATM   10  C8  UNL     1      28.858   8.183  48.942  1.00  0.00     0.065 C 
HETATM   11  C9  UNL     1      27.588   8.845  49.189  1.00  0.00     0.260 C 
HETATM   12  C10 UNL     1      26.498   8.589  48.168  1.00  0.00     0.075 A 
HETATM   13  C11 UNL     1      25.207   8.435  48.636  1.00  0.00     0.142 A 
HETATM   14  N2  UNL     1      24.179   8.266  47.788  1.00  0.00    -0.224 NA
HETATM   15  C12 UNL     1      24.387   8.236  46.436  1.00  0.00     0.238 A 
HETATM   16  N3  UNL     1      25.625   8.374  45.942  1.00  0.00    -0.216 NA
HETATM   17  C13 UNL     1      26.694   8.548  46.780  1.00  0.00     0.198 A 
HETATM   18  O1  UNL     1      28.037   8.685  46.338  1.00  0.00    -0.243 OA
HETATM   19  N4  UNL     1      28.942   7.629  46.500  1.00  0.00    -0.191 NA
HETATM   20  N5  UNL     1      24.931   8.335  50.028  1.00  0.00    -0.344 N 
HETATM   21  H12 UNL     1      29.795   7.876  45.978  1.00  0.00     0.154 HD
HETATM   22  H13 UNL     1      24.924   9.322  50.187  1.00  0.00     0.167 HD
ENDROOT
BRANCH  11  23
HETATM   23  N1  UNL     1      27.120   8.604  50.530  1.00  0.00     0.087 N 
HETATM   24  H9  UNL     1      26.461   9.371  50.785  1.00  0.00     0.313 HD
HETATM   25  H10 UNL     1      26.626   7.710  50.675  1.00  0.00     0.313 HD
ENDBRANCH  11  23
TORSDOF 1
ENDMDL
MODEL 5
REMARK VINA RESULT:      -6.8     10.881     13.334
REMARK  1 active torsions:
REMARK  status: ('A' for Active; 'I' for Inactive)
REMARK    1  A    between atoms: C9_11  and  N1_12 
ROOT
HETATM    1  C1  UNL     1      24.715   3.641  51.432  1.00  0.00     0.063 C 
HETATM    2  C2  UNL     1      23.605   3.013  51.117  1.00  0.00     0.012 C 
HETATM    3  C3  UNL     1      23.424   2.665  49.756  1.00  0.00     0.048 C 
HETATM    4  C4  UNL     1      22.342   2.015  49.219  1.00  0.00     0.055 A 
HETATM    5 CL1  UNL     1      22.419   1.716  47.467  1.00  0.00    -0.135 Cl
HETATM    6  C5  UNL     1      21.045   1.327  48.883  1.00  0.00     0.199 A 
HETATM    7  F1  UNL     1      21.229   1.850  50.064  1.00  0.00    -0.367 F 
HETATM    8  C6  UNL     1      20.007   1.132  49.775  1.00  0.00     0.207 A 
HETATM    9  C7  UNL     1      19.127   1.126  51.042  1.00  0.00     0.121 C 
HETATM   10  C8  UNL     1      19.324   2.374  51.798  1.00  0.00     0.065 C 
HETATM   11  C9  UNL     1      20.489   2.621  52.630  1.00  0.00     0.260 C 
HETATM   12  C10 UNL     1      21.467   1.471  52.759  1.00  0.00     0.075 A 
HETATM   13  C11 UNL     1      22.815   1.774  52.767  1.00  0.00     0.142 A 
HETATM   14  N2  UNL     1      23.740   0.815  52.940  1.00  0.00    -0.224 NA
HETATM   15  C12 UNL     1      23.368  -0.491  53.106  1.00  0.00     0.238 A 
HETATM   16  N3  UNL     1      22.071  -0.829  53.096  1.00  0.00    -0.216 NA
HETATM   17  C13 UNL     1      21.105   0.126  52.923  1.00  0.00     0.198 A 
HETATM   18  O1  UNL     1      19.712  -0.151  52.884  1.00  0.00    -0.243 OA
HETATM   19  N4  UNL     1      19.020  -0.110  51.668  1.00  0.00    -0.191 NA
HETATM   20  N5  UNL     1      23.280   3.088  52.482  1.00  0.00    -0.344 N 
HETATM   21  H12 UNL     1      18.078  -0.489  51.839  1.00  0.00     0.154 HD
HETATM   22  H13 UNL     1      23.145   3.432  53.410  1.00  0.00     0.167 HD
ENDROOT
BRANCH  11  23
HETATM   23  N1  UNL     1      21.159   3.839  52.252  1.00  0.00     0.087 N 
HETATM   24  H9  UNL     1      21.879   4.051  52.976  1.00  0.00     0.313 HD
HETATM   25  H10 UNL     1      21.636   3.821  51.338  1.00  0.00     0.313 HD
ENDBRANCH  11  23
TORSDOF 1
ENDMDL
MODEL 6
REMARK VINA RESULT:      -6.8     10.747     12.531
REMARK  1 active torsions:
REMARK  status: ('A' for Active; 'I' for Inactive)
REMARK    1  A    between atoms: C9_11  and  N1_12 
ROOT
HETATM    1  C1  UNL     1      19.216   0.228  51.265  1.00  0.00     0.063 C 
HETATM    2  C2  UNL     1      20.341   0.849  51.536  1.00  0.00     0.012 C 
HETATM    3  C3  UNL     1      21.304   0.139  52.294  1.00  0.00     0.048 C 
HETATM    4  C4  UNL     1      22.535   0.602  52.686  1.00  0.00     0.055 A 
HETATM    5 CL1  UNL     1      23.519  -0.541  53.628  1.00  0.00    -0.135 Cl
HETATM    6  C5  UNL     1      23.800   1.352  53.010  1.00  0.00     0.199 A 
HETATM    7  F1  UNL     1      22.781   1.972  52.480  1.00  0.00    -0.367 F 
HETATM    8  C6  UNL     1      24.015   2.687  52.724  1.00  0.00     0.207 A 
HETATM    9  C7  UNL     1      23.844   4.143  52.242  1.00  0.00     0.121 C 
HETATM   10  C8  UNL     1      22.452   4.580  52.443  1.00  0.00     0.065 C 
HETATM   11  C9  UNL     1      21.362   4.181  51.569  1.00  0.00     0.260 C 
HETATM   12  C10 UNL     1      21.751   3.353  50.360  1.00  0.00     0.075 A 
HETATM   13  C11 UNL     1      20.908   2.324  49.991  1.00  0.00     0.142 A 
HETATM   14  N2  UNL     1      21.154   1.585  48.896  1.00  0.00    -0.224 NA
HETATM   15  C12 UNL     1      22.253   1.832  48.120  1.00  0.00     0.238 A 
HETATM   16  N3  UNL     1      23.101   2.818  48.448  1.00  0.00    -0.216 NA
HETATM   17  C13 UNL     1      22.878   3.587  49.558  1.00  0.00     0.198 A 
HETATM   18  O1  UNL     1      23.735   4.638  49.982  1.00  0.00    -0.243 OA
HETATM   19  N4  UNL     1      24.562   4.464  51.098  1.00  0.00    -0.191 NA
HETATM   20  N5  UNL     1      19.814   1.932  50.813  1.00  0.00    -0.344 N 
HETATM   21  H12 UNL     1      25.202   5.270  51.133  1.00  0.00     0.154 HD
HETATM   22  H13 UNL     1      19.191   2.633  50.469  1.00  0.00     0.167 HD
ENDROOT
BRANCH  11  23
HETATM   23  N1  UNL     1      20.292   3.561  52.307  1.00  0.00     0.087 N 
HETATM   24  H9  UNL     1      19.407   3.700  51.773  1.00  0.00     0.313 HD
HETATM   25  H10 UNL     1      20.396   2.549  52.477  1.00  0.00     0.313 HD
ENDBRANCH  11  23
TORSDOF 1
ENDMDL
MODEL 7
REMARK VINA RESULT:      -6.7      2.171      3.499
REMARK  1 active torsions:
REMARK  status: ('A' for Active; 'I' for Inactive)
REMARK    1  A    between atoms: C9_11  and  N1_12 
ROOT
HETATM    1  C1  UNL     1      34.275   6.435  43.629  1.00  0.00     0.063 C 
HETATM    2  C2  UNL     1      33.481   6.735  44.633  1.00  0.00     0.012 C 
HETATM    3  C3  UNL     1      32.314   7.479  44.332  1.00  0.00     0.048 C 
HETATM    4  C4  UNL     1      31.361   7.897  45.227  1.00  0.00     0.055 A 
HETATM    5 CL1  UNL     1      30.005   8.812  44.530  1.00  0.00    -0.135 Cl
HETATM    6  C5  UNL     1      30.489   8.255  46.401  1.00  0.00     0.199 A 
HETATM    7  F1  UNL     1      31.670   7.735  46.589  1.00  0.00    -0.367 F 
HETATM    8  C6  UNL     1      30.814   8.011  47.722  1.00  0.00     0.207 A 
HETATM    9  C7  UNL     1      31.542   7.572  49.010  1.00  0.00     0.121 C 
HETATM   10  C8  UNL     1      32.994   7.774  48.861  1.00  0.00     0.065 C 
HETATM   11  C9  UNL     1      33.844   6.878  48.096  1.00  0.00     0.260 C 
HETATM   12  C10 UNL     1      33.166   5.648  47.524  1.00  0.00     0.075 A 
HETATM   13  C11 UNL     1      33.541   5.241  46.259  1.00  0.00     0.142 A 
HETATM   14  N2  UNL     1      33.030   4.126  45.710  1.00  0.00    -0.224 NA
HETATM   15  C12 UNL     1      32.118   3.368  46.392  1.00  0.00     0.238 A 
HETATM   16  N3  UNL     1      31.721   3.733  47.619  1.00  0.00    -0.216 NA
HETATM   17  C13 UNL     1      32.224   4.864  48.205  1.00  0.00     0.198 A 
HETATM   18  O1  UNL     1      31.844   5.327  49.493  1.00  0.00    -0.243 OA
HETATM   19  N4  UNL     1      31.010   6.444  49.621  1.00  0.00    -0.191 NA
HETATM   20  N5  UNL     1      34.392   6.040  45.446  1.00  0.00    -0.344 N 
HETATM   21  H12 UNL     1      30.737   6.510  50.612  1.00  0.00     0.154 HD
HETATM   22  H13 UNL     1      35.241   5.712  45.857  1.00  0.00     0.167 HD
ENDROOT
BRANCH  11  23
HETATM   23  N1  UNL     1      34.583   7.587  47.084  1.00  0.00     0.087 N 
HETATM   24  H9  UNL     1      35.292   6.935  46.684  1.00  0.00     0.313 HD
HETATM   25  H10 UNL     1      34.025   7.956  46.299  1.00  0.00     0.313 HD
ENDBRANCH  11  23
TORSDOF 1
ENDMDL
MODEL 8
REMARK VINA RESULT:      -6.6      8.520      9.887
REMARK  1 active torsions:
REMARK  status: ('A' for Active; 'I' for Inactive)
REMARK    1  A    between atoms: C9_11  and  N1_12 
ROOT
HETATM    1  C1  UNL     1      25.799   1.495  52.021  1.00  0.00     0.063 C 
HETATM    2  C2  UNL     1      25.474   2.585  51.362  1.00  0.00     0.012 C 
HETATM    3  C3  UNL     1      26.431   3.099  50.454  1.00  0.00     0.048 C 
HETATM    4  C4  UNL     1      26.295   4.220  49.675  1.00  0.00     0.055 A 
HETATM    5 CL1  UNL     1      27.681   4.599  48.627  1.00  0.00    -0.135 Cl
HETATM    6  C5  UNL     1      25.908   5.488  48.961  1.00  0.00     0.199 A 
HETATM    7  F1  UNL     1      25.182   5.037  49.946  1.00  0.00    -0.367 F 
HETATM    8  C6  UNL     1      24.763   6.217  49.222  1.00  0.00     0.207 A 
HETATM    9  C7  UNL     1      23.426   6.711  49.814  1.00  0.00     0.121 C 
HETATM   10  C8  UNL     1      23.383   6.433  51.260  1.00  0.00     0.065 C 
HETATM   11  C9  UNL     1      23.116   5.112  51.805  1.00  0.00     0.260 C 
HETATM   12  C10 UNL     1      22.787   4.032  50.794  1.00  0.00     0.075 A 
HETATM   13  C11 UNL     1      23.300   2.769  51.017  1.00  0.00     0.142 A 
HETATM   14  N2  UNL     1      23.002   1.746  50.199  1.00  0.00    -0.224 NA
HETATM   15  C12 UNL     1      22.184   1.932  49.117  1.00  0.00     0.238 A 
HETATM   16  N3  UNL     1      21.672   3.144  48.862  1.00  0.00    -0.216 NA
HETATM   17  C13 UNL     1      21.957   4.207  49.677  1.00  0.00     0.198 A 
HETATM   18  O1  UNL     1      21.468   5.524  49.466  1.00  0.00    -0.243 OA
HETATM   19  N4  UNL     1      22.324   6.524  48.990  1.00  0.00    -0.191 NA
HETATM   20  N5  UNL     1      24.249   2.528  52.048  1.00  0.00    -0.344 N 
HETATM   21  H12 UNL     1      21.741   7.342  48.763  1.00  0.00     0.154 HD
HETATM   22  H13 UNL     1      23.569   2.433  52.774  1.00  0.00     0.167 HD
ENDROOT
BRANCH  11  23
HETATM   23  N1  UNL     1      24.162   4.691  52.701  1.00  0.00     0.087 N 
HETATM   24  H9  UNL     1      23.927   3.735  53.046  1.00  0.00     0.313 HD
HETATM   25  H10 UNL     1      25.108   4.649  52.294  1.00  0.00     0.313 HD
ENDBRANCH  11  23
TORSDOF 1
ENDMDL
MODEL 9
REMARK VINA RESULT:      -6.5     11.131     13.172
REMARK  1 active torsions:
REMARK  status: ('A' for Active; 'I' for Inactive)
REMARK    1  A    between atoms: C9_11  and  N1_12 
ROOT
HETATM    1  C1  UNL     1      25.397   0.971  51.740  1.00  0.00     0.063 C 
HETATM    2  C2  UNL     1      24.113   1.126  51.973  1.00  0.00     0.012 C 
HETATM    3  C3  UNL     1      23.566   0.415  53.069  1.00  0.00     0.048 C 
HETATM    4  C4  UNL     1      22.257   0.432  53.480  1.00  0.00     0.055 A 
HETATM    5 CL1  UNL     1      21.886  -0.568  54.902  1.00  0.00    -0.135 Cl
HETATM    6  C5  UNL     1      20.777   0.602  53.701  1.00  0.00     0.199 A 
HETATM    7  F1  UNL     1      21.341   1.062  52.618  1.00  0.00    -0.367 F 
HETATM    8  C6  UNL     1      19.932   1.292  52.851  1.00  0.00     0.207 A 
HETATM    9  C7  UNL     1      19.365   2.118  51.678  1.00  0.00     0.121 C 
HETATM   10  C8  UNL     1      20.063   1.764  50.430  1.00  0.00     0.065 C 
HETATM   11  C9  UNL     1      21.394   2.246  50.103  1.00  0.00     0.260 C 
HETATM   12  C10 UNL     1      22.004   3.225  51.086  1.00  0.00     0.075 A 
HETATM   13  C11 UNL     1      23.354   3.106  51.353  1.00  0.00     0.142 A 
HETATM   14  N2  UNL     1      23.979   3.974  52.166  1.00  0.00    -0.224 NA
HETATM   15  C12 UNL     1      23.290   4.999  52.755  1.00  0.00     0.238 A 
HETATM   16  N3  UNL     1      21.977   5.145  52.528  1.00  0.00    -0.216 NA
HETATM   17  C13 UNL     1      21.312   4.276  51.705  1.00  0.00     0.198 A 
HETATM   18  O1  UNL     1      19.920   4.352  51.426  1.00  0.00    -0.243 OA
HETATM   19  N4  UNL     1      19.037   3.429  51.997  1.00  0.00    -0.191 NA
HETATM   20  N5  UNL     1      24.109   1.999  50.873  1.00  0.00    -0.344 N 
HETATM   21  H12 UNL     1      18.081   3.756  51.796  1.00  0.00     0.154 HD
HETATM   22  H13 UNL     1      24.272   2.390  49.968  1.00  0.00     0.167 HD
ENDROOT
BRANCH  11  23
HETATM   23  N1  UNL     1      22.294   1.158  49.819  1.00  0.00     0.087 N 
HETATM   24  H9  UNL     1      21.799   0.483  49.197  1.00  0.00     0.313 HD
HETATM   25  H10 UNL     1      23.176   1.419  49.354  1.00  0.00     0.313 HD
ENDBRANCH  11  23
TORSDOF 1
ENDMDL
