MODEL 1
REMARK VINA RESULT:      -8.0      0.000      0.000
REMARK  7 active torsions:
REMARK  status: ('A' for Active; 'I' for Inactive)
REMARK    1  A    between atoms: C4_5  and  N1_6 
REMARK    2  A    between atoms: N1_6  and  C5_7 
REMARK    3  A    between atoms: C7_9  and  C8_10 
REMARK    4  A    between atoms: C9_11  and  C10_12 
REMARK    5  A    between atoms: C10_12  and  C11_13 
REMARK    6  A    between atoms: C11_13  and  O1_14 
REMARK    7  A    between atoms: O1_14  and  C12_15 
ROOT
HETATM    1  C5  UNL     1      22.538   2.644  50.700  1.00  0.00     0.131 A 
HETATM    2  C6  UNL     1      22.436   2.065  51.940  1.00  0.00     0.082 A 
HETATM    3  C7  UNL     1      21.812   0.861  52.179  1.00  0.00     0.061 A 
HETATM    4  N3  UNL     1      21.306   0.303  51.069  1.00  0.00    -0.242 NA
HETATM    5  C17 UNL     1      21.367   0.805  49.842  1.00  0.00     0.235 A 
HETATM    6  N4  UNL     1      21.986   1.967  49.702  1.00  0.00    -0.224 NA
ENDROOT
BRANCH   3   7
HETATM    7  C8  UNL     1      21.730   0.292  53.515  1.00  0.00     0.032 C 
HETATM    8  C9  UNL     1      22.674  -0.419  54.098  1.00  0.00     0.004 C 
BRANCH   8   9
HETATM    9  C10 UNL     1      23.992  -0.832  53.642  1.00  0.00     0.024 C 
BRANCH   9  10
HETATM   10  C11 UNL     1      25.125  -0.580  54.287  1.00  0.00     0.135 C 
BRANCH  10  11
HETATM   11  O1  UNL     1      26.459  -0.416  54.529  1.00  0.00    -0.358 OA
BRANCH  11  12
HETATM   12  C12 UNL     1      27.382  -0.409  53.433  1.00  0.00     0.131 C 
HETATM   13  C13 UNL     1      27.199   0.829  52.623  1.00  0.00     0.062 C 
HETATM   14  C14 UNL     1      27.580   2.087  53.375  1.00  0.00     0.272 C 
HETATM   15  N2  UNL     1      28.715   1.850  54.251  1.00  0.00     0.083 N 
HETATM   16  C15 UNL     1      29.517   0.736  53.776  1.00  0.00     0.272 C 
HETATM   17  H14 UNL     1      28.302   1.540  55.163  1.00  0.00     0.315 HD
HETATM   18  C16 UNL     1      28.792  -0.582  53.889  1.00  0.00     0.062 C 
ENDBRANCH  11  12
ENDBRANCH  10  11
ENDBRANCH   9  10
ENDBRANCH   8   9
ENDBRANCH   3   7
BRANCH   1  19
HETATM   19  N1  UNL     1      23.213   3.884  50.583  1.00  0.00    -0.341 N 
HETATM   20  H3  UNL     1      22.719   4.744  50.969  1.00  0.00     0.167 HD
BRANCH  19  21
HETATM   21  C4  UNL     1      24.475   4.159  50.016  1.00  0.00     0.035 A 
HETATM   22  C3  UNL     1      25.545   3.287  50.030  1.00  0.00     0.032 A 
HETATM   23  C2  UNL     1      26.795   3.514  49.498  1.00  0.00     0.046 A 
HETATM   24  C1  UNL     1      27.014   4.751  48.880  1.00  0.00     0.138 A 
HETATM   25  F1  UNL     1      28.207   5.063  48.328  1.00  0.00    -0.204 F 
HETATM   26  C19 UNL     1      25.968   5.638  48.851  1.00  0.00     0.074 A 
HETATM   27  C18 UNL     1      24.736   5.365  49.396  1.00  0.00     0.056 A 
HETATM   28 CL1  UNL     1      26.212   7.203  48.077  1.00  0.00    -0.081 Cl
ENDBRANCH  19  21
ENDBRANCH   1  19
TORSDOF 7
ENDMDL
MODEL 2
REMARK VINA RESULT:      -7.9      3.451      5.781
REMARK  7 active torsions:
REMARK  status: ('A' for Active; 'I' for Inactive)
REMARK    1  A    between atoms: C4_5  and  N1_6 
REMARK    2  A    between atoms: N1_6  and  C5_7 
REMARK    3  A    between atoms: C7_9  and  C8_10 
REMARK    4  A    between atoms: C9_11  and  C10_12 
REMARK    5  A    between atoms: C10_12  and  C11_13 
REMARK    6  A    between atoms: C11_13  and  O1_14 
REMARK    7  A    between atoms: O1_14  and  C12_15 
ROOT
HETATM    1  C5  UNL     1      24.793   3.390  51.384  1.00  0.00     0.131 A 
HETATM    2  C6  UNL     1      23.999   3.086  50.306  1.00  0.00     0.082 A 
HETATM    3  C7  UNL     1      22.654   3.375  50.233  1.00  0.00     0.061 A 
HETATM    4  N3  UNL     1      22.190   3.988  51.332  1.00  0.00    -0.242 NA
HETATM    5  C17 UNL     1      22.897   4.311  52.407  1.00  0.00     0.235 A 
HETATM    6  N4  UNL     1      24.183   3.997  52.393  1.00  0.00    -0.224 NA
ENDROOT
BRANCH   3   7
HETATM    7  C8  UNL     1      21.858   3.029  49.066  1.00  0.00     0.032 C 
HETATM    8  C9  UNL     1      21.366   1.834  48.808  1.00  0.00     0.004 C 
BRANCH   8   9
HETATM    9  C10 UNL     1      21.447   0.579  49.538  1.00  0.00     0.024 C 
BRANCH   9  10
HETATM   10  C11 UNL     1      21.104   0.426  50.812  1.00  0.00     0.135 C 
BRANCH  10  11
HETATM   11  O1  UNL     1      20.564   0.685  52.040  1.00  0.00    -0.358 OA
BRANCH  11  12
HETATM   12  C12 UNL     1      21.427   0.964  53.148  1.00  0.00     0.131 C 
HETATM   13  C13 UNL     1      20.903   0.305  54.378  1.00  0.00     0.062 C 
HETATM   14  C14 UNL     1      20.951  -1.206  54.303  1.00  0.00     0.272 C 
HETATM   15  N2  UNL     1      22.126  -1.658  53.578  1.00  0.00     0.083 N 
HETATM   16  C15 UNL     1      23.186  -0.667  53.633  1.00  0.00     0.272 C 
HETATM   17  H14 UNL     1      21.831  -1.710  52.574  1.00  0.00     0.315 HD
HETATM   18  C16 UNL     1      22.842   0.584  52.863  1.00  0.00     0.062 C 
ENDBRANCH  11  12
ENDBRANCH  10  11
ENDBRANCH   9  10
ENDBRANCH   8   9
ENDBRANCH   3   7
BRANCH   1  19
HETATM   19  N1  UNL     1      26.166   3.047  51.334  1.00  0.00    -0.341 N 
HETATM   20  H3  UNL     1      26.787   3.620  50.687  1.00  0.00     0.167 HD
BRANCH  19  21
HETATM   21  C4  UNL     1      26.855   2.031  52.031  1.00  0.00     0.035 A 
HETATM   22  C3  UNL     1      27.916   2.251  52.885  1.00  0.00     0.032 A 
HETATM   23  C2  UNL     1      28.622   1.293  53.578  1.00  0.00     0.046 A 
HETATM   24  C1  UNL     1      28.233  -0.041  53.405  1.00  0.00     0.138 A 
HETATM   25  F1  UNL     1      28.866  -1.049  54.045  1.00  0.00    -0.204 F 
HETATM   26  C19 UNL     1      27.180  -0.289  52.562  1.00  0.00     0.074 A 
HETATM   27  C18 UNL     1      26.505   0.702  51.892  1.00  0.00     0.056 A 
HETATM   28 CL1  UNL     1      26.665  -1.958  52.327  1.00  0.00    -0.081 Cl
ENDBRANCH  19  21
ENDBRANCH   1  19
TORSDOF 7
ENDMDL
MODEL 3
REMARK VINA RESULT:      -7.8      3.370      6.362
REMARK  7 active torsions:
REMARK  status: ('A' for Active; 'I' for Inactive)
REMARK    1  A    between atoms: C4_5  and  N1_6 
REMARK    2  A    between atoms: N1_6  and  C5_7 
REMARK    3  A    between atoms: C7_9  and  C8_10 
REMARK    4  A    between atoms: C9_11  and  C10_12 
REMARK    5  A    between atoms: C10_12  and  C11_13 
REMARK    6  A    between atoms: C11_13  and  O1_14 
REMARK    7  A    between atoms: O1_14  and  C12_15 
ROOT
HETATM    1  C5  UNL     1      25.987   2.957  51.478  1.00  0.00     0.131 A 
HETATM    2  C6  UNL     1      24.670   3.210  51.182  1.00  0.00     0.082 A 
HETATM    3  C7  UNL     1      24.240   3.776  50.003  1.00  0.00     0.061 A 
HETATM    4  N3  UNL     1      25.244   4.061  49.162  1.00  0.00    -0.242 NA
HETATM    5  C17 UNL     1      26.535   3.846  49.381  1.00  0.00     0.235 A 
HETATM    6  N4  UNL     1      26.861   3.297  50.540  1.00  0.00    -0.224 NA
ENDROOT
BRANCH   3   7
HETATM    7  C8  UNL     1      22.831   4.024  49.742  1.00  0.00     0.032 C 
HETATM    8  C9  UNL     1      21.902   3.095  49.635  1.00  0.00     0.004 C 
BRANCH   8   9
HETATM    9  C10 UNL     1      21.970   1.646  49.736  1.00  0.00     0.024 C 
BRANCH   9  10
HETATM   10  C11 UNL     1      21.849   0.964  50.869  1.00  0.00     0.135 C 
BRANCH  10  11
HETATM   11  O1  UNL     1      22.067   0.022  51.833  1.00  0.00    -0.358 OA
BRANCH  11  12
HETATM   12  C12 UNL     1      22.149   0.421  53.207  1.00  0.00     0.131 C 
HETATM   13  C13 UNL     1      20.794   0.778  53.714  1.00  0.00     0.062 C 
HETATM   14  C14 UNL     1      19.857  -0.410  53.778  1.00  0.00     0.272 C 
HETATM   15  N2  UNL     1      20.570  -1.620  54.149  1.00  0.00     0.083 N 
HETATM   16  C15 UNL     1      21.774  -1.308  54.898  1.00  0.00     0.272 C 
HETATM   17  H14 UNL     1      20.893  -2.041  53.245  1.00  0.00     0.315 HD
HETATM   18  C16 UNL     1      22.814  -0.616  54.051  1.00  0.00     0.062 C 
ENDBRANCH  11  12
ENDBRANCH  10  11
ENDBRANCH   9  10
ENDBRANCH   8   9
ENDBRANCH   3   7
BRANCH   1  19
HETATM   19  N1  UNL     1      26.301   2.363  52.725  1.00  0.00    -0.341 N 
HETATM   20  H3  UNL     1      25.762   2.705  53.576  1.00  0.00     0.167 HD
BRANCH  19  21
HETATM   21  C4  UNL     1      27.248   1.359  53.017  1.00  0.00     0.035 A 
HETATM   22  C3  UNL     1      28.488   1.594  53.577  1.00  0.00     0.032 A 
HETATM   23  C2  UNL     1      29.446   0.649  53.871  1.00  0.00     0.046 A 
HETATM   24  C1  UNL     1      29.144  -0.686  53.576  1.00  0.00     0.138 A 
HETATM   25  F1  UNL     1      30.021  -1.681  53.832  1.00  0.00    -0.204 F 
HETATM   26  C19 UNL     1      27.918  -0.948  53.020  1.00  0.00     0.074 A 
HETATM   27  C18 UNL     1      26.993   0.029  52.744  1.00  0.00     0.056 A 
HETATM   28 CL1  UNL     1      27.507  -2.620  52.640  1.00  0.00    -0.081 Cl
ENDBRANCH  19  21
ENDBRANCH   1  19
TORSDOF 7
ENDMDL
MODEL 4
REMARK VINA RESULT:      -7.7      3.248      5.571
REMARK  7 active torsions:
REMARK  status: ('A' for Active; 'I' for Inactive)
REMARK    1  A    between atoms: C4_5  and  N1_6 
REMARK    2  A    between atoms: N1_6  and  C5_7 
REMARK    3  A    between atoms: C7_9  and  C8_10 
REMARK    4  A    between atoms: C9_11  and  C10_12 
REMARK    5  A    between atoms: C10_12  and  C11_13 
REMARK    6  A    between atoms: C11_13  and  O1_14 
REMARK    7  A    between atoms: O1_14  and  C12_15 
ROOT
HETATM    1  C5  UNL     1      23.362  -0.446  53.471  1.00  0.00     0.131 A 
HETATM    2  C6  UNL     1      22.583   0.334  52.653  1.00  0.00     0.082 A 
HETATM    3  C7  UNL     1      21.280   0.681  52.933  1.00  0.00     0.061 A 
HETATM    4  N3  UNL     1      20.841   0.176  54.095  1.00  0.00    -0.242 NA
HETATM    5  C17 UNL     1      21.536  -0.584  54.932  1.00  0.00     0.235 A 
HETATM    6  N4  UNL     1      22.782  -0.869  54.586  1.00  0.00    -0.224 NA
ENDROOT
BRANCH   3   7
HETATM    7  C8  UNL     1      20.497   1.510  52.030  1.00  0.00     0.032 C 
HETATM    8  C9  UNL     1      20.721   2.785  51.780  1.00  0.00     0.004 C 
BRANCH   8   9
HETATM    9  C10 UNL     1      21.734   3.701  52.277  1.00  0.00     0.024 C 
BRANCH   9  10
HETATM   10  C11 UNL     1      22.935   3.862  51.735  1.00  0.00     0.135 C 
BRANCH  10  11
HETATM   11  O1  UNL     1      24.270   3.700  51.490  1.00  0.00    -0.358 OA
BRANCH  11  12
HETATM   12  C12 UNL     1      24.703   3.243  50.204  1.00  0.00     0.131 C 
HETATM   13  C13 UNL     1      24.262   4.199  49.149  1.00  0.00     0.062 C 
HETATM   14  C14 UNL     1      24.940   5.548  49.257  1.00  0.00     0.272 C 
HETATM   15  N2  UNL     1      26.316   5.410  49.704  1.00  0.00     0.083 N 
HETATM   16  C15 UNL     1      26.841   4.097  49.375  1.00  0.00     0.272 C 
HETATM   17  H14 UNL     1      26.274   5.450  50.750  1.00  0.00     0.315 HD
HETATM   18  C16 UNL     1      26.175   2.997  50.165  1.00  0.00     0.062 C 
ENDBRANCH  11  12
ENDBRANCH  10  11
ENDBRANCH   9  10
ENDBRANCH   8   9
ENDBRANCH   3   7
BRANCH   1  19
HETATM   19  N1  UNL     1      24.693  -0.727  53.074  1.00  0.00    -0.341 N 
HETATM   20  H3  UNL     1      24.858  -1.623  52.524  1.00  0.00     0.167 HD
BRANCH  19  21
HETATM   21  C4  UNL     1      25.866   0.022  53.306  1.00  0.00     0.035 A 
HETATM   22  C3  UNL     1      25.893   1.385  53.524  1.00  0.00     0.032 A 
HETATM   23  C2  UNL     1      27.011   2.158  53.745  1.00  0.00     0.046 A 
HETATM   24  C1  UNL     1      28.250   1.506  53.752  1.00  0.00     0.138 A 
HETATM   25  F1  UNL     1      29.402   2.182  53.962  1.00  0.00    -0.204 F 
HETATM   26  C19 UNL     1      28.254   0.152  53.538  1.00  0.00     0.074 A 
HETATM   27  C18 UNL     1      27.110  -0.578  53.321  1.00  0.00     0.056 A 
HETATM   28 CL1  UNL     1      29.799  -0.697  53.542  1.00  0.00    -0.081 Cl
ENDBRANCH  19  21
ENDBRANCH   1  19
TORSDOF 7
ENDMDL
MODEL 5
REMARK VINA RESULT:      -7.6      1.825      2.439
REMARK  7 active torsions:
REMARK  status: ('A' for Active; 'I' for Inactive)
REMARK    1  A    between atoms: C4_5  and  N1_6 
REMARK    2  A    between atoms: N1_6  and  C5_7 
REMARK    3  A    between atoms: C7_9  and  C8_10 
REMARK    4  A    between atoms: C9_11  and  C10_12 
REMARK    5  A    between atoms: C10_12  and  C11_13 
REMARK    6  A    between atoms: C11_13  and  O1_14 
REMARK    7  A    between atoms: O1_14  and  C12_15 
ROOT
HETATM    1  C5  UNL     1      24.504   2.873  50.818  1.00  0.00     0.131 A 
HETATM    2  C6  UNL     1      23.695   1.766  50.887  1.00  0.00     0.082 A 
HETATM    3  C7  UNL     1      22.969   1.411  52.001  1.00  0.00     0.061 A 
HETATM    4  N3  UNL     1      23.131   2.261  53.025  1.00  0.00    -0.242 NA
HETATM    5  C17 UNL     1      23.895   3.346  53.030  1.00  0.00     0.235 A 
HETATM    6  N4  UNL     1      24.559   3.614  51.917  1.00  0.00    -0.224 NA
ENDROOT
BRANCH   3   7
HETATM    7  C8  UNL     1      22.127   0.225  52.021  1.00  0.00     0.032 C 
HETATM    8  C9  UNL     1      22.008  -0.606  53.037  1.00  0.00     0.004 C 
BRANCH   8   9
HETATM    9  C10 UNL     1      22.621  -0.613  54.355  1.00  0.00     0.024 C 
BRANCH   9  10
HETATM   10  C11 UNL     1      23.876  -0.973  54.599  1.00  0.00     0.135 C 
BRANCH  10  11
HETATM   11  O1  UNL     1      25.236  -1.051  54.498  1.00  0.00    -0.358 OA
BRANCH  11  12
HETATM   12  C12 UNL     1      25.887  -0.563  53.320  1.00  0.00     0.131 C 
HETATM   13  C13 UNL     1      26.532   0.751  53.602  1.00  0.00     0.062 C 
HETATM   14  C14 UNL     1      27.679   0.645  54.585  1.00  0.00     0.272 C 
HETATM   15  N2  UNL     1      28.411  -0.597  54.403  1.00  0.00     0.083 N 
HETATM   16  C15 UNL     1      28.259  -1.099  53.049  1.00  0.00     0.272 C 
HETATM   17  H14 UNL     1      27.936  -1.294  55.025  1.00  0.00     0.315 HD
HETATM   18  C16 UNL     1      26.851  -1.557  52.762  1.00  0.00     0.062 C 
ENDBRANCH  11  12
ENDBRANCH  10  11
ENDBRANCH   9  10
ENDBRANCH   8   9
ENDBRANCH   3   7
BRANCH   1  19
HETATM   19  N1  UNL     1      25.195   3.135  49.609  1.00  0.00    -0.341 N 
HETATM   20  H3  UNL     1      25.271   2.337  48.909  1.00  0.00     0.167 HD
BRANCH  19  21
HETATM   21  C4  UNL     1      25.817   4.327  49.181  1.00  0.00     0.035 A 
HETATM   22  C3  UNL     1      25.156   5.521  48.970  1.00  0.00     0.032 A 
HETATM   23  C2  UNL     1      25.719   6.704  48.545  1.00  0.00     0.046 A 
HETATM   24  C1  UNL     1      27.097   6.709  48.300  1.00  0.00     0.138 A 
HETATM   25  F1  UNL     1      27.736   7.824  47.883  1.00  0.00    -0.204 F 
HETATM   26  C19 UNL     1      27.779   5.536  48.502  1.00  0.00     0.074 A 
HETATM   27  C18 UNL     1      27.174   4.378  48.928  1.00  0.00     0.056 A 
HETATM   28 CL1  UNL     1      29.516   5.511  48.205  1.00  0.00    -0.081 Cl
ENDBRANCH  19  21
ENDBRANCH   1  19
TORSDOF 7
ENDMDL
MODEL 6
REMARK VINA RESULT:      -7.6      3.537      6.175
REMARK  7 active torsions:
REMARK  status: ('A' for Active; 'I' for Inactive)
REMARK    1  A    between atoms: C4_5  and  N1_6 
REMARK    2  A    between atoms: N1_6  and  C5_7 
REMARK    3  A    between atoms: C7_9  and  C8_10 
REMARK    4  A    between atoms: C9_11  and  C10_12 
REMARK    5  A    between atoms: C10_12  and  C11_13 
REMARK    6  A    between atoms: C11_13  and  O1_14 
REMARK    7  A    between atoms: O1_14  and  C12_15 
ROOT
HETATM    1  C5  UNL     1      21.641   2.563  51.408  1.00  0.00     0.131 A 
HETATM    2  C6  UNL     1      22.282   2.965  50.263  1.00  0.00     0.082 A 
HETATM    3  C7  UNL     1      22.646   4.266  49.999  1.00  0.00     0.061 A 
HETATM    4  N3  UNL     1      22.308   5.114  50.982  1.00  0.00    -0.242 NA
HETATM    5  C17 UNL     1      21.689   4.797  52.112  1.00  0.00     0.235 A 
HETATM    6  N4  UNL     1      21.376   3.522  52.285  1.00  0.00    -0.224 NA
ENDROOT
BRANCH   3   7
HETATM    7  C8  UNL     1      23.323   4.638  48.767  1.00  0.00     0.032 C 
HETATM    8  C9  UNL     1      24.591   4.983  48.670  1.00  0.00     0.004 C 
BRANCH   8   9
HETATM    9  C10 UNL     1      25.640   5.095  49.671  1.00  0.00     0.024 C 
BRANCH   9  10
HETATM   10  C11 UNL     1      26.456   4.107  50.019  1.00  0.00     0.135 C 
BRANCH  10  11
HETATM   11  O1  UNL     1      26.930   2.987  50.642  1.00  0.00    -0.358 OA
BRANCH  11  12
HETATM   12  C12 UNL     1      26.020   2.126  51.336  1.00  0.00     0.131 C 
HETATM   13  C13 UNL     1      26.757   0.962  51.905  1.00  0.00     0.062 C 
HETATM   14  C14 UNL     1      27.727   1.356  52.998  1.00  0.00     0.272 C 
HETATM   15  N2  UNL     1      27.202   2.453  53.794  1.00  0.00     0.083 N 
HETATM   16  C15 UNL     1      25.752   2.488  53.741  1.00  0.00     0.272 C 
HETATM   17  H14 UNL     1      27.531   3.325  53.316  1.00  0.00     0.315 HD
HETATM   18  C16 UNL     1      25.237   2.860  52.373  1.00  0.00     0.062 C 
ENDBRANCH  11  12
ENDBRANCH  10  11
ENDBRANCH   9  10
ENDBRANCH   8   9
ENDBRANCH   3   7
BRANCH   1  19
HETATM   19  N1  UNL     1      21.326   1.190  51.565  1.00  0.00    -0.341 N 
HETATM   20  H3  UNL     1      20.746   0.734  50.797  1.00  0.00     0.167 HD
BRANCH  19  21
HETATM   21  C4  UNL     1      21.673   0.313  52.614  1.00  0.00     0.035 A 
HETATM   22  C3  UNL     1      20.767  -0.433  53.340  1.00  0.00     0.032 A 
HETATM   23  C2  UNL     1      21.058  -1.294  54.375  1.00  0.00     0.046 A 
HETATM   24  C1  UNL     1      22.404  -1.433  54.736  1.00  0.00     0.138 A 
HETATM   25  F1  UNL     1      22.784  -2.255  55.738  1.00  0.00    -0.204 F 
HETATM   26  C19 UNL     1      23.326  -0.703  54.031  1.00  0.00     0.074 A 
HETATM   27  C18 UNL     1      22.987   0.144  53.003  1.00  0.00     0.056 A 
HETATM   28 CL1  UNL     1      25.028  -0.859  54.459  1.00  0.00    -0.081 Cl
ENDBRANCH  19  21
ENDBRANCH   1  19
TORSDOF 7
ENDMDL
MODEL 7
REMARK VINA RESULT:      -7.4      3.074      4.611
REMARK  7 active torsions:
REMARK  status: ('A' for Active; 'I' for Inactive)
REMARK    1  A    between atoms: C4_5  and  N1_6 
REMARK    2  A    between atoms: N1_6  and  C5_7 
REMARK    3  A    between atoms: C7_9  and  C8_10 
REMARK    4  A    between atoms: C9_11  and  C10_12 
REMARK    5  A    between atoms: C10_12  and  C11_13 
REMARK    6  A    between atoms: C11_13  and  O1_14 
REMARK    7  A    between atoms: O1_14  and  C12_15 
ROOT
HETATM    1  C5  UNL     1      26.696   5.086  49.262  1.00  0.00     0.131 A 
HETATM    2  C6  UNL     1      25.992   3.947  49.564  1.00  0.00     0.082 A 
HETATM    3  C7  UNL     1      24.776   3.941  50.209  1.00  0.00     0.061 A 
HETATM    4  N3  UNL     1      24.342   5.172  50.520  1.00  0.00    -0.242 NA
HETATM    5  C17 UNL     1      24.968   6.312  50.260  1.00  0.00     0.235 A 
HETATM    6  N4  UNL     1      26.132   6.227  49.636  1.00  0.00    -0.224 NA
ENDROOT
BRANCH   3   7
HETATM    7  C8  UNL     1      24.072   2.704  50.507  1.00  0.00     0.032 C 
HETATM    8  C9  UNL     1      23.864   2.218  51.715  1.00  0.00     0.004 C 
BRANCH   8   9
HETATM    9  C10 UNL     1      24.234   2.714  53.030  1.00  0.00     0.024 C 
BRANCH   9  10
HETATM   10  C11 UNL     1      25.369   2.420  53.654  1.00  0.00     0.135 C 
BRANCH  10  11
HETATM   11  O1  UNL     1      26.706   2.334  53.922  1.00  0.00    -0.358 OA
BRANCH  11  12
HETATM   12  C12 UNL     1      27.577   1.698  52.979  1.00  0.00     0.131 C 
HETATM   13  C13 UNL     1      28.892   1.409  53.618  1.00  0.00     0.062 C 
HETATM   14  C14 UNL     1      28.798   0.375  54.720  1.00  0.00     0.272 C 
HETATM   15  N2  UNL     1      27.809  -0.641  54.401  1.00  0.00     0.083 N 
HETATM   16  C15 UNL     1      27.615  -0.749  52.967  1.00  0.00     0.272 C 
HETATM   17  H14 UNL     1      26.905  -0.280  54.789  1.00  0.00     0.315 HD
HETATM   18  C16 UNL     1      26.959   0.477  52.382  1.00  0.00     0.062 C 
ENDBRANCH  11  12
ENDBRANCH  10  11
ENDBRANCH   9  10
ENDBRANCH   8   9
ENDBRANCH   3   7
BRANCH   1  19
HETATM   19  N1  UNL     1      27.935   4.960  48.586  1.00  0.00    -0.341 N 
HETATM   20  H3  UNL     1      28.255   3.975  48.337  1.00  0.00     0.167 HD
BRANCH  19  21
HETATM   21  C4  UNL     1      28.835   5.969  48.184  1.00  0.00     0.035 A 
HETATM   22  C3  UNL     1      28.505   7.027  47.361  1.00  0.00     0.032 A 
HETATM   23  C2  UNL     1      29.350   8.029  46.935  1.00  0.00     0.046 A 
HETATM   24  C1  UNL     1      30.678   7.978  47.375  1.00  0.00     0.138 A 
HETATM   25  F1  UNL     1      31.578   8.917  47.011  1.00  0.00    -0.204 F 
HETATM   26  C19 UNL     1      31.034   6.937  48.194  1.00  0.00     0.074 A 
HETATM   27  C18 UNL     1      30.154   5.960  48.593  1.00  0.00     0.056 A 
HETATM   28 CL1  UNL     1      32.698   6.847  48.766  1.00  0.00    -0.081 Cl
ENDBRANCH  19  21
ENDBRANCH   1  19
TORSDOF 7
ENDMDL
MODEL 8
REMARK VINA RESULT:      -7.4      3.761      6.110
REMARK  7 active torsions:
REMARK  status: ('A' for Active; 'I' for Inactive)
REMARK    1  A    between atoms: C4_5  and  N1_6 
REMARK    2  A    between atoms: N1_6  and  C5_7 
REMARK    3  A    between atoms: C7_9  and  C8_10 
REMARK    4  A    between atoms: C9_11  and  C10_12 
REMARK    5  A    between atoms: C10_12  and  C11_13 
REMARK    6  A    between atoms: C11_13  and  O1_14 
REMARK    7  A    between atoms: O1_14  and  C12_15 
ROOT
HETATM    1  C5  UNL     1      22.284   3.214  51.064  1.00  0.00     0.131 A 
HETATM    2  C6  UNL     1      23.379   3.578  50.321  1.00  0.00     0.082 A 
HETATM    3  C7  UNL     1      23.973   4.819  50.381  1.00  0.00     0.061 A 
HETATM    4  N3  UNL     1      23.370   5.647  51.247  1.00  0.00    -0.242 NA
HETATM    5  C17 UNL     1      22.311   5.363  51.995  1.00  0.00     0.235 A 
HETATM    6  N4  UNL     1      21.803   4.147  51.875  1.00  0.00    -0.224 NA
ENDROOT
BRANCH   3   7
HETATM    7  C8  UNL     1      25.132   5.154  49.569  1.00  0.00     0.032 C 
HETATM    8  C9  UNL     1      26.171   4.368  49.365  1.00  0.00     0.004 C 
BRANCH   8   9
HETATM    9  C10 UNL     1      26.475   3.028  49.840  1.00  0.00     0.024 C 
BRANCH   9  10
HETATM   10  C11 UNL     1      26.879   2.739  51.071  1.00  0.00     0.135 C 
BRANCH  10  11
HETATM   11  O1  UNL     1      27.120   2.031  52.214  1.00  0.00    -0.358 OA
BRANCH  11  12
HETATM   12  C12 UNL     1      26.152   1.082  52.676  1.00  0.00     0.131 C 
HETATM   13  C13 UNL     1      26.581  -0.299  52.314  1.00  0.00     0.062 C 
HETATM   14  C14 UNL     1      27.834  -0.736  53.041  1.00  0.00     0.272 C 
HETATM   15  N2  UNL     1      27.869  -0.203  54.393  1.00  0.00     0.083 N 
HETATM   16  C15 UNL     1      26.529   0.080  54.876  1.00  0.00     0.272 C 
HETATM   17  H14 UNL     1      28.349   0.724  54.314  1.00  0.00     0.315 HD
HETATM   18  C16 UNL     1      25.882   1.225  54.137  1.00  0.00     0.062 C 
ENDBRANCH  11  12
ENDBRANCH  10  11
ENDBRANCH   9  10
ENDBRANCH   8   9
ENDBRANCH   3   7
BRANCH   1  19
HETATM   19  N1  UNL     1      21.769   1.902  50.917  1.00  0.00    -0.341 N 
HETATM   20  H3  UNL     1      21.514   1.588  49.932  1.00  0.00     0.167 HD
BRANCH  19  21
HETATM   21  C4  UNL     1      21.536   0.922  51.905  1.00  0.00     0.035 A 
HETATM   22  C3  UNL     1      22.518   0.363  52.698  1.00  0.00     0.032 A 
HETATM   23  C2  UNL     1      22.339  -0.599  53.667  1.00  0.00     0.046 A 
HETATM   24  C1  UNL     1      21.035  -1.065  53.876  1.00  0.00     0.138 A 
HETATM   25  F1  UNL     1      20.764  -2.007  54.806  1.00  0.00    -0.204 F 
HETATM   26  C19 UNL     1      20.040  -0.526  53.102  1.00  0.00     0.074 A 
HETATM   27  C18 UNL     1      20.267   0.434  52.147  1.00  0.00     0.056 A 
HETATM   28 CL1  UNL     1      18.387  -1.090  53.345  1.00  0.00    -0.081 Cl
ENDBRANCH  19  21
ENDBRANCH   1  19
TORSDOF 7
ENDMDL
MODEL 9
REMARK VINA RESULT:      -7.3      3.654      6.415
REMARK  7 active torsions:
REMARK  status: ('A' for Active; 'I' for Inactive)
REMARK    1  A    between atoms: C4_5  and  N1_6 
REMARK    2  A    between atoms: N1_6  and  C5_7 
REMARK    3  A    between atoms: C7_9  and  C8_10 
REMARK    4  A    between atoms: C9_11  and  C10_12 
REMARK    5  A    between atoms: C10_12  and  C11_13 
REMARK    6  A    between atoms: C11_13  and  O1_14 
REMARK    7  A    between atoms: O1_14  and  C12_15 
ROOT
HETATM    1  C5  UNL     1      24.002  -0.563  53.541  1.00  0.00     0.131 A 
HETATM    2  C6  UNL     1      22.761  -0.322  53.006  1.00  0.00     0.082 A 
HETATM    3  C7  UNL     1      21.577  -0.577  53.661  1.00  0.00     0.061 A 
HETATM    4  N3  UNL     1      21.756  -1.090  54.887  1.00  0.00    -0.242 NA
HETATM    5  C17 UNL     1      22.922  -1.348  55.466  1.00  0.00     0.235 A 
HETATM    6  N4  UNL     1      24.011  -1.073  54.765  1.00  0.00    -0.224 NA
ENDROOT
BRANCH   3   7
HETATM    7  C8  UNL     1      20.287  -0.304  53.046  1.00  0.00     0.032 C 
HETATM    8  C9  UNL     1      19.828   0.893  52.740  1.00  0.00     0.004 C 
BRANCH   8   9
HETATM    9  C10 UNL     1      20.405   2.217  52.900  1.00  0.00     0.024 C 
BRANCH   9  10
HETATM   10  C11 UNL     1      21.255   2.776  52.046  1.00  0.00     0.135 C 
BRANCH  10  11
HETATM   11  O1  UNL     1      21.824   3.170  50.868  1.00  0.00    -0.358 OA
BRANCH  11  12
HETATM   12  C12 UNL     1      22.542   2.217  50.075  1.00  0.00     0.131 C 
HETATM   13  C13 UNL     1      21.641   1.094  49.689  1.00  0.00     0.062 C 
HETATM   14  C14 UNL     1      20.532   1.524  48.752  1.00  0.00     0.272 C 
HETATM   15  N2  UNL     1      20.993   2.549  47.831  1.00  0.00     0.083 N 
HETATM   16  C15 UNL     1      22.431   2.474  47.645  1.00  0.00     0.272 C 
HETATM   17  H14 UNL     1      20.811   3.460  48.315  1.00  0.00     0.315 HD
HETATM   18  C16 UNL     1      23.192   2.853  48.891  1.00  0.00     0.062 C 
ENDBRANCH  11  12
ENDBRANCH  10  11
ENDBRANCH   9  10
ENDBRANCH   8   9
ENDBRANCH   3   7
BRANCH   1  19
HETATM   19  N1  UNL     1      25.147  -0.250  52.768  1.00  0.00    -0.341 N 
HETATM   20  H3  UNL     1      25.104  -0.465  51.726  1.00  0.00     0.167 HD
BRANCH  19  21
HETATM   21  C4  UNL     1      26.371   0.318  53.181  1.00  0.00     0.035 A 
HETATM   22  C3  UNL     1      26.551   1.653  53.482  1.00  0.00     0.032 A 
HETATM   23  C2  UNL     1      27.725   2.252  53.881  1.00  0.00     0.046 A 
HETATM   24  C1  UNL     1      28.856   1.435  53.994  1.00  0.00     0.138 A 
HETATM   25  F1  UNL     1      30.052   1.934  54.379  1.00  0.00    -0.204 F 
HETATM   26  C19 UNL     1      28.707   0.103  53.701  1.00  0.00     0.074 A 
HETATM   27  C18 UNL     1      27.512  -0.450  53.307  1.00  0.00     0.056 A 
HETATM   28 CL1  UNL     1      30.112  -0.952  53.837  1.00  0.00    -0.081 Cl
ENDBRANCH  19  21
ENDBRANCH   1  19
TORSDOF 7
ENDMDL
