MODEL 1
REMARK VINA RESULT:      -8.3      0.000      0.000
REMARK  3 active torsions:
REMARK  status: ('A' for Active; 'I' for Inactive)
REMARK    1  A    between atoms: C1_2  and  N1_3 
REMARK    2  A    between atoms: N1_3  and  C2_4 
REMARK    3  A    between atoms: C6_10  and  O2_11 
ROOT
HETATM    1  C2  UNL     1      26.499  -0.068  53.462  1.00  0.00     0.133 C 
HETATM    2  N2  UNL     1      26.407   0.856  52.685  1.00  0.00    -0.230 NA
HETATM    3  C3  UNL     1      27.076   1.719  51.879  1.00  0.00     0.335 C 
HETATM    4  N3  UNL     1      26.774   2.675  51.067  1.00  0.00    -0.277 NA
HETATM    5  C4  UNL     1      25.360   2.939  50.948  1.00  0.00     0.053 C 
HETATM    6  C5  UNL     1      24.365   3.511  51.583  1.00  0.00     0.022 C 
HETATM    7  C6  UNL     1      22.924   3.855  51.606  1.00  0.00     0.087 C 
HETATM    8  C7  UNL     1      22.465   4.534  50.344  1.00  0.00     0.069 C 
HETATM    9  C8  UNL     1      20.937   4.395  50.338  1.00  0.00     0.171 C 
HETATM   10  O3  UNL     1      20.456   4.229  51.645  1.00  0.00    -0.390 OA
HETATM   11  C9  UNL     1      20.755   2.940  52.140  1.00  0.00     0.179 C 
HETATM   12  C10 UNL     1      22.117   2.543  51.702  1.00  0.00     0.073 C 
HETATM   13  C11 UNL     1      22.816   1.545  52.478  1.00  0.00     0.023 C 
HETATM   14  C12 UNL     1      22.919   0.539  53.326  1.00  0.00     0.099 C 
HETATM   15  O4  UNL     1      21.566   0.573  53.444  1.00  0.00    -0.346 OA
HETATM   16  C13 UNL     1      20.787  -0.512  53.996  1.00  0.00     0.202 C 
HETATM   17  C14 UNL     1      21.774  -1.655  54.102  1.00  0.00     0.202 C 
HETATM   18  O5  UNL     1      22.939  -1.055  54.690  1.00  0.00    -0.346 OA
HETATM   19  C15 UNL     1      23.886  -0.325  53.962  1.00  0.00     0.105 C 
HETATM   20  C16 UNL     1      25.188  -0.526  53.997  1.00  0.00     0.090 C 
ENDROOT
BRANCH   1  21
HETATM   21  N1  UNL     1      27.617  -0.792  53.961  1.00  0.00    -0.319 N 
HETATM   22  H2  UNL     1      27.662  -1.855  54.019  1.00  0.00     0.169 HD
BRANCH  21  23
HETATM   23  C1  UNL     1      28.788  -0.164  54.433  1.00  0.00     0.354 C 
HETATM   24  O1  UNL     1      28.576   0.793  55.191  1.00  0.00    -0.283 OA
ENDBRANCH  21  23
ENDBRANCH   1  21
BRANCH   7  25
HETATM   25  O2  UNL     1      22.635   4.628  52.702  1.00  0.00    -0.385 OA
HETATM   26  H6  UNL     1      21.818   5.154  52.564  1.00  0.00     0.211 HD
ENDBRANCH   7  25
TORSDOF 3
ENDMDL
MODEL 2
REMARK VINA RESULT:      -7.9      2.797      6.286
REMARK  3 active torsions:
REMARK  status: ('A' for Active; 'I' for Inactive)
REMARK    1  A    between atoms: C1_2  and  N1_3 
REMARK    2  A    between atoms: N1_3  and  C2_4 
REMARK    3  A    between atoms: C6_10  and  O2_11 
ROOT
HETATM    1  C2  UNL     1      21.024  -0.260  53.717  1.00  0.00     0.133 C 
HETATM    2  N2  UNL     1      22.065  -0.591  54.238  1.00  0.00    -0.230 NA
HETATM    3  C3  UNL     1      22.649  -1.322  55.222  1.00  0.00     0.335 C 
HETATM    4  N3  UNL     1      23.849  -1.575  55.621  1.00  0.00    -0.277 NA
HETATM    5  C4  UNL     1      24.887  -0.933  54.850  1.00  0.00     0.053 C 
HETATM    6  C5  UNL     1      25.466   0.231  54.676  1.00  0.00     0.022 C 
HETATM    7  C6  UNL     1      26.492   1.028  53.963  1.00  0.00     0.087 C 
HETATM    8  C7  UNL     1      27.855   0.392  54.000  1.00  0.00     0.069 C 
HETATM    9  C8  UNL     1      28.650   1.064  52.871  1.00  0.00     0.171 C 
HETATM   10  O3  UNL     1      28.116   2.328  52.583  1.00  0.00    -0.390 OA
HETATM   11  C9  UNL     1      26.884   2.220  51.900  1.00  0.00     0.179 C 
HETATM   12  C10 UNL     1      26.096   1.099  52.473  1.00  0.00     0.073 C 
HETATM   13  C11 UNL     1      24.661   1.124  52.305  1.00  0.00     0.023 C 
HETATM   14  C12 UNL     1      23.524   1.485  51.741  1.00  0.00     0.099 C 
HETATM   15  O4  UNL     1      24.257   2.228  50.870  1.00  0.00    -0.346 OA
HETATM   16  C13 UNL     1      23.738   2.733  49.620  1.00  0.00     0.202 C 
HETATM   17  C14 UNL     1      22.411   2.021  49.460  1.00  0.00     0.202 C 
HETATM   18  O5  UNL     1      21.794   2.142  50.752  1.00  0.00    -0.346 OA
HETATM   19  C15 UNL     1      22.094   1.306  51.834  1.00  0.00     0.105 C 
HETATM   20  C16 UNL     1      21.205   0.665  52.566  1.00  0.00     0.090 C 
ENDROOT
BRANCH   1  21
HETATM   21  N1  UNL     1      19.667  -0.582  53.998  1.00  0.00    -0.319 N 
HETATM   22  H2  UNL     1      19.277  -0.719  54.980  1.00  0.00     0.169 HD
BRANCH  21  23
HETATM   23  C1  UNL     1      18.695  -0.752  52.990  1.00  0.00     0.354 C 
HETATM   24  O1  UNL     1      17.641  -1.267  53.389  1.00  0.00    -0.283 OA
ENDBRANCH  21  23
ENDBRANCH   1  21
BRANCH   7  25
HETATM   25  O2  UNL     1      26.541   2.304  54.464  1.00  0.00    -0.385 OA
HETATM   26  H6  UNL     1      27.434   2.520  54.807  1.00  0.00     0.211 HD
ENDBRANCH   7  25
TORSDOF 3
ENDMDL
MODEL 3
REMARK VINA RESULT:      -7.8      2.017      4.133
REMARK  3 active torsions:
REMARK  status: ('A' for Active; 'I' for Inactive)
REMARK    1  A    between atoms: C1_2  and  N1_3 
REMARK    2  A    between atoms: N1_3  and  C2_4 
REMARK    3  A    between atoms: C6_10  and  O2_11 
ROOT
HETATM    1  C2  UNL     1      26.710  -0.277  53.473  1.00  0.00     0.133 C 
HETATM    2  N2  UNL     1      25.568  -0.417  53.847  1.00  0.00    -0.230 NA
HETATM    3  C3  UNL     1      24.739  -1.041  54.723  1.00  0.00     0.335 C 
HETATM    4  N3  UNL     1      23.477  -1.039  54.989  1.00  0.00    -0.277 NA
HETATM    5  C4  UNL     1      22.690  -0.154  54.164  1.00  0.00     0.053 C 
HETATM    6  C5  UNL     1      22.174  -0.060  52.962  1.00  0.00     0.022 C 
HETATM    7  C6  UNL     1      21.380   0.737  51.996  1.00  0.00     0.087 C 
HETATM    8  C7  UNL     1      20.065   1.200  52.561  1.00  0.00     0.069 C 
HETATM    9  C8  UNL     1      19.611   2.349  51.650  1.00  0.00     0.171 C 
HETATM   10  O3  UNL     1      20.195   2.226  50.381  1.00  0.00    -0.390 OA
HETATM   11  C9  UNL     1      21.569   2.553  50.416  1.00  0.00     0.179 C 
HETATM   12  C10 UNL     1      22.175   2.017  51.661  1.00  0.00     0.073 C 
HETATM   13  C11 UNL     1      23.600   1.778  51.674  1.00  0.00     0.023 C 
HETATM   14  C12 UNL     1      24.846   1.927  51.266  1.00  0.00     0.099 C 
HETATM   15  O4  UNL     1      24.378   2.802  50.338  1.00  0.00    -0.346 OA
HETATM   16  C13 UNL     1      25.221   3.738  49.630  1.00  0.00     0.202 C 
HETATM   17  C14 UNL     1      26.545   3.665  50.361  1.00  0.00     0.202 C 
HETATM   18  O5  UNL     1      26.778   2.256  50.517  1.00  0.00    -0.346 OA
HETATM   19  C15 UNL     1      26.195   1.483  51.528  1.00  0.00     0.105 C 
HETATM   20  C16 UNL     1      26.850   0.675  52.338  1.00  0.00     0.090 C 
ENDROOT
BRANCH   1  21
HETATM   21  N1  UNL     1      27.938  -0.850  53.907  1.00  0.00    -0.319 N 
HETATM   22  H2  UNL     1      28.157  -1.892  53.869  1.00  0.00     0.169 HD
BRANCH  21  23
HETATM   23  C1  UNL     1      28.997  -0.083  54.435  1.00  0.00     0.354 C 
HETATM   24  O1  UNL     1      28.633   0.811  55.212  1.00  0.00    -0.283 OA
ENDBRANCH  21  23
ENDBRANCH   1  21
BRANCH   7  25
HETATM   25  O2  UNL     1      21.185   0.028  50.838  1.00  0.00    -0.385 OA
HETATM   26  H6  UNL     1      20.398   0.349  50.350  1.00  0.00     0.211 HD
ENDBRANCH   7  25
TORSDOF 3
ENDMDL
MODEL 4
REMARK VINA RESULT:      -7.7      2.764      5.472
REMARK  3 active torsions:
REMARK  status: ('A' for Active; 'I' for Inactive)
REMARK    1  A    between atoms: C1_2  and  N1_3 
REMARK    2  A    between atoms: N1_3  and  C2_4 
REMARK    3  A    between atoms: C6_10  and  O2_11 
ROOT
HETATM    1  C2  UNL     1      23.941   4.271  51.604  1.00  0.00     0.133 C 
HETATM    2  N2  UNL     1      22.777   3.947  51.676  1.00  0.00    -0.230 NA
HETATM    3  C3  UNL     1      21.488   4.331  51.492  1.00  0.00     0.335 C 
HETATM    4  N3  UNL     1      20.320   3.797  51.614  1.00  0.00    -0.277 NA
HETATM    5  C4  UNL     1      20.330   2.426  52.064  1.00  0.00     0.053 C 
HETATM    6  C5  UNL     1      20.490   1.701  53.145  1.00  0.00     0.022 C 
HETATM    7  C6  UNL     1      20.532   0.352  53.757  1.00  0.00     0.087 C 
HETATM    8  C7  UNL     1      19.326  -0.481  53.417  1.00  0.00     0.069 C 
HETATM    9  C8  UNL     1      19.734  -1.931  53.715  1.00  0.00     0.171 C 
HETATM   10  O3  UNL     1      20.768  -1.962  54.662  1.00  0.00    -0.390 OA
HETATM   11  C9  UNL     1      21.992  -1.540  54.098  1.00  0.00     0.179 C 
HETATM   12  C10 UNL     1      21.748  -0.402  53.177  1.00  0.00     0.073 C 
HETATM   13  C11 UNL     1      22.846   0.495  52.900  1.00  0.00     0.023 C 
HETATM   14  C12 UNL     1      24.114   0.853  52.823  1.00  0.00     0.099 C 
HETATM   15  O4  UNL     1      24.433  -0.388  53.276  1.00  0.00    -0.346 OA
HETATM   16  C13 UNL     1      25.754  -0.963  53.163  1.00  0.00     0.202 C 
HETATM   17  C14 UNL     1      26.488  -0.013  52.239  1.00  0.00     0.202 C 
HETATM   18  O5  UNL     1      26.165   1.289  52.752  1.00  0.00    -0.346 OA
HETATM   19  C15 UNL     1      24.970   1.959  52.465  1.00  0.00     0.105 C 
HETATM   20  C16 UNL     1      24.883   3.199  52.024  1.00  0.00     0.090 C 
ENDROOT
BRANCH   1  21
HETATM   21  N1  UNL     1      24.576   5.479  51.201  1.00  0.00    -0.319 N 
HETATM   22  H2  UNL     1      24.604   6.365  51.792  1.00  0.00     0.169 HD
BRANCH  21  23
HETATM   23  C1  UNL     1      25.238   5.620  49.964  1.00  0.00     0.354 C 
HETATM   24  O1  UNL     1      24.667   5.057  49.020  1.00  0.00    -0.283 OA
ENDBRANCH  21  23
ENDBRANCH   1  21
BRANCH   7  25
HETATM   25  O2  UNL     1      20.684   0.447  55.117  1.00  0.00    -0.385 OA
HETATM   26  H6  UNL     1      20.676   1.382  55.413  1.00  0.00     0.211 HD
ENDBRANCH   7  25
TORSDOF 3
ENDMDL
MODEL 5
REMARK VINA RESULT:      -7.6      2.643      6.842
REMARK  3 active torsions:
REMARK  status: ('A' for Active; 'I' for Inactive)
REMARK    1  A    between atoms: C1_2  and  N1_3 
REMARK    2  A    between atoms: N1_3  and  C2_4 
REMARK    3  A    between atoms: C6_10  and  O2_11 
ROOT
HETATM    1  C2  UNL     1      20.853   1.993  52.012  1.00  0.00     0.133 C 
HETATM    2  N2  UNL     1      21.482   1.091  52.519  1.00  0.00    -0.230 NA
HETATM    3  C3  UNL     1      21.419  -0.080  53.203  1.00  0.00     0.335 C 
HETATM    4  N3  UNL     1      22.254  -0.950  53.659  1.00  0.00    -0.277 NA
HETATM    5  C4  UNL     1      23.641  -0.644  53.402  1.00  0.00     0.053 C 
HETATM    6  C5  UNL     1      24.616   0.128  53.816  1.00  0.00     0.022 C 
HETATM    7  C6  UNL     1      26.029   0.553  53.673  1.00  0.00     0.087 C 
HETATM    8  C7  UNL     1      26.990  -0.606  53.675  1.00  0.00     0.069 C 
HETATM    9  C8  UNL     1      28.290  -0.059  53.068  1.00  0.00     0.171 C 
HETATM   10  O3  UNL     1      28.360   1.332  53.235  1.00  0.00    -0.390 OA
HETATM   11  C9  UNL     1      27.461   1.997  52.372  1.00  0.00     0.179 C 
HETATM   12  C10 UNL     1      26.189   1.235  52.298  1.00  0.00     0.073 C 
HETATM   13  C11 UNL     1      24.992   1.950  51.916  1.00  0.00     0.023 C 
HETATM   14  C12 UNL     1      24.304   2.932  51.367  1.00  0.00     0.099 C 
HETATM   15  O4  UNL     1      25.491   3.489  51.011  1.00  0.00    -0.346 OA
HETATM   16  C13 UNL     1      25.618   4.521  50.007  1.00  0.00     0.202 C 
HETATM   17  C14 UNL     1      24.254   4.564  49.351  1.00  0.00     0.202 C 
HETATM   18  O5  UNL     1      23.336   4.556  50.457  1.00  0.00    -0.346 OA
HETATM   19  C15 UNL     1      22.955   3.395  51.139  1.00  0.00     0.105 C 
HETATM   20  C16 UNL     1      21.711   3.035  51.386  1.00  0.00     0.090 C 
ENDROOT
BRANCH   1  21
HETATM   21  N1  UNL     1      19.458   2.246  51.906  1.00  0.00    -0.319 N 
HETATM   22  H2  UNL     1      18.703   1.517  52.092  1.00  0.00     0.169 HD
BRANCH  21  23
HETATM   23  C1  UNL     1      18.933   3.503  51.541  1.00  0.00     0.354 C 
HETATM   24  O1  UNL     1      17.829   3.753  52.046  1.00  0.00    -0.283 OA
ENDBRANCH  21  23
ENDBRANCH   1  21
BRANCH   7  25
HETATM   25  O2  UNL     1      26.359   1.456  54.651  1.00  0.00    -0.385 OA
HETATM   26  H6  UNL     1      27.155   1.974  54.406  1.00  0.00     0.211 HD
ENDBRANCH   7  25
TORSDOF 3
ENDMDL
MODEL 6
REMARK VINA RESULT:      -7.5      3.103      5.259
REMARK  3 active torsions:
REMARK  status: ('A' for Active; 'I' for Inactive)
REMARK    1  A    between atoms: C1_2  and  N1_3 
REMARK    2  A    between atoms: N1_3  and  C2_4 
REMARK    3  A    between atoms: C6_10  and  O2_11 
ROOT
HETATM    1  C2  UNL     1      21.008   0.324  53.496  1.00  0.00     0.133 C 
HETATM    2  N2  UNL     1      20.922   1.413  52.975  1.00  0.00    -0.230 NA
HETATM    3  C3  UNL     1      20.100   2.443  52.647  1.00  0.00     0.335 C 
HETATM    4  N3  UNL     1      20.215   3.593  52.076  1.00  0.00    -0.277 NA
HETATM    5  C4  UNL     1      21.555   3.924  51.652  1.00  0.00     0.053 C 
HETATM    6  C5  UNL     1      22.429   3.658  50.711  1.00  0.00     0.022 C 
HETATM    7  C6  UNL     1      23.781   3.893  50.151  1.00  0.00     0.087 C 
HETATM    8  C7  UNL     1      24.099   5.355  49.987  1.00  0.00     0.069 C 
HETATM    9  C8  UNL     1      25.627   5.428  49.858  1.00  0.00     0.171 C 
HETATM   10  O3  UNL     1      26.136   4.209  49.387  1.00  0.00    -0.390 OA
HETATM   11  C9  UNL     1      26.085   3.212  50.387  1.00  0.00     0.179 C 
HETATM   12  C10 UNL     1      24.819   3.340  51.151  1.00  0.00     0.073 C 
HETATM   13  C11 UNL     1      24.322   2.172  51.842  1.00  0.00     0.023 C 
HETATM   14  C12 UNL     1      24.411   0.984  52.409  1.00  0.00     0.099 C 
HETATM   15  O4  UNL     1      25.735   1.000  52.104  1.00  0.00    -0.346 OA
HETATM   16  C13 UNL     1      26.705   0.122  52.717  1.00  0.00     0.202 C 
HETATM   17  C14 UNL     1      25.948  -0.517  53.862  1.00  0.00     0.202 C 
HETATM   18  O5  UNL     1      24.695  -0.905  53.276  1.00  0.00    -0.346 OA
HETATM   19  C15 UNL     1      23.626  -0.023  53.082  1.00  0.00     0.105 C 
HETATM   20  C16 UNL     1      22.383  -0.242  53.466  1.00  0.00     0.090 C 
ENDROOT
BRANCH   1  21
HETATM   21  N1  UNL     1      20.047  -0.514  54.126  1.00  0.00    -0.319 N 
HETATM   22  H2  UNL     1      20.105  -0.832  55.141  1.00  0.00     0.169 HD
BRANCH  21  23
HETATM   23  C1  UNL     1      18.909  -1.012  53.457  1.00  0.00     0.354 C 
HETATM   24  O1  UNL     1      18.557  -2.140  53.832  1.00  0.00    -0.283 OA
ENDBRANCH  21  23
ENDBRANCH   1  21
BRANCH   7  25
HETATM   25  O2  UNL     1      23.927   3.231  48.958  1.00  0.00    -0.385 OA
HETATM   26  H6  UNL     1      24.705   2.634  48.973  1.00  0.00     0.211 HD
ENDBRANCH   7  25
TORSDOF 3
ENDMDL
MODEL 7
REMARK VINA RESULT:      -7.5      2.498      5.357
REMARK  3 active torsions:
REMARK  status: ('A' for Active; 'I' for Inactive)
REMARK    1  A    between atoms: C1_2  and  N1_3 
REMARK    2  A    between atoms: N1_3  and  C2_4 
REMARK    3  A    between atoms: C6_10  and  O2_11 
ROOT
HETATM    1  C2  UNL     1      25.262   3.364  50.182  1.00  0.00     0.133 C 
HETATM    2  N2  UNL     1      24.188   2.805  50.152  1.00  0.00    -0.230 NA
HETATM    3  C3  UNL     1      22.997   2.691  49.511  1.00  0.00     0.335 C 
HETATM    4  N3  UNL     1      21.929   1.978  49.630  1.00  0.00    -0.277 NA
HETATM    5  C4  UNL     1      21.955   1.033  50.721  1.00  0.00     0.053 C 
HETATM    6  C5  UNL     1      21.833   0.968  52.026  1.00  0.00     0.022 C 
HETATM    7  C6  UNL     1      21.833   0.126  53.246  1.00  0.00     0.087 C 
HETATM    8  C7  UNL     1      20.919  -1.064  53.134  1.00  0.00     0.069 C 
HETATM    9  C8  UNL     1      21.377  -2.035  54.230  1.00  0.00     0.171 C 
HETATM   10  O3  UNL     1      22.034  -1.340  55.256  1.00  0.00    -0.390 OA
HETATM   11  C9  UNL     1      23.315  -0.910  54.844  1.00  0.00     0.179 C 
HETATM   12  C10 UNL     1      23.254  -0.445  53.436  1.00  0.00     0.073 C 
HETATM   13  C11 UNL     1      24.266   0.483  52.983  1.00  0.00     0.023 C 
HETATM   14  C12 UNL     1      25.434   1.095  53.016  1.00  0.00     0.099 C 
HETATM   15  O4  UNL     1      25.732   0.348  54.110  1.00  0.00    -0.346 OA
HETATM   16  C13 UNL     1      27.075   0.172  54.614  1.00  0.00     0.202 C 
HETATM   17  C14 UNL     1      27.954   0.744  53.521  1.00  0.00     0.202 C 
HETATM   18  O5  UNL     1      27.323   1.991  53.186  1.00  0.00    -0.346 OA
HETATM   19  C15 UNL     1      26.219   2.096  52.332  1.00  0.00     0.105 C 
HETATM   20  C16 UNL     1      26.134   2.912  51.301  1.00  0.00     0.090 C 
ENDROOT
BRANCH   1  21
HETATM   21  N1  UNL     1      25.843   4.368  49.360  1.00  0.00    -0.319 N 
HETATM   22  H2  UNL     1      25.300   5.179  48.933  1.00  0.00     0.169 HD
BRANCH  21  23
HETATM   23  C1  UNL     1      27.214   4.387  49.026  1.00  0.00     0.354 C 
HETATM   24  O1  UNL     1      27.552   5.365  48.345  1.00  0.00    -0.283 OA
ENDBRANCH  21  23
ENDBRANCH   1  21
BRANCH   7  25
HETATM   25  O2  UNL     1      21.513   0.879  54.346  1.00  0.00    -0.385 OA
HETATM   26  H6  UNL     1      22.236   1.499  54.579  1.00  0.00     0.211 HD
ENDBRANCH   7  25
TORSDOF 3
ENDMDL
MODEL 8
REMARK VINA RESULT:      -7.4      2.552      4.418
REMARK  3 active torsions:
REMARK  status: ('A' for Active; 'I' for Inactive)
REMARK    1  A    between atoms: C1_2  and  N1_3 
REMARK    2  A    between atoms: N1_3  and  C2_4 
REMARK    3  A    between atoms: C6_10  and  O2_11 
ROOT
HETATM    1  C2  UNL     1      25.659   3.657  50.475  1.00  0.00     0.133 C 
HETATM    2  N2  UNL     1      24.514   3.662  50.084  1.00  0.00    -0.230 NA
HETATM    3  C3  UNL     1      23.616   4.230  49.239  1.00  0.00     0.335 C 
HETATM    4  N3  UNL     1      22.372   4.069  48.941  1.00  0.00    -0.277 NA
HETATM    5  C4  UNL     1      21.709   3.016  49.673  1.00  0.00     0.053 C 
HETATM    6  C5  UNL     1      21.195   2.750  50.850  1.00  0.00     0.022 C 
HETATM    7  C6  UNL     1      20.512   1.772  51.729  1.00  0.00     0.087 C 
HETATM    8  C7  UNL     1      19.286   1.173  51.094  1.00  0.00     0.069 C 
HETATM    9  C8  UNL     1      18.990  -0.100  51.900  1.00  0.00     0.171 C 
HETATM   10  O3  UNL     1      19.532   0.001  53.189  1.00  0.00    -0.390 OA
HETATM   11  C9  UNL     1      20.939  -0.122  53.164  1.00  0.00     0.179 C 
HETATM   12  C10 UNL     1      21.479   0.595  51.981  1.00  0.00     0.073 C 
HETATM   13  C11 UNL     1      22.854   1.036  52.025  1.00  0.00     0.023 C 
HETATM   14  C12 UNL     1      24.102   1.035  52.452  1.00  0.00     0.099 C 
HETATM   15  O4  UNL     1      23.753   0.029  53.296  1.00  0.00    -0.346 OA
HETATM   16  C13 UNL     1      24.712  -0.832  53.949  1.00  0.00     0.202 C 
HETATM   17  C14 UNL     1      26.022  -0.511  53.261  1.00  0.00     0.202 C 
HETATM   18  O5  UNL     1      26.051   0.925  53.222  1.00  0.00    -0.346 OA
HETATM   19  C15 UNL     1      25.376   1.687  52.261  1.00  0.00     0.105 C 
HETATM   20  C16 UNL     1      25.919   2.645  51.535  1.00  0.00     0.090 C 
ENDROOT
BRANCH   1  21
HETATM   21  N1  UNL     1      26.797   4.433  50.120  1.00  0.00    -0.319 N 
HETATM   22  H2  UNL     1      27.428   4.923  50.825  1.00  0.00     0.169 HD
BRANCH  21  23
HETATM   23  C1  UNL     1      27.204   4.630  48.784  1.00  0.00     0.354 C 
HETATM   24  O1  UNL     1      28.429   4.756  48.644  1.00  0.00    -0.283 OA
ENDBRANCH  21  23
ENDBRANCH   1  21
BRANCH   7  25
HETATM   25  O2  UNL     1      20.200   2.348  52.934  1.00  0.00    -0.385 OA
HETATM   26  H6  UNL     1      19.252   2.223  53.156  1.00  0.00     0.211 HD
ENDBRANCH   7  25
TORSDOF 3
ENDMDL
MODEL 9
REMARK VINA RESULT:      -6.8      1.978      3.259
REMARK  3 active torsions:
REMARK  status: ('A' for Active; 'I' for Inactive)
REMARK    1  A    between atoms: C1_2  and  N1_3 
REMARK    2  A    between atoms: N1_3  and  C2_4 
REMARK    3  A    between atoms: C6_10  and  O2_11 
ROOT
HETATM    1  C2  UNL     1      24.495   0.684  52.717  1.00  0.00     0.133 C 
HETATM    2  N2  UNL     1      25.134   1.481  52.067  1.00  0.00    -0.230 NA
HETATM    3  C3  UNL     1      26.351   1.796  51.554  1.00  0.00     0.335 C 
HETATM    4  N3  UNL     1      26.849   2.737  50.827  1.00  0.00    -0.277 NA
HETATM    5  C4  UNL     1      25.905   3.752  50.424  1.00  0.00     0.053 C 
HETATM    6  C5  UNL     1      25.265   4.800  50.886  1.00  0.00     0.022 C 
HETATM    7  C6  UNL     1      24.306   5.900  50.625  1.00  0.00     0.087 C 
HETATM    8  C7  UNL     1      24.647   6.692  49.392  1.00  0.00     0.069 C 
HETATM    9  C8  UNL     1      23.360   7.441  49.020  1.00  0.00     0.171 C 
HETATM   10  O3  UNL     1      22.546   7.604  50.151  1.00  0.00    -0.390 OA
HETATM   11  C9  UNL     1      21.943   6.383  50.528  1.00  0.00     0.179 C 
HETATM   12  C10 UNL     1      22.919   5.276  50.363  1.00  0.00     0.073 C 
HETATM   13  C11 UNL     1      22.720   4.075  51.140  1.00  0.00     0.023 C 
HETATM   14  C12 UNL     1      22.027   3.206  51.851  1.00  0.00     0.099 C 
HETATM   15  O4  UNL     1      20.942   4.001  51.662  1.00  0.00    -0.346 OA
HETATM   16  C13 UNL     1      19.583   3.560  51.875  1.00  0.00     0.202 C 
HETATM   17  C14 UNL     1      19.708   2.061  52.052  1.00  0.00     0.202 C 
HETATM   18  O5  UNL     1      20.809   1.910  52.964  1.00  0.00    -0.346 OA
HETATM   19  C15 UNL     1      22.151   1.961  52.572  1.00  0.00     0.105 C 
HETATM   20  C16 UNL     1      23.064   1.059  52.875  1.00  0.00     0.090 C 
ENDROOT
BRANCH   1  21
HETATM   21  N1  UNL     1      24.852  -0.535  53.358  1.00  0.00    -0.319 N 
HETATM   22  H2  UNL     1      25.506  -1.262  52.937  1.00  0.00     0.169 HD
BRANCH  21  23
HETATM   23  C1  UNL     1      24.368  -0.901  54.631  1.00  0.00     0.354 C 
HETATM   24  O1  UNL     1      25.253  -1.252  55.425  1.00  0.00    -0.283 OA
ENDBRANCH  21  23
ENDBRANCH   1  21
BRANCH   7  25
HETATM   25  O2  UNL     1      24.216   6.724  51.718  1.00  0.00    -0.385 OA
HETATM   26  H6  UNL     1      23.698   6.308  52.439  1.00  0.00     0.211 HD
ENDBRANCH   7  25
TORSDOF 3
ENDMDL
