MODEL 1
REMARK VINA RESULT:      -8.0      0.000      0.000
REMARK  2 active torsions:
REMARK  status: ('A' for Active; 'I' for Inactive)
REMARK    1  A    between atoms: O1_2  and  C2_3 
REMARK    2  A    between atoms: C13_17  and  C14_18 
ROOT
HETATM    1  C2  UNL     1      26.821   0.074  53.894  1.00  0.00     0.069 A 
HETATM    2  C3  UNL     1      26.827   0.546  52.610  1.00  0.00     0.037 A 
HETATM    3  C4  UNL     1      25.758   0.776  51.787  1.00  0.00     0.017 A 
HETATM    4  C5  UNL     1      24.573   0.478  52.380  1.00  0.00     0.001 A 
HETATM    5  C6  UNL     1      24.476  -0.019  53.706  1.00  0.00    -0.021 A 
HETATM    6  C7  UNL     1      25.605  -0.217  54.460  1.00  0.00     0.049 A 
HETATM    7  C8  UNL     1      23.078  -0.324  54.061  1.00  0.00     0.019 C 
HETATM    8  C9  UNL     1      22.013  -1.028  54.362  1.00  0.00     0.047 C 
HETATM    9  S1  UNL     1      20.689   0.220  54.567  1.00  0.00    -0.120 SA
HETATM   10  C10 UNL     1      20.058   0.414  52.845  1.00  0.00     0.223 C 
HETATM   11  N1  UNL     1      21.164   0.909  52.042  1.00  0.00    -0.290 N 
HETATM   12  N2  UNL     1      22.243  -0.014  51.942  1.00  0.00    -0.180 NA
HETATM   13  C11 UNL     1      23.282   0.707  51.689  1.00  0.00     0.067 C 
HETATM   14  C12 UNL     1      22.842   1.695  50.677  1.00  0.00     0.090 C 
HETATM   15  C13 UNL     1      21.476   2.096  51.273  1.00  0.00     0.122 C 
ENDROOT
BRANCH  15  16
HETATM   16  C14 UNL     1      21.652   3.339  52.044  1.00  0.00     0.057 A 
HETATM   17  C15 UNL     1      23.061   3.773  52.194  1.00  0.00    -0.015 A 
HETATM   18  C16 UNL     1      23.189   5.040  51.832  1.00  0.00     0.015 A 
HETATM   19  C17 UNL     1      21.873   5.539  51.413  1.00  0.00     0.007 A 
HETATM   20 BR1  UNL     1      21.732   7.361  50.826  1.00  0.00    -0.051 Br
HETATM   21  C18 UNL     1      20.990   4.539  51.542  1.00  0.00     0.003 A 
ENDBRANCH  15  16
BRANCH   1  22
HETATM   22  O1  UNL     1      27.855  -0.173  54.758  1.00  0.00    -0.356 OA
HETATM   23  C1  UNL     1      29.210  -0.272  54.458  1.00  0.00     0.210 C 
ENDBRANCH   1  22
TORSDOF 2
ENDMDL
MODEL 2
REMARK VINA RESULT:      -7.7      2.953      4.136
REMARK  2 active torsions:
REMARK  status: ('A' for Active; 'I' for Inactive)
REMARK    1  A    between atoms: O1_2  and  C2_3 
REMARK    2  A    between atoms: C13_17  and  C14_18 
ROOT
HETATM    1  C2  UNL     1      26.659  -1.196  53.039  1.00  0.00     0.069 A 
HETATM    2  C3  UNL     1      25.589  -1.023  53.875  1.00  0.00     0.037 A 
HETATM    3  C4  UNL     1      24.693   0.010  53.902  1.00  0.00     0.017 A 
HETATM    4  C5  UNL     1      24.955   0.949  52.955  1.00  0.00     0.001 A 
HETATM    5  C6  UNL     1      26.044   0.851  52.051  1.00  0.00    -0.021 A 
HETATM    6  C7  UNL     1      26.892  -0.226  52.096  1.00  0.00     0.049 A 
HETATM    7  C8  UNL     1      26.130   2.043  51.187  1.00  0.00     0.019 C 
HETATM    8  C9  UNL     1      26.592   3.161  50.680  1.00  0.00     0.047 C 
HETATM    9  S1  UNL     1      25.366   3.615  49.397  1.00  0.00    -0.120 SA
HETATM   10  C10 UNL     1      24.125   4.580  50.361  1.00  0.00     0.223 C 
HETATM   11  N1  UNL     1      23.572   3.681  51.361  1.00  0.00    -0.290 N 
HETATM   12  N2  UNL     1      24.531   3.246  52.318  1.00  0.00    -0.180 NA
HETATM   13  C11 UNL     1      24.076   2.127  52.768  1.00  0.00     0.067 C 
HETATM   14  C12 UNL     1      22.626   2.346  52.978  1.00  0.00     0.090 C 
HETATM   15  C13 UNL     1      22.281   3.108  51.681  1.00  0.00     0.122 C 
ENDROOT
BRANCH  15  16
HETATM   16  C14 UNL     1      21.739   2.145  50.706  1.00  0.00     0.057 A 
HETATM   17  C15 UNL     1      21.687   0.746  51.190  1.00  0.00    -0.015 A 
HETATM   18  C16 UNL     1      20.475   0.245  51.005  1.00  0.00     0.015 A 
HETATM   19  C17 UNL     1      19.635   1.277  50.385  1.00  0.00     0.007 A 
HETATM   20 BR1  UNL     1      17.806   0.849  49.990  1.00  0.00    -0.051 Br
HETATM   21  C18 UNL     1      20.383   2.375  50.217  1.00  0.00     0.003 A 
ENDBRANCH  15  16
BRANCH   1  22
HETATM   22  O1  UNL     1      27.581  -2.206  52.969  1.00  0.00    -0.356 OA
HETATM   23  C1  UNL     1      28.961  -2.112  53.124  1.00  0.00     0.210 C 
ENDBRANCH   1  22
TORSDOF 2
ENDMDL
MODEL 3
REMARK VINA RESULT:      -7.7      1.347      1.470
REMARK  2 active torsions:
REMARK  status: ('A' for Active; 'I' for Inactive)
REMARK    1  A    between atoms: O1_2  and  C2_3 
REMARK    2  A    between atoms: C13_17  and  C14_18 
ROOT
HETATM    1  C2  UNL     1      26.902   1.648  53.405  1.00  0.00     0.069 A 
HETATM    2  C3  UNL     1      26.991   2.124  52.125  1.00  0.00     0.037 A 
HETATM    3  C4  UNL     1      26.003   2.211  51.183  1.00  0.00     0.017 A 
HETATM    4  C5  UNL     1      24.809   1.749  51.639  1.00  0.00     0.001 A 
HETATM    5  C6  UNL     1      24.629   1.236  52.949  1.00  0.00    -0.021 A 
HETATM    6  C7  UNL     1      25.680   1.190  53.830  1.00  0.00     0.049 A 
HETATM    7  C8  UNL     1      23.254   0.740  53.144  1.00  0.00     0.019 C 
HETATM    8  C9  UNL     1      22.269  -0.106  53.328  1.00  0.00     0.047 C 
HETATM    9  S1  UNL     1      20.771   0.949  53.368  1.00  0.00    -0.120 SA
HETATM   10  C10 UNL     1      20.322   1.064  51.582  1.00  0.00     0.223 C 
HETATM   11  N1  UNL     1      21.435   1.710  50.907  1.00  0.00    -0.290 N 
HETATM   12  N2  UNL     1      22.635   0.945  50.940  1.00  0.00    -0.180 NA
HETATM   13  C11 UNL     1      23.587   1.803  50.802  1.00  0.00     0.067 C 
HETATM   14  C12 UNL     1      23.135   2.727  49.736  1.00  0.00     0.090 C 
HETATM   15  C13 UNL     1      21.668   2.933  50.166  1.00  0.00     0.122 C 
ENDROOT
BRANCH  15  16
HETATM   16  C14 UNL     1      21.582   4.185  50.941  1.00  0.00     0.057 A 
HETATM   17  C15 UNL     1      22.353   4.178  52.206  1.00  0.00    -0.015 A 
HETATM   18  C16 UNL     1      23.134   5.245  52.270  1.00  0.00     0.015 A 
HETATM   19  C17 UNL     1      22.938   6.038  51.050  1.00  0.00     0.007 A 
HETATM   20 BR1  UNL     1      23.942   7.661  50.847  1.00  0.00    -0.051 Br
HETATM   21  C18 UNL     1      22.034   5.410  50.288  1.00  0.00     0.003 A 
ENDBRANCH  15  16
BRANCH   1  22
HETATM   22  O1  UNL     1      27.854   1.541  54.384  1.00  0.00    -0.356 OA
HETATM   23  C1  UNL     1      28.623   0.427  54.705  1.00  0.00     0.210 C 
ENDBRANCH   1  22
TORSDOF 2
ENDMDL
MODEL 4
REMARK VINA RESULT:      -7.5      2.519      3.318
REMARK  2 active torsions:
REMARK  status: ('A' for Active; 'I' for Inactive)
REMARK    1  A    between atoms: O1_2  and  C2_3 
REMARK    2  A    between atoms: C13_17  and  C14_18 
ROOT
HETATM    1  C2  UNL     1      26.653   0.975  53.941  1.00  0.00     0.069 A 
HETATM    2  C3  UNL     1      25.922  -0.025  53.357  1.00  0.00     0.037 A 
HETATM    3  C4  UNL     1      24.708   0.067  52.735  1.00  0.00     0.017 A 
HETATM    4  C5  UNL     1      24.221   1.336  52.731  1.00  0.00     0.001 A 
HETATM    5  C6  UNL     1      24.911   2.429  53.315  1.00  0.00    -0.021 A 
HETATM    6  C7  UNL     1      26.129   2.243  53.918  1.00  0.00     0.049 A 
HETATM    7  C8  UNL     1      24.116   3.668  53.229  1.00  0.00     0.019 C 
HETATM    8  C9  UNL     1      23.397   4.695  53.615  1.00  0.00     0.047 C 
HETATM    9  S1  UNL     1      22.998   5.577  52.059  1.00  0.00    -0.120 SA
HETATM   10  C10 UNL     1      21.460   4.723  51.505  1.00  0.00     0.223 C 
HETATM   11  N1  UNL     1      21.807   3.330  51.277  1.00  0.00    -0.290 N 
HETATM   12  N2  UNL     1      22.205   2.649  52.462  1.00  0.00    -0.180 NA
HETATM   13  C11 UNL     1      22.944   1.673  52.058  1.00  0.00     0.067 C 
HETATM   14  C12 UNL     1      22.244   1.106  50.882  1.00  0.00     0.090 C 
HETATM   15  C13 UNL     1      21.838   2.408  50.161  1.00  0.00     0.122 C 
ENDROOT
BRANCH  15  16
HETATM   16  C14 UNL     1      22.837   2.691  49.114  1.00  0.00     0.057 A 
HETATM   17  C15 UNL     1      22.490   3.824  48.225  1.00  0.00    -0.015 A 
HETATM   18  C16 UNL     1      23.499   4.678  48.160  1.00  0.00     0.015 A 
HETATM   19  C17 UNL     1      24.590   4.174  49.003  1.00  0.00     0.007 A 
HETATM   20 BR1  UNL     1      26.207   5.203  49.116  1.00  0.00    -0.051 Br
HETATM   21  C18 UNL     1      24.191   3.019  49.551  1.00  0.00     0.003 A 
ENDBRANCH  15  16
BRANCH   1  22
HETATM   22  O1  UNL     1      27.868   0.938  54.573  1.00  0.00    -0.356 OA
HETATM   23  C1  UNL     1      28.976   0.163  54.245  1.00  0.00     0.210 C 
ENDBRANCH   1  22
TORSDOF 2
ENDMDL
MODEL 5
REMARK VINA RESULT:      -7.5      3.380      4.728
REMARK  2 active torsions:
REMARK  status: ('A' for Active; 'I' for Inactive)
REMARK    1  A    between atoms: O1_2  and  C2_3 
REMARK    2  A    between atoms: C13_17  and  C14_18 
ROOT
HETATM    1  C2  UNL     1      26.462   2.276  52.383  1.00  0.00     0.069 A 
HETATM    2  C3  UNL     1      25.640   2.604  53.427  1.00  0.00     0.037 A 
HETATM    3  C4  UNL     1      24.307   2.912  53.391  1.00  0.00     0.017 A 
HETATM    4  C5  UNL     1      23.798   2.869  52.132  1.00  0.00     0.001 A 
HETATM    5  C6  UNL     1      24.580   2.542  50.994  1.00  0.00    -0.021 A 
HETATM    6  C7  UNL     1      25.912   2.244  51.125  1.00  0.00     0.049 A 
HETATM    7  C8  UNL     1      23.787   2.646  49.755  1.00  0.00     0.019 C 
HETATM    8  C9  UNL     1      23.377   3.098  48.594  1.00  0.00     0.047 C 
HETATM    9  S1  UNL     1      21.983   1.996  48.147  1.00  0.00    -0.120 SA
HETATM   10  C10 UNL     1      20.550   2.823  48.962  1.00  0.00     0.223 C 
HETATM   11  N1  UNL     1      20.817   2.823  50.391  1.00  0.00    -0.290 N 
HETATM   12  N2  UNL     1      21.951   3.605  50.750  1.00  0.00    -0.180 NA
HETATM   13  C11 UNL     1      22.360   3.112  51.869  1.00  0.00     0.067 C 
HETATM   14  C12 UNL     1      21.136   2.877  52.669  1.00  0.00     0.090 C 
HETATM   15  C13 UNL     1      20.225   2.260  51.587  1.00  0.00     0.122 C 
ENDROOT
BRANCH  15  16
HETATM   16  C14 UNL     1      20.286   0.792  51.710  1.00  0.00     0.057 A 
HETATM   17  C15 UNL     1      20.924   0.307  52.955  1.00  0.00    -0.015 A 
HETATM   18  C16 UNL     1      20.139  -0.574  53.557  1.00  0.00     0.015 A 
HETATM   19  C17 UNL     1      18.921  -0.736  52.753  1.00  0.00     0.007 A 
HETATM   20 BR1  UNL     1      17.576  -1.958  53.370  1.00  0.00    -0.051 Br
HETATM   21  C18 UNL     1      19.021   0.064  51.683  1.00  0.00     0.003 A 
ENDBRANCH  15  16
BRANCH   1  22
HETATM   22  O1  UNL     1      27.795   1.960  52.363  1.00  0.00    -0.356 OA
HETATM   23  C1  UNL     1      28.588   1.546  53.429  1.00  0.00     0.210 C 
ENDBRANCH   1  22
TORSDOF 2
ENDMDL
MODEL 6
REMARK VINA RESULT:      -7.4      3.059      4.943
REMARK  2 active torsions:
REMARK  status: ('A' for Active; 'I' for Inactive)
REMARK    1  A    between atoms: O1_2  and  C2_3 
REMARK    2  A    between atoms: C13_17  and  C14_18 
ROOT
HETATM    1  C2  UNL     1      20.631  -0.878  53.689  1.00  0.00     0.069 A 
HETATM    2  C3  UNL     1      20.247   0.433  53.598  1.00  0.00     0.037 A 
HETATM    3  C4  UNL     1      21.031   1.532  53.381  1.00  0.00     0.017 A 
HETATM    4  C5  UNL     1      22.346   1.214  53.250  1.00  0.00     0.001 A 
HETATM    5  C6  UNL     1      22.830  -0.116  53.335  1.00  0.00    -0.021 A 
HETATM    6  C7  UNL     1      21.968  -1.160  53.553  1.00  0.00     0.049 A 
HETATM    7  C8  UNL     1      24.301  -0.156  53.231  1.00  0.00     0.019 C 
HETATM    8  C9  UNL     1      25.553  -0.318  53.586  1.00  0.00     0.047 C 
HETATM    9  S1  UNL     1      26.508   0.099  52.079  1.00  0.00    -0.120 SA
HETATM   10  C10 UNL     1      26.712   1.926  52.235  1.00  0.00     0.223 C 
HETATM   11  N1  UNL     1      25.378   2.504  52.222  1.00  0.00    -0.290 N 
HETATM   12  N2  UNL     1      24.588   2.121  53.343  1.00  0.00    -0.180 NA
HETATM   13  C11 UNL     1      23.366   2.247  52.953  1.00  0.00     0.067 C 
HETATM   14  C12 UNL     1      23.317   3.527  52.209  1.00  0.00     0.090 C 
HETATM   15  C13 UNL     1      24.615   3.405  51.383  1.00  0.00     0.122 C 
ENDROOT
BRANCH  15  16
HETATM   16  C14 UNL     1      24.266   2.902  50.042  1.00  0.00     0.057 A 
HETATM   17  C15 UNL     1      23.011   2.117  49.988  1.00  0.00    -0.015 A 
HETATM   18  C16 UNL     1      22.221   2.586  49.034  1.00  0.00     0.015 A 
HETATM   19  C17 UNL     1      22.897   3.717  48.385  1.00  0.00     0.007 A 
HETATM   20 BR1  UNL     1      21.996   4.616  46.949  1.00  0.00    -0.051 Br
HETATM   21  C18 UNL     1      24.084   3.888  48.982  1.00  0.00     0.003 A 
ENDBRANCH  15  16
BRANCH   1  22
HETATM   22  O1  UNL     1      19.891  -2.011  53.902  1.00  0.00    -0.356 OA
HETATM   23  C1  UNL     1      18.518  -2.172  53.752  1.00  0.00     0.210 C 
ENDBRANCH   1  22
TORSDOF 2
ENDMDL
MODEL 7
REMARK VINA RESULT:      -7.4      2.629      4.068
REMARK  2 active torsions:
REMARK  status: ('A' for Active; 'I' for Inactive)
REMARK    1  A    between atoms: O1_2  and  C2_3 
REMARK    2  A    between atoms: C13_17  and  C14_18 
ROOT
HETATM    1  C2  UNL     1      24.529  -0.053  53.169  1.00  0.00     0.069 A 
HETATM    2  C3  UNL     1      23.430  -0.825  53.435  1.00  0.00     0.037 A 
HETATM    3  C4  UNL     1      22.110  -0.479  53.343  1.00  0.00     0.017 A 
HETATM    4  C5  UNL     1      21.937   0.805  52.931  1.00  0.00     0.001 A 
HETATM    5  C6  UNL     1      23.020   1.674  52.638  1.00  0.00    -0.021 A 
HETATM    6  C7  UNL     1      24.315   1.239  52.757  1.00  0.00     0.049 A 
HETATM    7  C8  UNL     1      22.541   3.024  52.289  1.00  0.00     0.019 C 
HETATM    8  C9  UNL     1      22.321   4.313  52.390  1.00  0.00     0.047 C 
HETATM    9  S1  UNL     1      21.374   4.730  50.878  1.00  0.00    -0.120 SA
HETATM   10  C10 UNL     1      19.635   4.404  51.400  1.00  0.00     0.223 C 
HETATM   11  N1  UNL     1      19.550   2.992  51.734  1.00  0.00    -0.290 N 
HETATM   12  N2  UNL     1      20.349   2.630  52.855  1.00  0.00    -0.180 NA
HETATM   13  C11 UNL     1      20.586   1.372  52.708  1.00  0.00     0.067 C 
HETATM   14  C12 UNL     1      19.300   0.772  52.284  1.00  0.00     0.090 C 
HETATM   15  C13 UNL     1      18.843   1.823  51.251  1.00  0.00     0.122 C 
ENDROOT
BRANCH  15  16
HETATM   16  C14 UNL     1      19.219   1.348  49.907  1.00  0.00     0.057 A 
HETATM   17  C15 UNL     1      18.715   2.189  48.797  1.00  0.00    -0.015 A 
HETATM   18  C16 UNL     1      19.708   2.507  47.980  1.00  0.00     0.015 A 
HETATM   19  C17 UNL     1      20.943   1.901  48.491  1.00  0.00     0.007 A 
HETATM   20 BR1  UNL     1      22.571   2.185  47.515  1.00  0.00    -0.051 Br
HETATM   21  C18 UNL     1      20.643   1.230  49.611  1.00  0.00     0.003 A 
ENDBRANCH  15  16
BRANCH   1  22
HETATM   22  O1  UNL     1      25.865  -0.349  53.244  1.00  0.00    -0.356 OA
HETATM   23  C1  UNL     1      26.844  -0.111  52.285  1.00  0.00     0.210 C 
ENDBRANCH   1  22
TORSDOF 2
ENDMDL
MODEL 8
REMARK VINA RESULT:      -7.4      3.822      5.456
REMARK  2 active torsions:
REMARK  status: ('A' for Active; 'I' for Inactive)
REMARK    1  A    between atoms: O1_2  and  C2_3 
REMARK    2  A    between atoms: C13_17  and  C14_18 
ROOT
HETATM    1  C2  UNL     1      26.849   5.299  48.855  1.00  0.00     0.069 A 
HETATM    2  C3  UNL     1      27.167   4.059  49.338  1.00  0.00     0.037 A 
HETATM    3  C4  UNL     1      26.407   3.234  50.120  1.00  0.00     0.017 A 
HETATM    4  C5  UNL     1      25.196   3.773  50.419  1.00  0.00     0.001 A 
HETATM    5  C6  UNL     1      24.787   5.052  49.963  1.00  0.00    -0.021 A 
HETATM    6  C7  UNL     1      25.617   5.812  49.179  1.00  0.00     0.049 A 
HETATM    7  C8  UNL     1      23.461   5.411  50.500  1.00  0.00     0.019 C 
HETATM    8  C9  UNL     1      22.552   6.038  51.208  1.00  0.00     0.047 C 
HETATM    9  S1  UNL     1      20.981   5.205  50.763  1.00  0.00    -0.120 SA
HETATM   10  C10 UNL     1      20.927   3.802  51.959  1.00  0.00     0.223 C 
HETATM   11  N1  UNL     1      22.088   2.971  51.690  1.00  0.00    -0.290 N 
HETATM   12  N2  UNL     1      23.323   3.630  51.946  1.00  0.00    -0.180 NA
HETATM   13  C11 UNL     1      24.189   3.024  51.208  1.00  0.00     0.067 C 
HETATM   14  C12 UNL     1      23.890   1.581  51.349  1.00  0.00     0.090 C 
HETATM   15  C13 UNL     1      22.351   1.616  51.248  1.00  0.00     0.122 C 
ENDROOT
BRANCH  15  16
HETATM   16  C14 UNL     1      21.969   1.302  49.859  1.00  0.00     0.057 A 
HETATM   17  C15 UNL     1      20.512   1.357  49.596  1.00  0.00    -0.015 A 
HETATM   18  C16 UNL     1      20.268   2.120  48.542  1.00  0.00     0.015 A 
HETATM   19  C17 UNL     1      21.547   2.627  48.028  1.00  0.00     0.007 A 
HETATM   20 BR1  UNL     1      21.522   3.772  46.489  1.00  0.00    -0.051 Br
HETATM   21  C18 UNL     1      22.526   2.143  48.804  1.00  0.00     0.003 A 
ENDBRANCH  15  16
BRANCH   1  22
HETATM   22  O1  UNL     1      27.569   6.163  48.072  1.00  0.00    -0.356 OA
HETATM   23  C1  UNL     1      28.936   6.415  48.116  1.00  0.00     0.210 C 
ENDBRANCH   1  22
TORSDOF 2
ENDMDL
MODEL 9
REMARK VINA RESULT:      -7.3      3.576      5.263
REMARK  2 active torsions:
REMARK  status: ('A' for Active; 'I' for Inactive)
REMARK    1  A    between atoms: O1_2  and  C2_3 
REMARK    2  A    between atoms: C13_17  and  C14_18 
ROOT
HETATM    1  C2  UNL     1      19.346  -0.216  52.742  1.00  0.00     0.069 A 
HETATM    2  C3  UNL     1      20.291   0.009  53.706  1.00  0.00     0.037 A 
HETATM    3  C4  UNL     1      21.502   0.630  53.577  1.00  0.00     0.017 A 
HETATM    4  C5  UNL     1      21.736   1.052  52.306  1.00  0.00     0.001 A 
HETATM    5  C6  UNL     1      20.814   0.856  51.246  1.00  0.00    -0.021 A 
HETATM    6  C7  UNL     1      19.618   0.222  51.470  1.00  0.00     0.049 A 
HETATM    7  C8  UNL     1      21.361   1.345  49.966  1.00  0.00     0.019 C 
HETATM    8  C9  UNL     1      21.844   1.319  48.748  1.00  0.00     0.047 C 
HETATM    9  S1  UNL     1      22.165   3.079  48.351  1.00  0.00    -0.120 SA
HETATM   10  C10 UNL     1      23.870   3.326  49.009  1.00  0.00     0.223 C 
HETATM   11  N1  UNL     1      23.812   3.084  50.441  1.00  0.00    -0.290 N 
HETATM   12  N2  UNL     1      23.477   1.741  50.771  1.00  0.00    -0.180 NA
HETATM   13  C11 UNL     1      22.965   1.801  51.953  1.00  0.00     0.067 C 
HETATM   14  C12 UNL     1      23.834   2.728  52.714  1.00  0.00     0.090 C 
HETATM   15  C13 UNL     1      24.029   3.837  51.659  1.00  0.00     0.122 C 
ENDROOT
BRANCH  15  16
HETATM   16  C14 UNL     1      23.062   4.916  51.935  1.00  0.00     0.057 A 
HETATM   17  C15 UNL     1      23.472   6.249  51.435  1.00  0.00    -0.015 A 
HETATM   18  C16 UNL     1      22.499   6.784  50.714  1.00  0.00     0.015 A 
HETATM   19  C17 UNL     1      21.373   5.844  50.682  1.00  0.00     0.007 A 
HETATM   20 BR1  UNL     1      19.797   6.340  49.705  1.00  0.00    -0.051 Br
HETATM   21  C18 UNL     1      21.715   4.763  51.396  1.00  0.00     0.003 A 
ENDBRANCH  15  16
BRANCH   1  22
HETATM   22  O1  UNL     1      18.123  -0.829  52.817  1.00  0.00    -0.356 OA
HETATM   23  C1  UNL     1      17.794  -1.991  53.507  1.00  0.00     0.210 C 
ENDBRANCH   1  22
TORSDOF 2
ENDMDL
