MODEL 1
REMARK VINA RESULT:      -7.2      0.000      0.000
REMARK  5 active torsions:
REMARK  status: ('A' for Active; 'I' for Inactive)
REMARK    1  A    between atoms: O1_3  and  C3_4 
REMARK    2  A    between atoms: C8_11  and  N3_12 
REMARK    3  A    between atoms: N3_12  and  C9_13 
REMARK    4  A    between atoms: C9_13  and  C10_14 
REMARK    5  A    between atoms: C11_15  and  C12_16 
ROOT
HETATM    1  C1  UNL     1      29.823  -0.413  53.825  1.00  0.00     0.045 C 
HETATM    2  C2  UNL     1      28.893   0.320  54.136  1.00  0.00     0.049 C 
HETATM    3  O1  UNL     1      27.879   1.148  54.494  1.00  0.00    -0.262 OA
ENDROOT
BRANCH   3   4
HETATM    4  C3  UNL     1      26.587   0.970  54.019  1.00  0.00     0.088 A 
HETATM    5  C4  UNL     1      25.904  -0.178  54.368  1.00  0.00     0.040 A 
HETATM    6  C5  UNL     1      24.618  -0.375  53.907  1.00  0.00     0.035 A 
HETATM    7  C6  UNL     1      24.045   0.587  53.103  1.00  0.00     0.072 A 
HETATM    8  N1  UNL     1      22.773   0.394  52.646  1.00  0.00    -0.241 NA
HETATM    9  C14 UNL     1      24.682   1.747  52.726  1.00  0.00     0.041 A 
HETATM   10  C7  UNL     1      22.230   1.355  51.857  1.00  0.00     0.235 A 
HETATM   11  N2  UNL     1      22.886   2.470  51.514  1.00  0.00    -0.224 NA
HETATM   12  C8  UNL     1      24.133   2.725  51.925  1.00  0.00     0.137 A 
HETATM   13  C15 UNL     1      25.958   1.897  53.210  1.00  0.00     0.055 A 
BRANCH  12  14
HETATM   14  N3  UNL     1      24.826   3.924  51.550  1.00  0.00    -0.371 N 
HETATM   15  H5  UNL     1      25.206   4.620  52.218  1.00  0.00     0.161 HD
BRANCH  14  16
HETATM   16  C9  UNL     1      24.981   4.138  50.113  1.00  0.00     0.148 C 
BRANCH  16  17
HETATM   17  C10 UNL     1      26.291   3.567  49.726  1.00  0.00    -0.008 C 
HETATM   18  C11 UNL     1      27.149   4.333  49.073  1.00  0.00    -0.005 C 
BRANCH  18  19
HETATM   19  C12 UNL     1      26.691   5.690  48.804  1.00  0.00    -0.010 C 
HETATM   20  C13 UNL     1      27.369   6.676  48.246  1.00  0.00     0.206 C 
HETATM   21 BR1  UNL     1      29.089   7.008  47.521  1.00  0.00    -0.193 Br
ENDBRANCH  18  19
ENDBRANCH  16  17
ENDBRANCH  14  16
ENDBRANCH  12  14
ENDBRANCH   3   4
TORSDOF 5
ENDMDL
MODEL 2
REMARK VINA RESULT:      -7.0      3.494      5.051
REMARK  5 active torsions:
REMARK  status: ('A' for Active; 'I' for Inactive)
REMARK    1  A    between atoms: O1_3  and  C3_4 
REMARK    2  A    between atoms: C8_11  and  N3_12 
REMARK    3  A    between atoms: N3_12  and  C9_13 
REMARK    4  A    between atoms: C9_13  and  C10_14 
REMARK    5  A    between atoms: C11_15  and  C12_16 
ROOT
HETATM    1  C1  UNL     1      21.013  -0.228  54.213  1.00  0.00     0.045 C 
HETATM    2  C2  UNL     1      22.072  -0.523  53.674  1.00  0.00     0.049 C 
HETATM    3  O1  UNL     1      23.232  -0.864  53.059  1.00  0.00    -0.262 OA
ENDROOT
BRANCH   3   4
HETATM    4  C3  UNL     1      24.449  -0.313  53.435  1.00  0.00     0.088 A 
HETATM    5  C4  UNL     1      24.963  -0.627  54.677  1.00  0.00     0.040 A 
HETATM    6  C5  UNL     1      26.172  -0.090  55.072  1.00  0.00     0.035 A 
HETATM    7  C6  UNL     1      26.840   0.753  54.208  1.00  0.00     0.072 A 
HETATM    8  N1  UNL     1      28.036   1.284  54.597  1.00  0.00    -0.241 NA
HETATM    9  C14 UNL     1      26.371   1.096  52.961  1.00  0.00     0.041 A 
HETATM   10  C7  UNL     1      28.674   2.110  53.730  1.00  0.00     0.235 A 
HETATM   11  N2  UNL     1      28.182   2.418  52.524  1.00  0.00    -0.224 NA
HETATM   12  C8  UNL     1      27.017   1.934  52.078  1.00  0.00     0.137 A 
HETATM   13  C15 UNL     1      25.166   0.537  52.615  1.00  0.00     0.055 A 
BRANCH  12  14
HETATM   14  N3  UNL     1      26.500   2.273  50.784  1.00  0.00    -0.371 N 
HETATM   15  H5  UNL     1      26.684   1.738  49.916  1.00  0.00     0.161 HD
BRANCH  14  16
HETATM   16  C9  UNL     1      25.660   3.469  50.735  1.00  0.00     0.148 C 
BRANCH  16  17
HETATM   17  C10 UNL     1      24.587   3.207  49.749  1.00  0.00    -0.008 C 
HETATM   18  C11 UNL     1      23.335   3.458  50.092  1.00  0.00    -0.005 C 
BRANCH  18  19
HETATM   19  C12 UNL     1      23.153   3.979  51.441  1.00  0.00    -0.010 C 
HETATM   20  C13 UNL     1      22.104   3.833  52.229  1.00  0.00     0.206 C 
HETATM   21 BR1  UNL     1      20.396   3.008  52.212  1.00  0.00    -0.193 Br
ENDBRANCH  18  19
ENDBRANCH  16  17
ENDBRANCH  14  16
ENDBRANCH  12  14
ENDBRANCH   3   4
TORSDOF 5
ENDMDL
MODEL 3
REMARK VINA RESULT:      -6.8      2.641      4.635
REMARK  5 active torsions:
REMARK  status: ('A' for Active; 'I' for Inactive)
REMARK    1  A    between atoms: O1_3  and  C3_4 
REMARK    2  A    between atoms: C8_11  and  N3_12 
REMARK    3  A    between atoms: N3_12  and  C9_13 
REMARK    4  A    between atoms: C9_13  and  C10_14 
REMARK    5  A    between atoms: C11_15  and  C12_16 
ROOT
HETATM    1  C1  UNL     1      19.543   0.642  51.037  1.00  0.00     0.045 C 
HETATM    2  C2  UNL     1      19.874   0.189  52.126  1.00  0.00     0.049 C 
HETATM    3  O1  UNL     1      20.217  -0.318  53.336  1.00  0.00    -0.262 OA
ENDROOT
BRANCH   3   4
HETATM    4  C3  UNL     1      21.543  -0.457  53.724  1.00  0.00     0.088 A 
HETATM    5  C4  UNL     1      21.831  -1.220  54.837  1.00  0.00     0.040 A 
HETATM    6  C5  UNL     1      23.143  -1.371  55.240  1.00  0.00     0.035 A 
HETATM    7  C6  UNL     1      24.138  -0.751  54.514  1.00  0.00     0.072 A 
HETATM    8  N1  UNL     1      25.436  -0.901  54.911  1.00  0.00    -0.241 NA
HETATM    9  C14 UNL     1      23.903   0.019  53.399  1.00  0.00     0.041 A 
HETATM   10  C7  UNL     1      26.397  -0.281  54.181  1.00  0.00     0.235 A 
HETATM   11  N2  UNL     1      26.124   0.460  53.100  1.00  0.00    -0.224 NA
HETATM   12  C8  UNL     1      24.877   0.648  52.654  1.00  0.00     0.137 A 
HETATM   13  C15 UNL     1      22.584   0.139  53.038  1.00  0.00     0.055 A 
BRANCH  12  14
HETATM   14  N3  UNL     1      24.598   1.446  51.495  1.00  0.00    -0.371 N 
HETATM   15  H5  UNL     1      24.062   1.121  50.670  1.00  0.00     0.161 HD
BRANCH  14  16
HETATM   16  C9  UNL     1      25.130   2.807  51.525  1.00  0.00     0.148 C 
BRANCH  16  17
HETATM   17  C10 UNL     1      24.323   3.611  50.578  1.00  0.00    -0.008 C 
HETATM   18  C11 UNL     1      24.902   4.073  49.483  1.00  0.00    -0.005 C 
BRANCH  18  19
HETATM   19  C12 UNL     1      26.310   3.726  49.331  1.00  0.00    -0.010 C 
HETATM   20  C13 UNL     1      27.300   4.512  48.952  1.00  0.00     0.206 C 
HETATM   21 BR1  UNL     1      27.586   6.311  48.426  1.00  0.00    -0.193 Br
ENDBRANCH  18  19
ENDBRANCH  16  17
ENDBRANCH  14  16
ENDBRANCH  12  14
ENDBRANCH   3   4
TORSDOF 5
ENDMDL
MODEL 4
REMARK VINA RESULT:      -6.8      1.705      2.043
REMARK  5 active torsions:
REMARK  status: ('A' for Active; 'I' for Inactive)
REMARK    1  A    between atoms: O1_3  and  C3_4 
REMARK    2  A    between atoms: C8_11  and  N3_12 
REMARK    3  A    between atoms: N3_12  and  C9_13 
REMARK    4  A    between atoms: C9_13  and  C10_14 
REMARK    5  A    between atoms: C11_15  and  C12_16 
ROOT
HETATM    1  C1  UNL     1      26.963  -1.768  52.331  1.00  0.00     0.045 C 
HETATM    2  C2  UNL     1      26.155  -1.284  53.114  1.00  0.00     0.049 C 
HETATM    3  O1  UNL     1      25.275  -0.756  54.001  1.00  0.00    -0.262 OA
ENDROOT
BRANCH   3   4
HETATM    4  C3  UNL     1      24.214   0.041  53.593  1.00  0.00     0.088 A 
HETATM    5  C4  UNL     1      22.927  -0.394  53.835  1.00  0.00     0.040 A 
HETATM    6  C5  UNL     1      21.857   0.383  53.437  1.00  0.00     0.035 A 
HETATM    7  C6  UNL     1      22.104   1.583  52.804  1.00  0.00     0.072 A 
HETATM    8  N1  UNL     1      21.047   2.353  52.411  1.00  0.00    -0.241 NA
HETATM    9  C14 UNL     1      23.367   2.061  52.540  1.00  0.00     0.041 A 
HETATM   10  C7  UNL     1      21.317   3.529  51.790  1.00  0.00     0.235 A 
HETATM   11  N2  UNL     1      22.562   3.956  51.552  1.00  0.00    -0.224 NA
HETATM   12  C8  UNL     1      23.644   3.255  51.910  1.00  0.00     0.137 A 
HETATM   13  C15 UNL     1      24.397   1.253  52.954  1.00  0.00     0.055 A 
BRANCH  12  14
HETATM   14  N3  UNL     1      24.974   3.724  51.648  1.00  0.00    -0.371 N 
HETATM   15  H5  UNL     1      25.758   3.684  52.325  1.00  0.00     0.161 HD
BRANCH  14  16
HETATM   16  C9  UNL     1      25.190   4.294  50.320  1.00  0.00     0.148 C 
BRANCH  16  17
HETATM   17  C10 UNL     1      26.392   3.639  49.755  1.00  0.00    -0.008 C 
HETATM   18  C11 UNL     1      27.191   4.344  48.973  1.00  0.00    -0.005 C 
BRANCH  18  19
HETATM   19  C12 UNL     1      26.784   5.727  48.753  1.00  0.00    -0.010 C 
HETATM   20  C13 UNL     1      27.507   6.713  48.255  1.00  0.00     0.206 C 
HETATM   21 BR1  UNL     1      29.256   7.019  47.588  1.00  0.00    -0.193 Br
ENDBRANCH  18  19
ENDBRANCH  16  17
ENDBRANCH  14  16
ENDBRANCH  12  14
ENDBRANCH   3   4
TORSDOF 5
ENDMDL
MODEL 5
REMARK VINA RESULT:      -6.7      4.033      5.941
REMARK  5 active torsions:
REMARK  status: ('A' for Active; 'I' for Inactive)
REMARK    1  A    between atoms: O1_3  and  C3_4 
REMARK    2  A    between atoms: C8_11  and  N3_12 
REMARK    3  A    between atoms: N3_12  and  C9_13 
REMARK    4  A    between atoms: C9_13  and  C10_14 
REMARK    5  A    between atoms: C11_15  and  C12_16 
ROOT
HETATM    1  C1  UNL     1      22.878   2.342  49.092  1.00  0.00     0.045 C 
HETATM    2  C2  UNL     1      22.017   1.925  49.857  1.00  0.00     0.049 C 
HETATM    3  O1  UNL     1      21.046   1.471  50.687  1.00  0.00    -0.262 OA
ENDROOT
BRANCH   3   4
HETATM    4  C3  UNL     1      21.342   0.733  51.826  1.00  0.00     0.088 A 
HETATM    5  C4  UNL     1      20.307   0.133  52.514  1.00  0.00     0.040 A 
HETATM    6  C5  UNL     1      20.579  -0.605  53.649  1.00  0.00     0.035 A 
HETATM    7  C6  UNL     1      21.888  -0.723  54.069  1.00  0.00     0.072 A 
HETATM    8  N1  UNL     1      22.158  -1.453  55.190  1.00  0.00    -0.241 NA
HETATM    9  C14 UNL     1      22.953  -0.145  53.419  1.00  0.00     0.041 A 
HETATM   10  C7  UNL     1      23.453  -1.555  55.583  1.00  0.00     0.235 A 
HETATM   11  N2  UNL     1      24.461  -0.975  54.920  1.00  0.00    -0.224 NA
HETATM   12  C8  UNL     1      24.269  -0.247  53.815  1.00  0.00     0.137 A 
HETATM   13  C15 UNL     1      22.632   0.578  52.296  1.00  0.00     0.055 A 
BRANCH  12  14
HETATM   14  N3  UNL     1      25.358   0.369  53.114  1.00  0.00    -0.371 N 
HETATM   15  H5  UNL     1      25.696   0.082  52.177  1.00  0.00     0.161 HD
BRANCH  14  16
HETATM   16  C9  UNL     1      26.008   1.478  53.811  1.00  0.00     0.148 C 
BRANCH  16  17
HETATM   17  C10 UNL     1      26.941   2.110  52.850  1.00  0.00    -0.008 C 
HETATM   18  C11 UNL     1      28.238   2.072  53.106  1.00  0.00    -0.005 C 
BRANCH  18  19
HETATM   19  C12 UNL     1      28.609   1.391  54.340  1.00  0.00    -0.010 C 
HETATM   20  C13 UNL     1      29.043   0.152  54.481  1.00  0.00     0.206 C 
HETATM   21 BR1  UNL     1      29.433  -1.364  53.411  1.00  0.00    -0.193 Br
ENDBRANCH  18  19
ENDBRANCH  16  17
ENDBRANCH  14  16
ENDBRANCH  12  14
ENDBRANCH   3   4
TORSDOF 5
ENDMDL
MODEL 6
REMARK VINA RESULT:      -6.7      2.420      3.450
REMARK  5 active torsions:
REMARK  status: ('A' for Active; 'I' for Inactive)
REMARK    1  A    between atoms: O1_3  and  C3_4 
REMARK    2  A    between atoms: C8_11  and  N3_12 
REMARK    3  A    between atoms: N3_12  and  C9_13 
REMARK    4  A    between atoms: C9_13  and  C10_14 
REMARK    5  A    between atoms: C11_15  and  C12_16 
ROOT
HETATM    1  C1  UNL     1      26.749  -0.390  52.226  1.00  0.00     0.045 C 
HETATM    2  C2  UNL     1      25.944  -0.535  53.138  1.00  0.00     0.049 C 
HETATM    3  O1  UNL     1      25.071  -0.695  54.164  1.00  0.00    -0.262 OA
ENDROOT
BRANCH   3   4
HETATM    4  C3  UNL     1      23.697  -0.661  53.968  1.00  0.00     0.088 A 
HETATM    5  C4  UNL     1      22.877  -1.210  54.933  1.00  0.00     0.040 A 
HETATM    6  C5  UNL     1      21.507  -1.187  54.759  1.00  0.00     0.035 A 
HETATM    7  C6  UNL     1      20.991  -0.612  53.617  1.00  0.00     0.072 A 
HETATM    8  N1  UNL     1      19.637  -0.588  53.444  1.00  0.00    -0.241 NA
HETATM    9  C14 UNL     1      21.765  -0.052  52.627  1.00  0.00     0.041 A 
HETATM   10  C7  UNL     1      19.153  -0.017  52.311  1.00  0.00     0.235 A 
HETATM   11  N2  UNL     1      19.943   0.517  51.372  1.00  0.00    -0.224 NA
HETATM   12  C8  UNL     1      21.276   0.529  51.476  1.00  0.00     0.137 A 
HETATM   13  C15 UNL     1      23.120  -0.099  52.846  1.00  0.00     0.055 A 
BRANCH  12  14
HETATM   14  N3  UNL     1      22.112   1.104  50.462  1.00  0.00    -0.371 N 
HETATM   15  H5  UNL     1      22.573   0.569  49.703  1.00  0.00     0.161 HD
BRANCH  14  16
HETATM   16  C9  UNL     1      22.298   2.551  50.545  1.00  0.00     0.148 C 
BRANCH  16  17
HETATM   17  C10 UNL     1      22.584   3.033  49.175  1.00  0.00    -0.008 C 
HETATM   18  C11 UNL     1      23.823   3.381  48.870  1.00  0.00    -0.005 C 
BRANCH  18  19
HETATM   19  C12 UNL     1      24.791   3.243  49.951  1.00  0.00    -0.010 C 
HETATM   20  C13 UNL     1      26.024   3.712  49.997  1.00  0.00     0.206 C 
HETATM   21 BR1  UNL     1      27.223   4.711  48.919  1.00  0.00    -0.193 Br
ENDBRANCH  18  19
ENDBRANCH  16  17
ENDBRANCH  14  16
ENDBRANCH  12  14
ENDBRANCH   3   4
TORSDOF 5
ENDMDL
MODEL 7
REMARK VINA RESULT:      -6.6      2.709      3.025
REMARK  5 active torsions:
REMARK  status: ('A' for Active; 'I' for Inactive)
REMARK    1  A    between atoms: O1_3  and  C3_4 
REMARK    2  A    between atoms: C8_11  and  N3_12 
REMARK    3  A    between atoms: N3_12  and  C9_13 
REMARK    4  A    between atoms: C9_13  and  C10_14 
REMARK    5  A    between atoms: C11_15  and  C12_16 
ROOT
HETATM    1  C1  UNL     1      29.795  -0.295  53.723  1.00  0.00     0.045 C 
HETATM    2  C2  UNL     1      28.850   0.380  54.112  1.00  0.00     0.049 C 
HETATM    3  O1  UNL     1      27.820   1.143  54.555  1.00  0.00    -0.262 OA
ENDROOT
BRANCH   3   4
HETATM    4  C3  UNL     1      26.513   0.916  54.149  1.00  0.00     0.088 A 
HETATM    5  C4  UNL     1      25.977  -0.346  54.314  1.00  0.00     0.040 A 
HETATM    6  C5  UNL     1      24.679  -0.595  53.916  1.00  0.00     0.035 A 
HETATM    7  C6  UNL     1      23.945   0.432  53.360  1.00  0.00     0.072 A 
HETATM    8  N1  UNL     1      22.660   0.187  52.967  1.00  0.00    -0.241 NA
HETATM    9  C14 UNL     1      24.432   1.705  53.174  1.00  0.00     0.041 A 
HETATM   10  C7  UNL     1      21.959   1.213  52.423  1.00  0.00     0.235 A 
HETATM   11  N2  UNL     1      22.471   2.438  52.259  1.00  0.00    -0.224 NA
HETATM   12  C8  UNL     1      23.721   2.749  52.622  1.00  0.00     0.137 A 
HETATM   13  C15 UNL     1      25.727   1.902  53.585  1.00  0.00     0.055 A 
BRANCH  12  14
HETATM   14  N3  UNL     1      24.259   4.066  52.441  1.00  0.00    -0.371 N 
HETATM   15  H5  UNL     1      24.425   4.747  53.204  1.00  0.00     0.161 HD
BRANCH  14  16
HETATM   16  C9  UNL     1      24.580   4.431  51.062  1.00  0.00     0.148 C 
BRANCH  16  17
HETATM   17  C10 UNL     1      23.426   5.191  50.532  1.00  0.00    -0.008 C 
HETATM   18  C11 UNL     1      22.847   4.772  49.419  1.00  0.00    -0.005 C 
BRANCH  18  19
HETATM   19  C12 UNL     1      23.430   3.574  48.828  1.00  0.00    -0.010 C 
HETATM   20  C13 UNL     1      22.830   2.428  48.565  1.00  0.00     0.206 C 
HETATM   21 BR1  UNL     1      21.115   1.635  48.722  1.00  0.00    -0.193 Br
ENDBRANCH  18  19
ENDBRANCH  16  17
ENDBRANCH  14  16
ENDBRANCH  12  14
ENDBRANCH   3   4
TORSDOF 5
ENDMDL
MODEL 8
REMARK VINA RESULT:      -6.6      2.627      4.361
REMARK  5 active torsions:
REMARK  status: ('A' for Active; 'I' for Inactive)
REMARK    1  A    between atoms: O1_3  and  C3_4 
REMARK    2  A    between atoms: C8_11  and  N3_12 
REMARK    3  A    between atoms: N3_12  and  C9_13 
REMARK    4  A    between atoms: C9_13  and  C10_14 
REMARK    5  A    between atoms: C11_15  and  C12_16 
ROOT
HETATM    1  C1  UNL     1      21.935   1.981  50.114  1.00  0.00     0.045 C 
HETATM    2  C2  UNL     1      22.220   1.413  51.161  1.00  0.00     0.049 C 
HETATM    3  O1  UNL     1      22.510   0.778  52.324  1.00  0.00    -0.262 OA
ENDROOT
BRANCH   3   4
HETATM    4  C3  UNL     1      23.819   0.585  52.745  1.00  0.00     0.088 A 
HETATM    5  C4  UNL     1      24.099  -0.490  53.565  1.00  0.00     0.040 A 
HETATM    6  C5  UNL     1      25.393  -0.701  53.996  1.00  0.00     0.035 A 
HETATM    7  C6  UNL     1      26.381   0.173  53.592  1.00  0.00     0.072 A 
HETATM    8  N1  UNL     1      27.661  -0.036  54.017  1.00  0.00    -0.241 NA
HETATM    9  C14 UNL     1      26.153   1.257  52.777  1.00  0.00     0.041 A 
HETATM   10  C7  UNL     1      28.615   0.839  53.606  1.00  0.00     0.235 A 
HETATM   11  N2  UNL     1      28.350   1.882  52.811  1.00  0.00    -0.224 NA
HETATM   12  C8  UNL     1      27.120   2.146  52.358  1.00  0.00     0.137 A 
HETATM   13  C15 UNL     1      24.851   1.425  52.375  1.00  0.00     0.055 A 
BRANCH  12  14
HETATM   14  N3  UNL     1      26.849   3.269  51.507  1.00  0.00    -0.371 N 
HETATM   15  H5  UNL     1      26.886   4.260  51.807  1.00  0.00     0.161 HD
BRANCH  14  16
HETATM   16  C9  UNL     1      26.500   2.942  50.125  1.00  0.00     0.148 C 
BRANCH  16  17
HETATM   17  C10 UNL     1      26.876   4.108  49.293  1.00  0.00    -0.008 C 
HETATM   18  C11 UNL     1      25.933   4.964  48.938  1.00  0.00    -0.005 C 
BRANCH  18  19
HETATM   19  C12 UNL     1      24.595   4.651  49.423  1.00  0.00    -0.010 C 
HETATM   20  C13 UNL     1      23.781   5.432  50.109  1.00  0.00     0.206 C 
HETATM   21 BR1  UNL     1      23.740   7.184  50.833  1.00  0.00    -0.193 Br
ENDBRANCH  18  19
ENDBRANCH  16  17
ENDBRANCH  14  16
ENDBRANCH  12  14
ENDBRANCH   3   4
TORSDOF 5
ENDMDL
MODEL 9
REMARK VINA RESULT:      -6.5      2.238      4.060
REMARK  5 active torsions:
REMARK  status: ('A' for Active; 'I' for Inactive)
REMARK    1  A    between atoms: O1_3  and  C3_4 
REMARK    2  A    between atoms: C8_11  and  N3_12 
REMARK    3  A    between atoms: N3_12  and  C9_13 
REMARK    4  A    between atoms: C9_13  and  C10_14 
REMARK    5  A    between atoms: C11_15  and  C12_16 
ROOT
HETATM    1  C1  UNL     1      20.725   1.088  50.409  1.00  0.00     0.045 C 
HETATM    2  C2  UNL     1      21.211   0.578  51.411  1.00  0.00     0.049 C 
HETATM    3  O1  UNL     1      21.727   0.002  52.526  1.00  0.00    -0.262 OA
ENDROOT
BRANCH   3   4
HETATM    4  C3  UNL     1      23.068   0.128  52.861  1.00  0.00     0.088 A 
HETATM    5  C4  UNL     1      23.546  -0.567  53.953  1.00  0.00     0.040 A 
HETATM    6  C5  UNL     1      24.877  -0.456  54.305  1.00  0.00     0.035 A 
HETATM    7  C6  UNL     1      25.699   0.353  53.550  1.00  0.00     0.072 A 
HETATM    8  N1  UNL     1      27.016   0.463  53.896  1.00  0.00    -0.241 NA
HETATM    9  C14 UNL     1      25.272   1.066  52.454  1.00  0.00     0.041 A 
HETATM   10  C7  UNL     1      27.805   1.265  53.137  1.00  0.00     0.235 A 
HETATM   11  N2  UNL     1      27.348   1.942  52.077  1.00  0.00    -0.224 NA
HETATM   12  C8  UNL     1      26.072   1.880  51.681  1.00  0.00     0.137 A 
HETATM   13  C15 UNL     1      23.942   0.923  52.144  1.00  0.00     0.055 A 
BRANCH  12  14
HETATM   14  N3  UNL     1      25.594   2.612  50.543  1.00  0.00    -0.371 N 
HETATM   15  H5  UNL     1      24.622   2.578  50.185  1.00  0.00     0.161 HD
BRANCH  14  16
HETATM   16  C9  UNL     1      26.586   3.450  49.872  1.00  0.00     0.148 C 
BRANCH  16  17
HETATM   17  C10 UNL     1      25.929   4.740  49.562  1.00  0.00    -0.008 C 
HETATM   18  C11 UNL     1      26.602   5.645  48.872  1.00  0.00    -0.005 C 
BRANCH  18  19
HETATM   19  C12 UNL     1      27.952   5.255  48.485  1.00  0.00    -0.010 C 
HETATM   20  C13 UNL     1      28.922   6.033  48.041  1.00  0.00     0.206 C 
HETATM   21 BR1  UNL     1      29.234   7.862  47.652  1.00  0.00    -0.193 Br
ENDBRANCH  18  19
ENDBRANCH  16  17
ENDBRANCH  14  16
ENDBRANCH  12  14
ENDBRANCH   3   4
TORSDOF 5
ENDMDL
