MODEL 1
REMARK VINA RESULT:      -8.7      0.000      0.000
REMARK  3 active torsions:
REMARK  status: ('A' for Active; 'I' for Inactive)
REMARK    1  A    between atoms: C3_3  and  C4_4 
REMARK    2  A    between atoms: C8_9  and  N2_10 
REMARK    3  A    between atoms: N2_10  and  C9_11 
ROOT
HETATM    1  C4  UNL     1      20.162  -0.513  53.088  1.00  0.00     0.006 C 
HETATM    2  C5  UNL     1      21.205   0.006  52.467  1.00  0.00    -0.038 C 
HETATM    3  C6  UNL     1      22.575  -0.190  53.061  1.00  0.00     0.156 C 
HETATM    4  N1  UNL     1      23.297   1.073  53.053  1.00  0.00    -0.379 N 
HETATM    5  C7  UNL     1      23.620   1.796  51.851  1.00  0.00     0.128 A 
HETATM    6  C8  UNL     1      24.803   2.501  51.869  1.00  0.00     0.160 A 
HETATM    7  N3  UNL     1      25.080   3.185  50.759  1.00  0.00    -0.222 NA
HETATM    8  C15 UNL     1      24.342   3.254  49.648  1.00  0.00     0.238 A 
HETATM    9  N4  UNL     1      23.190   2.562  49.642  1.00  0.00    -0.216 NA
HETATM   10  C16 UNL     1      22.811   1.837  50.709  1.00  0.00     0.197 A 
HETATM   11  O1  UNL     1      21.598   1.240  50.413  1.00  0.00    -0.328 OA
HETATM   12  C17 UNL     1      20.664   0.685  51.283  1.00  0.00     0.213 C 
HETATM   13  H9  UNL     1      23.671   1.639  53.869  1.00  0.00     0.160 HD
ENDROOT
BRANCH   6  14
HETATM   14  N2  UNL     1      25.621   2.439  53.003  1.00  0.00    -0.339 N 
HETATM   15  H10 UNL     1      25.480   2.939  53.901  1.00  0.00     0.167 HD
BRANCH  14  16
HETATM   16  C9  UNL     1      26.801   1.681  53.240  1.00  0.00     0.035 A 
HETATM   17  C10 UNL     1      28.007   2.112  53.759  1.00  0.00     0.032 A 
HETATM   18  C11 UNL     1      29.102   1.311  53.965  1.00  0.00     0.046 A 
HETATM   19  C12 UNL     1      29.032  -0.025  53.644  1.00  0.00     0.138 A 
HETATM   20  F1  UNL     1      30.120  -0.801  53.853  1.00  0.00    -0.204 F 
HETATM   21  C13 UNL     1      27.842  -0.474  53.127  1.00  0.00     0.074 A 
HETATM   22 CL1  UNL     1      27.853  -2.202  52.746  1.00  0.00    -0.081 Cl
HETATM   23  C14 UNL     1      26.715   0.330  52.910  1.00  0.00     0.056 A 
ENDBRANCH  14  16
ENDBRANCH   6  14
BRANCH   1  24
HETATM   24  C3  UNL     1      18.736  -0.657  53.023  1.00  0.00    -0.004 C 
HETATM   25  C2  UNL     1      17.875  -1.595  53.311  1.00  0.00    -0.031 C 
HETATM   26  C1  UNL     1      17.785  -2.957  53.826  1.00  0.00     0.036 C 
ENDBRANCH   1  24
TORSDOF 3
ENDMDL
MODEL 2
REMARK VINA RESULT:      -8.4      2.492      3.930
REMARK  3 active torsions:
REMARK  status: ('A' for Active; 'I' for Inactive)
REMARK    1  A    between atoms: C3_3  and  C4_4 
REMARK    2  A    between atoms: C8_9  and  N2_10 
REMARK    3  A    between atoms: N2_10  and  C9_11 
ROOT
HETATM    1  C4  UNL     1      18.820   0.729  50.585  1.00  0.00     0.006 C 
HETATM    2  C5  UNL     1      19.691   0.580  51.566  1.00  0.00    -0.038 C 
HETATM    3  C6  UNL     1      20.964   1.386  51.536  1.00  0.00     0.156 C 
HETATM    4  N1  UNL     1      22.096   0.524  51.841  1.00  0.00    -0.379 N 
HETATM    5  C7  UNL     1      22.245  -0.178  53.088  1.00  0.00     0.128 A 
HETATM    6  C8  UNL     1      23.537  -0.349  53.536  1.00  0.00     0.160 A 
HETATM    7  N3  UNL     1      23.664  -1.020  54.680  1.00  0.00    -0.222 NA
HETATM    8  C15 UNL     1      22.684  -1.535  55.426  1.00  0.00     0.238 A 
HETATM    9  N4  UNL     1      21.428  -1.364  54.981  1.00  0.00    -0.216 NA
HETATM   10  C16 UNL     1      21.183  -0.701  53.837  1.00  0.00     0.197 A 
HETATM   11  O1  UNL     1      19.814  -0.681  53.637  1.00  0.00    -0.328 OA
HETATM   12  C17 UNL     1      19.107  -0.422  52.467  1.00  0.00     0.213 C 
HETATM   13  H9  UNL     1      22.934   0.276  51.240  1.00  0.00     0.160 HD
ENDROOT
BRANCH   6  14
HETATM   14  N2  UNL     1      24.594   0.196  52.798  1.00  0.00    -0.339 N 
HETATM   15  H10 UNL     1      24.522   0.836  51.984  1.00  0.00     0.167 HD
BRANCH  14  16
HETATM   16  C9  UNL     1      25.999   0.057  52.972  1.00  0.00     0.035 A 
HETATM   17  C10 UNL     1      26.762  -1.094  52.901  1.00  0.00     0.032 A 
HETATM   18  C11 UNL     1      28.122  -1.143  53.074  1.00  0.00     0.046 A 
HETATM   19  C12 UNL     1      28.812   0.017  53.338  1.00  0.00     0.138 A 
HETATM   20  F1  UNL     1      30.153  -0.049  53.506  1.00  0.00    -0.204 F 
HETATM   21  C13 UNL     1      28.073   1.171  53.412  1.00  0.00     0.074 A 
HETATM   22 CL1  UNL     1      29.051   2.606  53.755  1.00  0.00    -0.081 Cl
HETATM   23  C14 UNL     1      26.685   1.240  53.238  1.00  0.00     0.056 A 
ENDBRANCH  14  16
ENDBRANCH   6  14
BRANCH   1  24
HETATM   24  C3  UNL     1      17.545   0.286  50.099  1.00  0.00    -0.004 C 
HETATM   25  C2  UNL     1      16.517   0.846  49.521  1.00  0.00    -0.031 C 
HETATM   26  C1  UNL     1      16.027   2.133  49.039  1.00  0.00     0.036 C 
ENDBRANCH   1  24
TORSDOF 3
ENDMDL
MODEL 3
REMARK VINA RESULT:      -8.2      4.487      7.209
REMARK  3 active torsions:
REMARK  status: ('A' for Active; 'I' for Inactive)
REMARK    1  A    between atoms: C3_3  and  C4_4 
REMARK    2  A    between atoms: C8_9  and  N2_10 
REMARK    3  A    between atoms: N2_10  and  C9_11 
ROOT
HETATM    1  C4  UNL     1      26.922   0.397  52.260  1.00  0.00     0.006 C 
HETATM    2  C5  UNL     1      25.871   1.154  52.004  1.00  0.00    -0.038 C 
HETATM    3  C6  UNL     1      26.084   2.499  51.359  1.00  0.00     0.156 C 
HETATM    4  N1  UNL     1      25.296   3.506  52.053  1.00  0.00    -0.379 N 
HETATM    5  C7  UNL     1      23.860   3.469  52.140  1.00  0.00     0.128 A 
HETATM    6  C8  UNL     1      23.224   4.690  52.160  1.00  0.00     0.160 A 
HETATM    7  N3  UNL     1      21.896   4.643  52.265  1.00  0.00    -0.222 NA
HETATM    8  C15 UNL     1      21.131   3.552  52.349  1.00  0.00     0.238 A 
HETATM    9  N4  UNL     1      21.762   2.366  52.329  1.00  0.00    -0.216 NA
HETATM   10  C16 UNL     1      23.101   2.295  52.226  1.00  0.00     0.197 A 
HETATM   11  O1  UNL     1      23.461   0.959  52.229  1.00  0.00    -0.328 OA
HETATM   12  C17 UNL     1      24.709   0.392  52.476  1.00  0.00     0.213 C 
HETATM   13  H9  UNL     1      25.620   4.367  52.581  1.00  0.00     0.160 HD
ENDROOT
BRANCH   6  14
HETATM   14  N2  UNL     1      23.983   5.860  52.049  1.00  0.00    -0.339 N 
HETATM   15  H10 UNL     1      24.565   6.298  52.789  1.00  0.00     0.167 HD
BRANCH  14  16
HETATM   16  C9  UNL     1      24.185   6.718  50.933  1.00  0.00     0.035 A 
HETATM   17  C10 UNL     1      23.415   7.791  50.525  1.00  0.00     0.032 A 
HETATM   18  C11 UNL     1      23.685   8.578  49.435  1.00  0.00     0.046 A 
HETATM   19  C12 UNL     1      24.793   8.312  48.666  1.00  0.00     0.138 A 
HETATM   20  F1  UNL     1      25.045   9.098  47.594  1.00  0.00    -0.204 F 
HETATM   21  C13 UNL     1      25.573   7.250  49.054  1.00  0.00     0.074 A 
HETATM   22 CL1  UNL     1      26.972   6.990  48.003  1.00  0.00    -0.081 Cl
HETATM   23  C14 UNL     1      25.313   6.436  50.164  1.00  0.00     0.056 A 
ENDBRANCH  14  16
ENDBRANCH   6  14
BRANCH   1  24
HETATM   24  C3  UNL     1      27.326  -0.866  52.807  1.00  0.00    -0.004 C 
HETATM   25  C2  UNL     1      28.429  -1.365  53.295  1.00  0.00    -0.031 C 
HETATM   26  C1  UNL     1      29.820  -1.026  53.579  1.00  0.00     0.036 C 
ENDBRANCH   1  24
TORSDOF 3
ENDMDL
MODEL 4
REMARK VINA RESULT:      -8.1      5.082      7.368
REMARK  3 active torsions:
REMARK  status: ('A' for Active; 'I' for Inactive)
REMARK    1  A    between atoms: C3_3  and  C4_4 
REMARK    2  A    between atoms: C8_9  and  N2_10 
REMARK    3  A    between atoms: N2_10  and  C9_11 
ROOT
HETATM    1  C4  UNL     1      27.490   1.363  52.808  1.00  0.00     0.006 C 
HETATM    2  C5  UNL     1      26.466   2.018  52.293  1.00  0.00    -0.038 C 
HETATM    3  C6  UNL     1      26.537   2.461  50.854  1.00  0.00     0.156 C 
HETATM    4  N1  UNL     1      26.096   3.843  50.746  1.00  0.00    -0.379 N 
HETATM    5  C7  UNL     1      24.773   4.284  51.103  1.00  0.00     0.128 A 
HETATM    6  C8  UNL     1      24.261   5.325  50.360  1.00  0.00     0.160 A 
HETATM    7  N3  UNL     1      23.045   5.740  50.716  1.00  0.00    -0.222 NA
HETATM    8  C15 UNL     1      22.284   5.258  51.701  1.00  0.00     0.238 A 
HETATM    9  N4  UNL     1      22.793   4.243  52.419  1.00  0.00    -0.216 NA
HETATM   10  C16 UNL     1      24.012   3.744  52.148  1.00  0.00     0.197 A 
HETATM   11  O1  UNL     1      24.265   2.718  53.040  1.00  0.00    -0.328 OA
HETATM   12  C17 UNL     1      25.483   2.134  53.377  1.00  0.00     0.213 C 
HETATM   13  H9  UNL     1      26.633   4.697  50.419  1.00  0.00     0.160 HD
ENDROOT
BRANCH   6  14
HETATM   14  N2  UNL     1      25.014   5.846  49.301  1.00  0.00    -0.339 N 
HETATM   15  H10 UNL     1      24.928   5.601  48.296  1.00  0.00     0.167 HD
BRANCH  14  16
HETATM   16  C9  UNL     1      26.036   6.833  49.304  1.00  0.00     0.035 A 
HETATM   17  C10 UNL     1      26.139   7.959  50.100  1.00  0.00     0.032 A 
HETATM   18  C11 UNL     1      27.170   8.864  50.047  1.00  0.00     0.046 A 
HETATM   19  C12 UNL     1      28.193   8.671  49.149  1.00  0.00     0.138 A 
HETATM   20  F1  UNL     1      29.201   9.572  49.109  1.00  0.00    -0.204 F 
HETATM   21  C13 UNL     1      28.110   7.558  48.348  1.00  0.00     0.074 A 
HETATM   22 CL1  UNL     1      29.471   7.400  47.229  1.00  0.00    -0.081 Cl
HETATM   23  C14 UNL     1      27.067   6.625  48.389  1.00  0.00     0.056 A 
ENDBRANCH  14  16
ENDBRANCH   6  14
BRANCH   1  24
HETATM   24  C3  UNL     1      27.972   0.735  54.005  1.00  0.00    -0.004 C 
HETATM   25  C2  UNL     1      28.893  -0.142  54.297  1.00  0.00    -0.031 C 
HETATM   26  C1  UNL     1      29.924  -0.975  53.687  1.00  0.00     0.036 C 
ENDBRANCH   1  24
TORSDOF 3
ENDMDL
MODEL 5
REMARK VINA RESULT:      -8.1      4.824      7.453
REMARK  3 active torsions:
REMARK  status: ('A' for Active; 'I' for Inactive)
REMARK    1  A    between atoms: C3_3  and  C4_4 
REMARK    2  A    between atoms: C8_9  and  N2_10 
REMARK    3  A    between atoms: N2_10  and  C9_11 
ROOT
HETATM    1  C4  UNL     1      26.850   0.476  52.310  1.00  0.00     0.006 C 
HETATM    2  C5  UNL     1      25.793   1.219  52.041  1.00  0.00    -0.038 C 
HETATM    3  C6  UNL     1      26.000   2.592  51.455  1.00  0.00     0.156 C 
HETATM    4  N1  UNL     1      25.163   3.554  52.154  1.00  0.00    -0.379 N 
HETATM    5  C7  UNL     1      23.726   3.483  52.183  1.00  0.00     0.128 A 
HETATM    6  C8  UNL     1      23.061   4.689  52.222  1.00  0.00     0.160 A 
HETATM    7  N3  UNL     1      21.732   4.610  52.272  1.00  0.00    -0.222 NA
HETATM    8  C15 UNL     1      20.989   3.500  52.285  1.00  0.00     0.238 A 
HETATM    9  N4  UNL     1      21.647   2.329  52.246  1.00  0.00    -0.216 NA
HETATM   10  C16 UNL     1      22.991   2.291  52.195  1.00  0.00     0.197 A 
HETATM   11  O1  UNL     1      23.381   0.964  52.162  1.00  0.00    -0.328 OA
HETATM   12  C17 UNL     1      24.631   0.415  52.438  1.00  0.00     0.213 C 
HETATM   13  H9  UNL     1      25.446   4.402  52.726  1.00  0.00     0.160 HD
ENDROOT
BRANCH   6  14
HETATM   14  N2  UNL     1      23.798   5.879  52.185  1.00  0.00    -0.339 N 
HETATM   15  H10 UNL     1      24.280   6.337  52.981  1.00  0.00     0.167 HD
BRANCH  14  16
HETATM   16  C9  UNL     1      24.102   6.733  51.090  1.00  0.00     0.035 A 
HETATM   17  C10 UNL     1      25.296   6.855  50.403  1.00  0.00     0.032 A 
HETATM   18  C11 UNL     1      25.506   7.702  49.345  1.00  0.00     0.046 A 
HETATM   19  C12 UNL     1      24.479   8.505  48.907  1.00  0.00     0.138 A 
HETATM   20  F1  UNL     1      24.704   9.335  47.862  1.00  0.00    -0.204 F 
HETATM   21  C13 UNL     1      23.285   8.400  49.575  1.00  0.00     0.074 A 
HETATM   22 CL1  UNL     1      22.030   9.472  48.938  1.00  0.00    -0.081 Cl
HETATM   23  C14 UNL     1      23.052   7.540  50.657  1.00  0.00     0.056 A 
ENDBRANCH  14  16
ENDBRANCH   6  14
BRANCH   1  24
HETATM   24  C3  UNL     1      27.262  -0.798  52.826  1.00  0.00    -0.004 C 
HETATM   25  C2  UNL     1      28.379  -1.318  53.258  1.00  0.00    -0.031 C 
HETATM   26  C1  UNL     1      29.785  -1.000  53.480  1.00  0.00     0.036 C 
ENDBRANCH   1  24
TORSDOF 3
ENDMDL
MODEL 6
REMARK VINA RESULT:      -8.0      3.931      7.628
REMARK  3 active torsions:
REMARK  status: ('A' for Active; 'I' for Inactive)
REMARK    1  A    between atoms: C3_3  and  C4_4 
REMARK    2  A    between atoms: C8_9  and  N2_10 
REMARK    3  A    between atoms: N2_10  and  C9_11 
ROOT
HETATM    1  C4  UNL     1      26.714  -1.267  53.348  1.00  0.00     0.006 C 
HETATM    2  C5  UNL     1      25.882  -0.264  53.139  1.00  0.00    -0.038 C 
HETATM    3  C6  UNL     1      24.704  -0.093  54.064  1.00  0.00     0.156 C 
HETATM    4  N1  UNL     1      23.501   0.155  53.283  1.00  0.00    -0.379 N 
HETATM    5  C7  UNL     1      23.338   1.293  52.418  1.00  0.00     0.128 A 
HETATM    6  C8  UNL     1      22.059   1.794  52.312  1.00  0.00     0.160 A 
HETATM    7  N3  UNL     1      21.915   2.832  51.490  1.00  0.00    -0.222 NA
HETATM    8  C15 UNL     1      22.869   3.430  50.771  1.00  0.00     0.238 A 
HETATM    9  N4  UNL     1      24.112   2.934  50.881  1.00  0.00    -0.216 NA
HETATM   10  C16 UNL     1      24.372   1.887  51.683  1.00  0.00     0.197 A 
HETATM   11  O1  UNL     1      25.723   1.603  51.596  1.00  0.00    -0.328 OA
HETATM   12  C17 UNL     1      26.397   0.440  51.959  1.00  0.00     0.213 C 
HETATM   13  H9  UNL     1      22.612  -0.420  53.216  1.00  0.00     0.160 HD
ENDROOT
BRANCH   6  14
HETATM   14  N2  UNL     1      21.032   1.214  53.066  1.00  0.00    -0.339 N 
HETATM   15  H10 UNL     1      20.961   1.182  54.101  1.00  0.00     0.167 HD
BRANCH  14  16
HETATM   16  C9  UNL     1      19.839   0.566  52.643  1.00  0.00     0.035 A 
HETATM   17  C10 UNL     1      18.991   0.919  51.609  1.00  0.00     0.032 A 
HETATM   18  C11 UNL     1      17.858   0.231  51.257  1.00  0.00     0.046 A 
HETATM   19  C12 UNL     1      17.506  -0.898  51.961  1.00  0.00     0.138 A 
HETATM   20  F1  UNL     1      16.385  -1.564  51.601  1.00  0.00    -0.204 F 
HETATM   21  C13 UNL     1      18.335  -1.266  52.991  1.00  0.00     0.074 A 
HETATM   22 CL1  UNL     1      17.797  -2.727  53.832  1.00  0.00    -0.081 Cl
HETATM   23  C14 UNL     1      19.496  -0.576  53.364  1.00  0.00     0.056 A 
ENDBRANCH  14  16
ENDBRANCH   6  14
BRANCH   1  24
HETATM   24  C3  UNL     1      27.908  -1.894  52.859  1.00  0.00    -0.004 C 
HETATM   25  C2  UNL     1      29.190  -1.757  53.064  1.00  0.00    -0.031 C 
HETATM   26  C1  UNL     1      30.156  -0.975  53.828  1.00  0.00     0.036 C 
ENDBRANCH   1  24
TORSDOF 3
ENDMDL
MODEL 7
REMARK VINA RESULT:      -7.7      4.050      7.259
REMARK  3 active torsions:
REMARK  status: ('A' for Active; 'I' for Inactive)
REMARK    1  A    between atoms: C3_3  and  C4_4 
REMARK    2  A    between atoms: C8_9  and  N2_10 
REMARK    3  A    between atoms: N2_10  and  C9_11 
ROOT
HETATM    1  C4  UNL     1      28.301   1.073  53.082  1.00  0.00     0.006 C 
HETATM    2  C5  UNL     1      27.039   1.213  52.718  1.00  0.00    -0.038 C 
HETATM    3  C6  UNL     1      26.651   2.409  51.888  1.00  0.00     0.156 C 
HETATM    4  N1  UNL     1      25.441   3.009  52.430  1.00  0.00    -0.379 N 
HETATM    5  C7  UNL     1      24.183   2.316  52.517  1.00  0.00     0.128 A 
HETATM    6  C8  UNL     1      23.054   3.090  52.360  1.00  0.00     0.160 A 
HETATM    7  N3  UNL     1      21.894   2.442  52.466  1.00  0.00    -0.222 NA
HETATM    8  C15 UNL     1      21.716   1.140  52.702  1.00  0.00     0.238 A 
HETATM    9  N4  UNL     1      22.824   0.394  52.853  1.00  0.00    -0.216 NA
HETATM   10  C16 UNL     1      24.047   0.944  52.766  1.00  0.00     0.197 A 
HETATM   11  O1  UNL     1      24.983  -0.056  52.960  1.00  0.00    -0.328 OA
HETATM   12  C17 UNL     1      26.331   0.061  53.290  1.00  0.00     0.213 C 
HETATM   13  H9  UNL     1      25.293   3.980  52.831  1.00  0.00     0.160 HD
ENDROOT
BRANCH   6  14
HETATM   14  N2  UNL     1      23.193   4.456  52.087  1.00  0.00    -0.339 N 
HETATM   15  H10 UNL     1      23.025   5.243  52.742  1.00  0.00     0.167 HD
BRANCH  14  16
HETATM   16  C9  UNL     1      23.614   5.113  50.898  1.00  0.00     0.035 A 
HETATM   17  C10 UNL     1      23.515   4.670  49.592  1.00  0.00     0.032 A 
HETATM   18  C11 UNL     1      23.940   5.372  48.493  1.00  0.00     0.046 A 
HETATM   19  C12 UNL     1      24.512   6.611  48.663  1.00  0.00     0.138 A 
HETATM   20  F1  UNL     1      24.927   7.291  47.568  1.00  0.00    -0.204 F 
HETATM   21  C13 UNL     1      24.620   7.070  49.952  1.00  0.00     0.074 A 
HETATM   22 CL1  UNL     1      25.368   8.670  50.064  1.00  0.00    -0.081 Cl
HETATM   23  C14 UNL     1      24.191   6.367  51.085  1.00  0.00     0.056 A 
ENDBRANCH  14  16
ENDBRANCH   6  14
BRANCH   1  24
HETATM   24  C3  UNL     1      29.204   0.224  53.804  1.00  0.00    -0.004 C 
HETATM   25  C2  UNL     1      29.515  -1.043  53.787  1.00  0.00    -0.031 C 
HETATM   26  C1  UNL     1      29.198  -2.297  53.112  1.00  0.00     0.036 C 
ENDBRANCH   1  24
TORSDOF 3
ENDMDL
MODEL 8
REMARK VINA RESULT:      -7.6      5.029      7.412
REMARK  3 active torsions:
REMARK  status: ('A' for Active; 'I' for Inactive)
REMARK    1  A    between atoms: C3_3  and  C4_4 
REMARK    2  A    between atoms: C8_9  and  N2_10 
REMARK    3  A    between atoms: N2_10  and  C9_11 
ROOT
HETATM    1  C4  UNL     1      26.816   0.547  51.944  1.00  0.00     0.006 C 
HETATM    2  C5  UNL     1      25.906   1.438  51.598  1.00  0.00    -0.038 C 
HETATM    3  C6  UNL     1      26.319   2.601  50.733  1.00  0.00     0.156 C 
HETATM    4  N1  UNL     1      25.768   3.834  51.274  1.00  0.00    -0.379 N 
HETATM    5  C7  UNL     1      24.356   4.080  51.408  1.00  0.00     0.128 A 
HETATM    6  C8  UNL     1      23.952   5.387  51.244  1.00  0.00     0.160 A 
HETATM    7  N3  UNL     1      22.646   5.607  51.393  1.00  0.00    -0.222 NA
HETATM    8  C15 UNL     1      21.704   4.705  51.679  1.00  0.00     0.238 A 
HETATM    9  N4  UNL     1      22.108   3.434  51.837  1.00  0.00    -0.216 NA
HETATM   10  C16 UNL     1      23.404   3.098  51.709  1.00  0.00     0.197 A 
HETATM   11  O1  UNL     1      23.518   1.736  51.922  1.00  0.00    -0.328 OA
HETATM   12  C17 UNL     1      24.655   0.991  52.223  1.00  0.00     0.213 C 
HETATM   13  H9  UNL     1      26.272   4.691  51.643  1.00  0.00     0.160 HD
ENDROOT
BRANCH   6  14
HETATM   14  N2  UNL     1      24.902   6.362  50.919  1.00  0.00    -0.339 N 
HETATM   15  H10 UNL     1      25.486   6.907  51.581  1.00  0.00     0.167 HD
BRANCH  14  16
HETATM   16  C9  UNL     1      25.335   6.831  49.648  1.00  0.00     0.035 A 
HETATM   17  C10 UNL     1      26.606   6.793  49.107  1.00  0.00     0.032 A 
HETATM   18  C11 UNL     1      26.941   7.262  47.862  1.00  0.00     0.046 A 
HETATM   19  C12 UNL     1      25.968   7.818  47.065  1.00  0.00     0.138 A 
HETATM   20  F1  UNL     1      26.315   8.276  45.840  1.00  0.00    -0.204 F 
HETATM   21  C13 UNL     1      24.698   7.865  47.583  1.00  0.00     0.074 A 
HETATM   22 CL1  UNL     1      23.521   8.596  46.483  1.00  0.00    -0.081 Cl
HETATM   23  C14 UNL     1      24.338   7.391  48.851  1.00  0.00     0.056 A 
ENDBRANCH  14  16
ENDBRANCH   6  14
BRANCH   1  24
HETATM   24  C3  UNL     1      27.018  -0.667  52.681  1.00  0.00    -0.004 C 
HETATM   25  C2  UNL     1      28.040  -1.283  53.211  1.00  0.00    -0.031 C 
HETATM   26  C1  UNL     1      29.484  -1.172  53.390  1.00  0.00     0.036 C 
ENDBRANCH   1  24
TORSDOF 3
ENDMDL
MODEL 9
REMARK VINA RESULT:      -7.5      2.828      6.127
REMARK  3 active torsions:
REMARK  status: ('A' for Active; 'I' for Inactive)
REMARK    1  A    between atoms: C3_3  and  C4_4 
REMARK    2  A    between atoms: C8_9  and  N2_10 
REMARK    3  A    between atoms: N2_10  and  C9_11 
ROOT
HETATM    1  C4  UNL     1      25.148   7.199  48.158  1.00  0.00     0.006 C 
HETATM    2  C5  UNL     1      24.722   6.248  48.968  1.00  0.00    -0.038 C 
HETATM    3  C6  UNL     1      25.320   6.148  50.347  1.00  0.00     0.156 C 
HETATM    4  N1  UNL     1      25.651   4.761  50.637  1.00  0.00    -0.379 N 
HETATM    5  C7  UNL     1      24.674   3.705  50.685  1.00  0.00     0.128 A 
HETATM    6  C8  UNL     1      24.919   2.694  51.587  1.00  0.00     0.160 A 
HETATM    7  N3  UNL     1      24.021   1.710  51.606  1.00  0.00    -0.222 NA
HETATM    8  C15 UNL     1      22.923   1.606  50.852  1.00  0.00     0.238 A 
HETATM    9  N4  UNL     1      22.693   2.597  49.975  1.00  0.00    -0.216 NA
HETATM   10  C16 UNL     1      23.535   3.641  49.872  1.00  0.00     0.197 A 
HETATM   11  O1  UNL     1      23.045   4.494  48.899  1.00  0.00    -0.328 OA
HETATM   12  C17 UNL     1      23.709   5.504  48.209  1.00  0.00     0.213 C 
HETATM   13  H9  UNL     1      26.596   4.323  50.838  1.00  0.00     0.160 HD
ENDROOT
BRANCH   6  14
HETATM   14  N2  UNL     1      26.045   2.773  52.415  1.00  0.00    -0.339 N 
HETATM   15  H10 UNL     1      26.366   3.601  52.953  1.00  0.00     0.167 HD
BRANCH  14  16
HETATM   16  C9  UNL     1      27.000   1.778  52.760  1.00  0.00     0.035 A 
HETATM   17  C10 UNL     1      28.254   1.948  53.317  1.00  0.00     0.032 A 
HETATM   18  C11 UNL     1      29.116   0.928  53.629  1.00  0.00     0.046 A 
HETATM   19  C12 UNL     1      28.743  -0.373  53.383  1.00  0.00     0.138 A 
HETATM   20  F1  UNL     1      29.605  -1.367  53.697  1.00  0.00    -0.204 F 
HETATM   21  C13 UNL     1      27.501  -0.564  52.830  1.00  0.00     0.074 A 
HETATM   22 CL1  UNL     1      27.115  -2.268  52.552  1.00  0.00    -0.081 Cl
HETATM   23  C14 UNL     1      26.608   0.465  52.505  1.00  0.00     0.056 A 
ENDBRANCH  14  16
ENDBRANCH   6  14
BRANCH   1  24
HETATM   24  C3  UNL     1      24.979   7.757  46.847  1.00  0.00    -0.004 C 
HETATM   25  C2  UNL     1      24.103   8.529  46.263  1.00  0.00    -0.031 C 
HETATM   26  C1  UNL     1      22.861   9.253  46.511  1.00  0.00     0.036 C 
ENDBRANCH   1  24
TORSDOF 3
ENDMDL
