MODEL 1
REMARK VINA RESULT:      -8.8      0.000      0.000
REMARK  5 active torsions:
REMARK  status: ('A' for Active; 'I' for Inactive)
REMARK    1  A    between atoms: C5_7  and  C6_8 
REMARK    2  A    between atoms: C9_11  and  O2_12 
REMARK    3  A    between atoms: N2_15  and  C12_16 
REMARK    4  A    between atoms: C12_16  and  C13_17 
REMARK    5  A    between atoms: C13_17  and  C14_18 
ROOT
HETATM    1  C1  UNL     1      22.885   4.585  51.642  1.00  0.00     0.056 C 
HETATM    2  C2  UNL     1      23.820   3.662  52.379  1.00  0.00     0.183 C 
HETATM    3  N1  UNL     1      23.198   2.459  52.819  1.00  0.00    -0.335 N 
HETATM    4  C3  UNL     1      24.182   1.456  52.916  1.00  0.00     0.269 C 
HETATM    5  O1  UNL     1      24.037   0.424  53.597  1.00  0.00    -0.266 OA
HETATM    6  C4  UNL     1      25.265   1.946  52.085  1.00  0.00     0.101 C 
HETATM    7  C5  UNL     1      26.400   1.337  51.844  1.00  0.00     0.046 C 
HETATM    8  N2  UNL     1      24.917   3.189  51.531  1.00  0.00    -0.355 N 
HETATM    9  H5  UNL     1      22.158   2.456  53.006  1.00  0.00     0.164 HD
ENDROOT
BRANCH   7  10
HETATM   10  C6  UNL     1      26.962   0.076  52.257  1.00  0.00    -0.034 A 
HETATM   11  C7  UNL     1      28.148   0.158  52.995  1.00  0.00     0.014 A 
HETATM   12  C8  UNL     1      28.802  -0.996  53.428  1.00  0.00     0.037 A 
HETATM   13  C9  UNL     1      28.259  -2.244  53.116  1.00  0.00     0.065 A 
HETATM   14  C10 UNL     1      27.100  -2.360  52.395  1.00  0.00     0.037 A 
HETATM   15  C11 UNL     1      26.488  -1.198  51.989  1.00  0.00     0.014 A 
BRANCH  13  16
HETATM   16  O2  UNL     1      28.859  -3.432  53.516  1.00  0.00    -0.361 OA
HETATM   17  H9  UNL     1      28.282  -4.203  53.786  1.00  0.00     0.217 HD
ENDBRANCH  13  16
ENDBRANCH   7  10
BRANCH   8  18
HETATM   18  C12 UNL     1      25.305   4.018  50.450  1.00  0.00     0.130 C 
BRANCH  18  19
HETATM   19  C13 UNL     1      26.422   3.591  49.578  1.00  0.00     0.054 C 
BRANCH  19  20
HETATM   20  C14 UNL     1      27.020   4.833  48.939  1.00  0.00    -0.075 A 
HETATM   21  C15 UNL     1      28.228   5.064  48.449  1.00  0.00     0.003 A 
HETATM   22  C16 UNL     1      28.241   6.436  47.961  1.00  0.00    -0.003 A 
HETATM   23  C17 UNL     1      27.062   6.997  48.162  1.00  0.00    -0.022 A 
HETATM   24  C18 UNL     1      26.120   6.027  48.823  1.00  0.00     0.061 A 
ENDBRANCH  19  20
ENDBRANCH  18  19
ENDBRANCH   8  18
TORSDOF 5
ENDMDL
MODEL 2
REMARK VINA RESULT:      -8.6      2.929      4.340
REMARK  5 active torsions:
REMARK  status: ('A' for Active; 'I' for Inactive)
REMARK    1  A    between atoms: C5_7  and  C6_8 
REMARK    2  A    between atoms: C9_11  and  O2_12 
REMARK    3  A    between atoms: N2_15  and  C12_16 
REMARK    4  A    between atoms: C12_16  and  C13_17 
REMARK    5  A    between atoms: C13_17  and  C14_18 
ROOT
HETATM    1  C1  UNL     1      20.468  -1.097  54.169  1.00  0.00     0.056 C 
HETATM    2  C2  UNL     1      21.821  -0.498  54.452  1.00  0.00     0.183 C 
HETATM    3  N1  UNL     1      22.681  -1.362  55.189  1.00  0.00    -0.335 N 
HETATM    4  C3  UNL     1      24.016  -1.033  54.885  1.00  0.00     0.269 C 
HETATM    5  O1  UNL     1      24.977  -1.345  55.612  1.00  0.00    -0.266 OA
HETATM    6  C4  UNL     1      23.921  -0.313  53.629  1.00  0.00     0.101 C 
HETATM    7  C5  UNL     1      24.918   0.176  52.933  1.00  0.00     0.046 C 
HETATM    8  N2  UNL     1      22.577  -0.230  53.226  1.00  0.00    -0.355 N 
HETATM    9  H5  UNL     1      22.255  -2.090  55.826  1.00  0.00     0.164 HD
ENDROOT
BRANCH   7  10
HETATM   10  C6  UNL     1      26.347   0.191  53.114  1.00  0.00    -0.034 A 
HETATM   11  C7  UNL     1      26.913   1.450  53.343  1.00  0.00     0.014 A 
HETATM   12  C8  UNL     1      28.291   1.596  53.506  1.00  0.00     0.037 A 
HETATM   13  C9  UNL     1      29.108   0.466  53.439  1.00  0.00     0.065 A 
HETATM   14  C10 UNL     1      28.587  -0.782  53.217  1.00  0.00     0.037 A 
HETATM   15  C11 UNL     1      27.224  -0.880  53.062  1.00  0.00     0.014 A 
BRANCH  13  16
HETATM   16  O2  UNL     1      30.487   0.540  53.593  1.00  0.00    -0.361 OA
HETATM   17  H9  UNL     1      30.866   0.828  54.473  1.00  0.00     0.217 HD
ENDBRANCH  13  16
ENDBRANCH   7  10
BRANCH   8  18
HETATM   18  C12 UNL     1      21.834   0.006  52.044  1.00  0.00     0.130 C 
BRANCH  18  19
HETATM   19  C13 UNL     1      21.348   1.373  51.756  1.00  0.00     0.054 C 
BRANCH  19  20
HETATM   20  C14 UNL     1      22.542   2.222  51.354  1.00  0.00    -0.075 A 
HETATM   21  C15 UNL     1      23.274   2.228  50.251  1.00  0.00     0.003 A 
HETATM   22  C16 UNL     1      24.292   3.256  50.414  1.00  0.00    -0.003 A 
HETATM   23  C17 UNL     1      24.158   3.841  51.591  1.00  0.00    -0.022 A 
HETATM   24  C18 UNL     1      23.004   3.243  52.350  1.00  0.00     0.061 A 
ENDBRANCH  19  20
ENDBRANCH  18  19
ENDBRANCH   8  18
TORSDOF 5
ENDMDL
MODEL 3
REMARK VINA RESULT:      -8.5      2.757      5.842
REMARK  5 active torsions:
REMARK  status: ('A' for Active; 'I' for Inactive)
REMARK    1  A    between atoms: C5_7  and  C6_8 
REMARK    2  A    between atoms: C9_11  and  O2_12 
REMARK    3  A    between atoms: N2_15  and  C12_16 
REMARK    4  A    between atoms: C12_16  and  C13_17 
REMARK    5  A    between atoms: C13_17  and  C14_18 
ROOT
HETATM    1  C1  UNL     1      26.714   3.807  49.597  1.00  0.00     0.056 C 
HETATM    2  C2  UNL     1      25.498   3.548  50.447  1.00  0.00     0.183 C 
HETATM    3  N1  UNL     1      24.380   3.066  49.707  1.00  0.00    -0.335 N 
HETATM    4  C3  UNL     1      23.568   2.303  50.568  1.00  0.00     0.269 C 
HETATM    5  O1  UNL     1      22.372   2.054  50.332  1.00  0.00    -0.266 OA
HETATM    6  C4  UNL     1      24.452   1.952  51.663  1.00  0.00     0.101 C 
HETATM    7  C5  UNL     1      24.149   1.218  52.706  1.00  0.00     0.046 C 
HETATM    8  N2  UNL     1      25.728   2.497  51.441  1.00  0.00    -0.355 N 
HETATM    9  H5  UNL     1      24.296   3.314  48.683  1.00  0.00     0.164 HD
ENDROOT
BRANCH   7  10
HETATM   10  C6  UNL     1      22.952   0.539  53.132  1.00  0.00    -0.034 A 
HETATM   11  C7  UNL     1      23.076  -0.843  53.313  1.00  0.00     0.014 A 
HETATM   12  C8  UNL     1      21.979  -1.615  53.697  1.00  0.00     0.037 A 
HETATM   13  C9  UNL     1      20.747  -0.992  53.904  1.00  0.00     0.065 A 
HETATM   14  C10 UNL     1      20.591   0.359  53.736  1.00  0.00     0.037 A 
HETATM   15  C11 UNL     1      21.697   1.081  53.356  1.00  0.00     0.014 A 
BRANCH  13  16
HETATM   16  O2  UNL     1      19.615  -1.701  54.288  1.00  0.00    -0.361 OA
HETATM   17  H9  UNL     1      19.718  -2.507  54.871  1.00  0.00     0.217 HD
ENDBRANCH  13  16
ENDBRANCH   7  10
BRANCH   8  18
HETATM   18  C12 UNL     1      27.061   2.296  51.876  1.00  0.00     0.130 C 
BRANCH  18  19
HETATM   19  C13 UNL     1      27.320   2.020  53.306  1.00  0.00     0.054 C 
BRANCH  19  20
HETATM   20  C14 UNL     1      28.166   0.760  53.396  1.00  0.00    -0.075 A 
HETATM   21  C15 UNL     1      29.422   0.581  53.777  1.00  0.00     0.003 A 
HETATM   22  C16 UNL     1      29.708  -0.843  53.663  1.00  0.00    -0.003 A 
HETATM   23  C17 UNL     1      28.639  -1.483  53.223  1.00  0.00    -0.022 A 
HETATM   24  C18 UNL     1      27.503  -0.522  52.995  1.00  0.00     0.061 A 
ENDBRANCH  19  20
ENDBRANCH  18  19
ENDBRANCH   8  18
TORSDOF 5
ENDMDL
MODEL 4
REMARK VINA RESULT:      -8.4      2.715      5.020
REMARK  5 active torsions:
REMARK  status: ('A' for Active; 'I' for Inactive)
REMARK    1  A    between atoms: C5_7  and  C6_8 
REMARK    2  A    between atoms: C9_11  and  O2_12 
REMARK    3  A    between atoms: N2_15  and  C12_16 
REMARK    4  A    between atoms: C12_16  and  C13_17 
REMARK    5  A    between atoms: C13_17  and  C14_18 
ROOT
HETATM    1  C1  UNL     1      28.991   1.117  53.931  1.00  0.00     0.056 C 
HETATM    2  C2  UNL     1      27.748   0.287  53.737  1.00  0.00     0.183 C 
HETATM    3  N1  UNL     1      27.152  -0.135  54.960  1.00  0.00    -0.335 N 
HETATM    4  C3  UNL     1      25.774  -0.332  54.742  1.00  0.00     0.269 C 
HETATM    5  O1  UNL     1      25.060  -1.026  55.488  1.00  0.00    -0.266 OA
HETATM    6  C4  UNL     1      25.499   0.426  53.536  1.00  0.00     0.101 C 
HETATM    7  C5  UNL     1      24.334   0.565  52.951  1.00  0.00     0.046 C 
HETATM    8  N2  UNL     1      26.678   1.036  53.076  1.00  0.00    -0.355 N 
HETATM    9  H5  UNL     1      27.759  -0.241  55.819  1.00  0.00     0.164 HD
ENDROOT
BRANCH   7  10
HETATM   10  C6  UNL     1      23.010   0.078  53.240  1.00  0.00    -0.034 A 
HETATM   11  C7  UNL     1      21.980   1.014  53.101  1.00  0.00     0.014 A 
HETATM   12  C8  UNL     1      20.656   0.670  53.380  1.00  0.00     0.037 A 
HETATM   13  C9  UNL     1      20.366  -0.629  53.801  1.00  0.00     0.065 A 
HETATM   14  C10 UNL     1      21.350  -1.570  53.948  1.00  0.00     0.037 A 
HETATM   15  C11 UNL     1      22.640  -1.188  53.663  1.00  0.00     0.014 A 
BRANCH  13  16
HETATM   16  O2  UNL     1      19.071  -1.038  54.095  1.00  0.00    -0.361 OA
HETATM   17  H9  UNL     1      18.690  -1.832  53.621  1.00  0.00     0.217 HD
ENDBRANCH  13  16
ENDBRANCH   7  10
BRANCH   8  18
HETATM   18  C12 UNL     1      27.061   2.106  52.230  1.00  0.00     0.130 C 
BRANCH  18  19
HETATM   19  C13 UNL     1      26.786   2.013  50.779  1.00  0.00     0.054 C 
BRANCH  19  20
HETATM   20  C14 UNL     1      26.144   3.317  50.337  1.00  0.00    -0.075 A 
HETATM   21  C15 UNL     1      25.035   3.921  50.738  1.00  0.00     0.003 A 
HETATM   22  C16 UNL     1      24.910   5.149  49.966  1.00  0.00    -0.003 A 
HETATM   23  C17 UNL     1      25.927   5.261  49.129  1.00  0.00    -0.022 A 
HETATM   24  C18 UNL     1      26.856   4.086  49.265  1.00  0.00     0.061 A 
ENDBRANCH  19  20
ENDBRANCH  18  19
ENDBRANCH   8  18
TORSDOF 5
ENDMDL
MODEL 5
REMARK VINA RESULT:      -8.2      2.593      5.575
REMARK  5 active torsions:
REMARK  status: ('A' for Active; 'I' for Inactive)
REMARK    1  A    between atoms: C5_7  and  C6_8 
REMARK    2  A    between atoms: C9_11  and  O2_12 
REMARK    3  A    between atoms: N2_15  and  C12_16 
REMARK    4  A    between atoms: C12_16  and  C13_17 
REMARK    5  A    between atoms: C13_17  and  C14_18 
ROOT
HETATM    1  C1  UNL     1      22.314   4.085  49.564  1.00  0.00     0.056 C 
HETATM    2  C2  UNL     1      23.437   3.105  49.777  1.00  0.00     0.183 C 
HETATM    3  N1  UNL     1      24.728   3.708  49.756  1.00  0.00    -0.335 N 
HETATM    4  C3  UNL     1      25.602   2.924  50.533  1.00  0.00     0.269 C 
HETATM    5  O1  UNL     1      26.841   2.975  50.425  1.00  0.00    -0.266 OA
HETATM    6  C4  UNL     1      24.716   2.146  51.379  1.00  0.00     0.101 C 
HETATM    7  C5  UNL     1      25.074   1.281  52.296  1.00  0.00     0.046 C 
HETATM    8  N2  UNL     1      23.379   2.470  51.096  1.00  0.00    -0.355 N 
HETATM    9  H5  UNL     1      24.869   4.601  49.208  1.00  0.00     0.164 HD
ENDROOT
BRANCH   7  10
HETATM   10  C6  UNL     1      26.348   0.813  52.782  1.00  0.00    -0.034 A 
HETATM   11  C7  UNL     1      26.686  -0.495  52.419  1.00  0.00     0.014 A 
HETATM   12  C8  UNL     1      27.881  -1.071  52.852  1.00  0.00     0.037 A 
HETATM   13  C9  UNL     1      28.745  -0.324  53.655  1.00  0.00     0.065 A 
HETATM   14  C10 UNL     1      28.444   0.960  54.028  1.00  0.00     0.037 A 
HETATM   15  C11 UNL     1      27.257   1.488  53.580  1.00  0.00     0.014 A 
BRANCH  13  16
HETATM   16  O2  UNL     1      29.950  -0.836  54.120  1.00  0.00    -0.361 OA
HETATM   17  H9  UNL     1      29.947  -1.672  54.669  1.00  0.00     0.217 HD
ENDBRANCH  13  16
ENDBRANCH   7  10
BRANCH   8  18
HETATM   18  C12 UNL     1      22.107   2.370  51.712  1.00  0.00     0.130 C 
BRANCH  18  19
HETATM   19  C13 UNL     1      21.337   1.114  51.576  1.00  0.00     0.054 C 
BRANCH  19  20
HETATM   20  C14 UNL     1      21.465   0.341  52.879  1.00  0.00    -0.075 A 
HETATM   21  C15 UNL     1      20.899   0.528  54.061  1.00  0.00     0.003 A 
HETATM   22  C16 UNL     1      21.387  -0.522  54.944  1.00  0.00    -0.003 A 
HETATM   23  C17 UNL     1      22.224  -1.308  54.290  1.00  0.00    -0.022 A 
HETATM   24  C18 UNL     1      22.379  -0.847  52.866  1.00  0.00     0.061 A 
ENDBRANCH  19  20
ENDBRANCH  18  19
ENDBRANCH   8  18
TORSDOF 5
ENDMDL
MODEL 6
REMARK VINA RESULT:      -8.0      1.495      2.120
REMARK  5 active torsions:
REMARK  status: ('A' for Active; 'I' for Inactive)
REMARK    1  A    between atoms: C5_7  and  C6_8 
REMARK    2  A    between atoms: C9_11  and  O2_12 
REMARK    3  A    between atoms: N2_15  and  C12_16 
REMARK    4  A    between atoms: C12_16  and  C13_17 
REMARK    5  A    between atoms: C13_17  and  C14_18 
ROOT
HETATM    1  C1  UNL     1      20.523   2.788  51.520  1.00  0.00     0.056 C 
HETATM    2  C2  UNL     1      21.713   2.444  52.376  1.00  0.00     0.183 C 
HETATM    3  N1  UNL     1      21.732   1.084  52.800  1.00  0.00    -0.335 N 
HETATM    4  C3  UNL     1      23.070   0.704  53.027  1.00  0.00     0.269 C 
HETATM    5  O1  UNL     1      23.390  -0.272  53.729  1.00  0.00    -0.266 OA
HETATM    6  C4  UNL     1      23.842   1.682  52.284  1.00  0.00     0.101 C 
HETATM    7  C5  UNL     1      25.147   1.725  52.174  1.00  0.00     0.046 C 
HETATM    8  N2  UNL     1      22.979   2.594  51.654  1.00  0.00    -0.355 N 
HETATM    9  H5  UNL     1      20.819   0.560  52.886  1.00  0.00     0.164 HD
ENDROOT
BRANCH   7  10
HETATM   10  C6  UNL     1      26.218   0.907  52.685  1.00  0.00    -0.034 A 
HETATM   11  C7  UNL     1      27.042   1.518  53.636  1.00  0.00     0.014 A 
HETATM   12  C8  UNL     1      28.129   0.836  54.184  1.00  0.00     0.037 A 
HETATM   13  C9  UNL     1      28.389  -0.472  53.774  1.00  0.00     0.065 A 
HETATM   14  C10 UNL     1      27.602  -1.101  52.845  1.00  0.00     0.037 A 
HETATM   15  C11 UNL     1      26.542  -0.393  52.331  1.00  0.00     0.014 A 
BRANCH  13  16
HETATM   16  O2  UNL     1      29.455  -1.208  54.279  1.00  0.00    -0.361 OA
HETATM   17  H9  UNL     1      29.796  -1.006  55.198  1.00  0.00     0.217 HD
ENDBRANCH  13  16
ENDBRANCH   7  10
BRANCH   8  18
HETATM   18  C12 UNL     1      23.009   3.522  50.584  1.00  0.00     0.130 C 
BRANCH  18  19
HETATM   19  C13 UNL     1      23.712   3.159  49.333  1.00  0.00     0.054 C 
BRANCH  19  20
HETATM   20  C14 UNL     1      24.940   4.044  49.209  1.00  0.00    -0.075 A 
HETATM   21  C15 UNL     1      25.057   5.348  49.005  1.00  0.00     0.003 A 
HETATM   22  C16 UNL     1      26.480   5.654  48.976  1.00  0.00    -0.003 A 
HETATM   23  C17 UNL     1      27.182   4.550  49.159  1.00  0.00    -0.022 A 
HETATM   24  C18 UNL     1      26.271   3.365  49.334  1.00  0.00     0.061 A 
ENDBRANCH  19  20
ENDBRANCH  18  19
ENDBRANCH   8  18
TORSDOF 5
ENDMDL
MODEL 7
REMARK VINA RESULT:      -7.9      3.115      5.996
REMARK  5 active torsions:
REMARK  status: ('A' for Active; 'I' for Inactive)
REMARK    1  A    between atoms: C5_7  and  C6_8 
REMARK    2  A    between atoms: C9_11  and  O2_12 
REMARK    3  A    between atoms: N2_15  and  C12_16 
REMARK    4  A    between atoms: C12_16  and  C13_17 
REMARK    5  A    between atoms: C13_17  and  C14_18 
ROOT
HETATM    1  C1  UNL     1      25.342   5.308  49.991  1.00  0.00     0.056 C 
HETATM    2  C2  UNL     1      24.470   4.664  51.037  1.00  0.00     0.183 C 
HETATM    3  N1  UNL     1      23.077   4.852  50.809  1.00  0.00    -0.335 N 
HETATM    4  C3  UNL     1      22.377   3.782  51.400  1.00  0.00     0.269 C 
HETATM    5  O1  UNL     1      21.167   3.835  51.685  1.00  0.00    -0.266 OA
HETATM    6  C4  UNL     1      23.383   2.747  51.550  1.00  0.00     0.101 C 
HETATM    7  C5  UNL     1      23.198   1.545  52.037  1.00  0.00     0.046 C 
HETATM    8  N2  UNL     1      24.618   3.208  51.064  1.00  0.00    -0.355 N 
HETATM    9  H5  UNL     1      22.755   5.700  50.267  1.00  0.00     0.164 HD
ENDROOT
BRANCH   7  10
HETATM   10  C6  UNL     1      22.050   0.846  52.556  1.00  0.00    -0.034 A 
HETATM   11  C7  UNL     1      21.044   0.564  51.625  1.00  0.00     0.014 A 
HETATM   12  C8  UNL     1      19.871  -0.084  52.013  1.00  0.00     0.037 A 
HETATM   13  C9  UNL     1      19.708  -0.455  53.349  1.00  0.00     0.065 A 
HETATM   14  C10 UNL     1      20.674  -0.195  54.286  1.00  0.00     0.037 A 
HETATM   15  C11 UNL     1      21.813   0.446  53.861  1.00  0.00     0.014 A 
BRANCH  13  16
HETATM   16  O2  UNL     1      18.566  -1.103  53.803  1.00  0.00    -0.361 OA
HETATM   17  H9  UNL     1      18.632  -2.055  54.104  1.00  0.00     0.217 HD
ENDBRANCH  13  16
ENDBRANCH   7  10
BRANCH   8  18
HETATM   18  C12 UNL     1      25.850   2.672  50.615  1.00  0.00     0.130 C 
BRANCH  18  19
HETATM   19  C13 UNL     1      26.942   2.455  51.590  1.00  0.00     0.054 C 
BRANCH  19  20
HETATM   20  C14 UNL     1      26.638   1.180  52.359  1.00  0.00    -0.075 A 
HETATM   21  C15 UNL     1      26.576  -0.082  51.962  1.00  0.00     0.003 A 
HETATM   22  C16 UNL     1      26.245  -0.885  53.131  1.00  0.00    -0.003 A 
HETATM   23  C17 UNL     1      26.116  -0.107  54.191  1.00  0.00    -0.022 A 
HETATM   24  C18 UNL     1      26.356   1.332  53.823  1.00  0.00     0.061 A 
ENDBRANCH  19  20
ENDBRANCH  18  19
ENDBRANCH   8  18
TORSDOF 5
ENDMDL
MODEL 8
REMARK VINA RESULT:      -7.8      3.218      6.365
REMARK  5 active torsions:
REMARK  status: ('A' for Active; 'I' for Inactive)
REMARK    1  A    between atoms: C5_7  and  C6_8 
REMARK    2  A    between atoms: C9_11  and  O2_12 
REMARK    3  A    between atoms: N2_15  and  C12_16 
REMARK    4  A    between atoms: C12_16  and  C13_17 
REMARK    5  A    between atoms: C13_17  and  C14_18 
ROOT
HETATM    1  C1  UNL     1      20.843   1.037  50.799  1.00  0.00     0.056 C 
HETATM    2  C2  UNL     1      22.052   1.530  50.048  1.00  0.00     0.183 C 
HETATM    3  N1  UNL     1      21.755   2.557  49.106  1.00  0.00    -0.335 N 
HETATM    4  C3  UNL     1      22.906   3.347  48.927  1.00  0.00     0.269 C 
HETATM    5  O1  UNL     1      23.083   4.077  47.934  1.00  0.00    -0.266 OA
HETATM    6  C4  UNL     1      23.707   3.072  50.105  1.00  0.00     0.101 C 
HETATM    7  C5  UNL     1      24.869   3.602  50.399  1.00  0.00     0.046 C 
HETATM    8  N2  UNL     1      23.040   2.154  50.932  1.00  0.00    -0.355 N 
HETATM    9  H5  UNL     1      20.786   2.604  48.687  1.00  0.00     0.164 HD
ENDROOT
BRANCH   7  10
HETATM   10  C6  UNL     1      25.720   4.564  49.746  1.00  0.00    -0.034 A 
HETATM   11  C7  UNL     1      26.900   4.050  49.197  1.00  0.00     0.014 A 
HETATM   12  C8  UNL     1      27.818   4.888  48.564  1.00  0.00     0.037 A 
HETATM   13  C9  UNL     1      27.547   6.255  48.479  1.00  0.00     0.065 A 
HETATM   14  C10 UNL     1      26.401   6.791  49.005  1.00  0.00     0.037 A 
HETATM   15  C11 UNL     1      25.524   5.929  49.621  1.00  0.00     0.014 A 
BRANCH  13  16
HETATM   16  O2  UNL     1      28.418   7.145  47.862  1.00  0.00    -0.361 OA
HETATM   17  H9  UNL     1      29.384   7.141  48.119  1.00  0.00     0.217 HD
ENDBRANCH  13  16
ENDBRANCH   7  10
BRANCH   8  18
HETATM   18  C12 UNL     1      23.060   1.729  52.284  1.00  0.00     0.130 C 
BRANCH  18  19
HETATM   19  C13 UNL     1      23.873   0.551  52.658  1.00  0.00     0.054 C 
BRANCH  19  20
HETATM   20  C14 UNL     1      25.328   0.985  52.724  1.00  0.00    -0.075 A 
HETATM   21  C15 UNL     1      26.394   0.561  52.063  1.00  0.00     0.003 A 
HETATM   22  C16 UNL     1      27.531   1.339  52.533  1.00  0.00    -0.003 A 
HETATM   23  C17 UNL     1      27.137   2.202  53.452  1.00  0.00    -0.022 A 
HETATM   24  C18 UNL     1      25.656   2.081  53.693  1.00  0.00     0.061 A 
ENDBRANCH  19  20
ENDBRANCH  18  19
ENDBRANCH   8  18
TORSDOF 5
ENDMDL
MODEL 9
REMARK VINA RESULT:      -7.8      3.051      3.963
REMARK  5 active torsions:
REMARK  status: ('A' for Active; 'I' for Inactive)
REMARK    1  A    between atoms: C5_7  and  C6_8 
REMARK    2  A    between atoms: C9_11  and  O2_12 
REMARK    3  A    between atoms: N2_15  and  C12_16 
REMARK    4  A    between atoms: C12_16  and  C13_17 
REMARK    5  A    between atoms: C13_17  and  C14_18 
ROOT
HETATM    1  C1  UNL     1      24.608   7.831  50.035  1.00  0.00     0.056 C 
HETATM    2  C2  UNL     1      24.527   6.630  50.940  1.00  0.00     0.183 C 
HETATM    3  N1  UNL     1      23.255   6.474  51.562  1.00  0.00    -0.335 N 
HETATM    4  C3  UNL     1      23.062   5.109  51.851  1.00  0.00     0.269 C 
HETATM    5  O1  UNL     1      22.241   4.701  52.693  1.00  0.00    -0.266 OA
HETATM    6  C4  UNL     1      23.999   4.430  50.976  1.00  0.00     0.101 C 
HETATM    7  C5  UNL     1      24.168   3.135  50.869  1.00  0.00     0.046 C 
HETATM    8  N2  UNL     1      24.707   5.372  50.211  1.00  0.00    -0.355 N 
HETATM    9  H5  UNL     1      22.652   7.327  51.721  1.00  0.00     0.164 HD
ENDROOT
BRANCH   7  10
HETATM   10  C6  UNL     1      23.557   1.994  51.502  1.00  0.00    -0.034 A 
HETATM   11  C7  UNL     1      24.304   1.401  52.526  1.00  0.00     0.014 A 
HETATM   12  C8  UNL     1      23.830   0.273  53.196  1.00  0.00     0.037 A 
HETATM   13  C9  UNL     1      22.593  -0.264  52.835  1.00  0.00     0.065 A 
HETATM   14  C10 UNL     1      21.836   0.292  51.838  1.00  0.00     0.037 A 
HETATM   15  C11 UNL     1      22.340   1.402  51.204  1.00  0.00     0.014 A 
BRANCH  13  16
HETATM   16  O2  UNL     1      22.062  -1.385  53.462  1.00  0.00    -0.361 OA
HETATM   17  H9  UNL     1      21.114  -1.364  53.780  1.00  0.00     0.217 HD
ENDBRANCH  13  16
ENDBRANCH   7  10
BRANCH   8  18
HETATM   18  C12 UNL     1      25.464   5.418  49.015  1.00  0.00     0.130 C 
BRANCH  18  19
HETATM   19  C13 UNL     1      26.825   4.837  48.999  1.00  0.00     0.054 C 
BRANCH  19  20
HETATM   20  C14 UNL     1      27.760   5.848  48.355  1.00  0.00    -0.075 A 
HETATM   21  C15 UNL     1      27.531   7.056  47.864  1.00  0.00     0.003 A 
HETATM   22  C16 UNL     1      28.802   7.570  47.372  1.00  0.00    -0.003 A 
HETATM   23  C17 UNL     1      29.755   6.677  47.571  1.00  0.00    -0.022 A 
HETATM   24  C18 UNL     1      29.199   5.447  48.235  1.00  0.00     0.061 A 
ENDBRANCH  19  20
ENDBRANCH  18  19
ENDBRANCH   8  18
TORSDOF 5
ENDMDL
