MODEL 1
REMARK VINA RESULT:      -7.7      0.000      0.000
REMARK  6 active torsions:
REMARK  status: ('A' for Active; 'I' for Inactive)
REMARK    1  A    between atoms: C2_2  and  N1_3 
REMARK    2  A    between atoms: C3_5  and  C4_6 
REMARK    3  A    between atoms: C4_6  and  O1_8 
REMARK    4  A    between atoms: O1_8  and  N3_9 
REMARK    5  A    between atoms: C11_17  and  C12_18 
REMARK    6  A    between atoms: N5_22  and  C16_23 
ROOT
HETATM    1  N1  UNL     1      22.967   3.021  51.585  1.00  0.00    -0.292 N 
HETATM    2  N2  UNL     1      22.861   3.194  50.261  1.00  0.00    -0.171 NA
HETATM    3  C3  UNL     1      22.385   2.806  49.207  1.00  0.00     0.121 C 
HETATM    4  S1  UNL     1      21.268   1.414  48.830  1.00  0.00    -0.110 SA
HETATM    5  C6  UNL     1      21.057   0.508  50.411  1.00  0.00     0.081 C 
HETATM    6  C7  UNL     1      20.367   1.445  51.402  1.00  0.00     0.015 C 
HETATM    7  C8  UNL     1      20.716   0.991  52.812  1.00  0.00     0.039 C 
HETATM    8  C9  UNL     1      22.221   1.053  52.930  1.00  0.00    -0.037 A 
HETATM    9  C10 UNL     1      22.799  -0.146  53.134  1.00  0.00     0.093 A 
HETATM   10  N4  UNL     1      24.194  -0.322  53.274  1.00  0.00    -0.368 N 
HETATM   11  C11 UNL     1      25.066   0.790  53.204  1.00  0.00     0.017 A 
HETATM   12  C18 UNL     1      24.483   1.956  53.004  1.00  0.00     0.030 A 
HETATM   13  C19 UNL     1      23.025   2.284  52.836  1.00  0.00     0.159 A 
HETATM   14  H19 UNL     1      24.585  -1.260  53.428  1.00  0.00     0.165 HD
ENDROOT
BRANCH  11  15
HETATM   15  C12 UNL     1      26.505   0.563  53.346  1.00  0.00     0.016 C 
HETATM   16  C13 UNL     1      27.320   1.446  52.425  1.00  0.00     0.023 C 
HETATM   17  C14 UNL     1      26.935   0.821  54.760  1.00  0.00     0.037 C 
HETATM   18  C15 UNL     1      28.303   0.148  54.783  1.00  0.00     0.126 C 
HETATM   19  N5  UNL     1      28.237  -0.870  53.741  1.00  0.00    -0.358 N 
HETATM   20  C17 UNL     1      26.893  -0.897  53.192  1.00  0.00     0.140 C 
BRANCH  19  21
HETATM   21  C16 UNL     1      29.332  -1.685  53.350  1.00  0.00     0.350 C 
HETATM   22  O2  UNL     1      29.246  -2.925  53.463  1.00  0.00    -0.284 OA
ENDBRANCH  19  21
ENDBRANCH  11  15
BRANCH   1  23
HETATM   23  C2  UNL     1      23.142   4.423  52.002  1.00  0.00     0.141 C 
HETATM   24  C1  UNL     1      21.865   5.207  51.776  1.00  0.00     0.028 C 
ENDBRANCH   1  23
BRANCH   3  25
HETATM   25  C4  UNL     1      22.761   3.599  48.013  1.00  0.00     0.201 C 
HETATM   26  C5  UNL     1      21.760   3.302  46.895  1.00  0.00     0.049 C 
BRANCH  25  27
HETATM   27  O1  UNL     1      22.761   4.964  48.209  1.00  0.00    -0.297 OA
BRANCH  27  28
HETATM   28  N3  UNL     1      24.019   5.393  48.550  1.00  0.00    -0.214 NA
HETATM   29  H10 UNL     1      24.671   4.649  48.216  1.00  0.00     0.150 HD
HETATM   30  H11 UNL     1      24.210   6.302  48.065  1.00  0.00     0.150 HD
ENDBRANCH  27  28
ENDBRANCH  25  27
ENDBRANCH   3  25
TORSDOF 6
ENDMDL
MODEL 2
REMARK VINA RESULT:      -7.5      1.399      1.727
REMARK  6 active torsions:
REMARK  status: ('A' for Active; 'I' for Inactive)
REMARK    1  A    between atoms: C2_2  and  N1_3 
REMARK    2  A    between atoms: C3_5  and  C4_6 
REMARK    3  A    between atoms: C4_6  and  O1_8 
REMARK    4  A    between atoms: O1_8  and  N3_9 
REMARK    5  A    between atoms: C11_17  and  C12_18 
REMARK    6  A    between atoms: N5_22  and  C16_23 
ROOT
HETATM    1  N1  UNL     1      22.759   2.907  51.660  1.00  0.00    -0.292 N 
HETATM    2  N2  UNL     1      22.912   3.255  50.377  1.00  0.00    -0.171 NA
HETATM    3  C3  UNL     1      22.654   3.017  49.208  1.00  0.00     0.121 C 
HETATM    4  S1  UNL     1      21.644   1.707  48.440  1.00  0.00    -0.110 SA
HETATM    5  C6  UNL     1      21.136   0.605  49.815  1.00  0.00     0.081 C 
HETATM    6  C7  UNL     1      20.259   1.414  50.769  1.00  0.00     0.015 C 
HETATM    7  C8  UNL     1      20.330   0.773  52.147  1.00  0.00     0.039 C 
HETATM    8  C9  UNL     1      21.783   0.792  52.562  1.00  0.00    -0.037 A 
HETATM    9  C10 UNL     1      22.320  -0.432  52.714  1.00  0.00     0.093 A 
HETATM   10  N4  UNL     1      23.662  -0.650  53.098  1.00  0.00    -0.368 N 
HETATM   11  C11 UNL     1      24.522   0.446  53.347  1.00  0.00     0.017 A 
HETATM   12  C18 UNL     1      23.979   1.639  53.193  1.00  0.00     0.030 A 
HETATM   13  C19 UNL     1      22.578   2.011  52.790  1.00  0.00     0.159 A 
HETATM   14  H19 UNL     1      24.024  -1.607  53.199  1.00  0.00     0.165 HD
ENDROOT
BRANCH  11  15
HETATM   15  C12 UNL     1      25.907   0.177  53.734  1.00  0.00     0.016 C 
HETATM   16  C13 UNL     1      26.019  -0.316  55.161  1.00  0.00     0.023 C 
HETATM   17  C14 UNL     1      26.511  -0.852  52.824  1.00  0.00     0.037 C 
HETATM   18  C15 UNL     1      27.997  -0.676  53.119  1.00  0.00     0.126 C 
HETATM   19  N5  UNL     1      28.124   0.699  53.588  1.00  0.00    -0.358 N 
HETATM   20  C17 UNL     1      26.832   1.354  53.487  1.00  0.00     0.140 C 
BRANCH  19  21
HETATM   21  C16 UNL     1      29.333   1.271  54.064  1.00  0.00     0.350 C 
HETATM   22  O2  UNL     1      29.295   2.331  54.721  1.00  0.00    -0.284 OA
ENDBRANCH  19  21
ENDBRANCH  11  15
BRANCH   1  23
HETATM   23  C2  UNL     1      22.838   4.238  52.286  1.00  0.00     0.141 C 
HETATM   24  C1  UNL     1      21.627   5.071  51.915  1.00  0.00     0.028 C 
ENDBRANCH   1  23
BRANCH   3  25
HETATM   25  C4  UNL     1      23.249   3.954  48.226  1.00  0.00     0.201 C 
HETATM   26  C5  UNL     1      22.131   4.812  47.632  1.00  0.00     0.049 C 
BRANCH  25  27
HETATM   27  O1  UNL     1      24.189   4.814  48.752  1.00  0.00    -0.297 OA
BRANCH  27  28
HETATM   28  N3  UNL     1      23.618   6.032  49.021  1.00  0.00    -0.214 NA
HETATM   29  H10 UNL     1      22.615   5.940  48.749  1.00  0.00     0.150 HD
HETATM   30  H11 UNL     1      23.711   6.232  50.044  1.00  0.00     0.150 HD
ENDBRANCH  27  28
ENDBRANCH  25  27
ENDBRANCH   3  25
TORSDOF 6
ENDMDL
MODEL 3
REMARK VINA RESULT:      -7.3      2.733      4.415
REMARK  6 active torsions:
REMARK  status: ('A' for Active; 'I' for Inactive)
REMARK    1  A    between atoms: C2_2  and  N1_3 
REMARK    2  A    between atoms: C3_5  and  C4_6 
REMARK    3  A    between atoms: C4_6  and  O1_8 
REMARK    4  A    between atoms: O1_8  and  N3_9 
REMARK    5  A    between atoms: C11_17  and  C12_18 
REMARK    6  A    between atoms: N5_22  and  C16_23 
ROOT
HETATM    1  N1  UNL     1      22.567   3.075  49.742  1.00  0.00    -0.292 N 
HETATM    2  N2  UNL     1      21.444   3.488  50.342  1.00  0.00    -0.171 NA
HETATM    3  C3  UNL     1      20.786   4.426  50.762  1.00  0.00     0.121 C 
HETATM    4  S1  UNL     1      21.113   6.221  50.766  1.00  0.00    -0.110 SA
HETATM    5  C6  UNL     1      22.812   6.414  50.103  1.00  0.00     0.081 C 
HETATM    6  C7  UNL     1      22.815   5.911  48.660  1.00  0.00     0.015 C 
HETATM    7  C8  UNL     1      24.234   5.492  48.301  1.00  0.00     0.039 C 
HETATM    8  C9  UNL     1      24.628   4.408  49.278  1.00  0.00    -0.037 A 
HETATM    9  C10 UNL     1      25.658   4.746  50.077  1.00  0.00     0.093 A 
HETATM   10  N4  UNL     1      26.191   3.886  51.061  1.00  0.00    -0.368 N 
HETATM   11  C11 UNL     1      25.647   2.594  51.254  1.00  0.00     0.017 A 
HETATM   12  C18 UNL     1      24.639   2.280  50.464  1.00  0.00     0.030 A 
HETATM   13  C19 UNL     1      23.976   3.092  49.386  1.00  0.00     0.159 A 
HETATM   14  H19 UNL     1      26.979   4.193  51.646  1.00  0.00     0.165 HD
ENDROOT
BRANCH  11  15
HETATM   15  C12 UNL     1      26.224   1.738  52.292  1.00  0.00     0.016 C 
HETATM   16  C13 UNL     1      25.302   1.576  53.482  1.00  0.00     0.023 C 
HETATM   17  C14 UNL     1      26.528   0.378  51.735  1.00  0.00     0.037 C 
HETATM   18  C15 UNL     1      27.462  -0.180  52.803  1.00  0.00     0.126 C 
HETATM   19  N5  UNL     1      28.058   0.994  53.429  1.00  0.00    -0.358 N 
HETATM   20  C17 UNL     1      27.608   2.183  52.727  1.00  0.00     0.140 C 
BRANCH  19  21
HETATM   21  C16 UNL     1      28.932   0.946  54.547  1.00  0.00     0.350 C 
HETATM   22  O2  UNL     1      29.424   2.004  54.989  1.00  0.00    -0.284 OA
ENDBRANCH  19  21
ENDBRANCH  11  15
BRANCH   1  23
HETATM   23  C2  UNL     1      22.048   1.887  49.043  1.00  0.00     0.141 C 
HETATM   24  C1  UNL     1      22.350   1.970  47.560  1.00  0.00     0.028 C 
ENDBRANCH   1  23
BRANCH   3  25
HETATM   25  C4  UNL     1      19.485   4.064  51.372  1.00  0.00     0.201 C 
HETATM   26  C5  UNL     1      18.669   3.275  50.345  1.00  0.00     0.049 C 
BRANCH  25  27
HETATM   27  O1  UNL     1      19.581   3.283  52.504  1.00  0.00    -0.297 OA
BRANCH  27  28
HETATM   28  N3  UNL     1      19.550   1.954  52.167  1.00  0.00    -0.214 NA
HETATM   29  H10 UNL     1      20.542   1.631  52.202  1.00  0.00     0.150 HD
HETATM   30  H11 UNL     1      18.965   1.440  52.867  1.00  0.00     0.150 HD
ENDBRANCH  27  28
ENDBRANCH  25  27
ENDBRANCH   3  25
TORSDOF 6
ENDMDL
MODEL 4
REMARK VINA RESULT:      -6.7      1.702      2.292
REMARK  6 active torsions:
REMARK  status: ('A' for Active; 'I' for Inactive)
REMARK    1  A    between atoms: C2_2  and  N1_3 
REMARK    2  A    between atoms: C3_5  and  C4_6 
REMARK    3  A    between atoms: C4_6  and  O1_8 
REMARK    4  A    between atoms: O1_8  and  N3_9 
REMARK    5  A    between atoms: C11_17  and  C12_18 
REMARK    6  A    between atoms: N5_22  and  C16_23 
ROOT
HETATM    1  N1  UNL     1      22.367   4.322  50.718  1.00  0.00    -0.292 N 
HETATM    2  N2  UNL     1      22.331   4.369  49.380  1.00  0.00    -0.171 NA
HETATM    3  C3  UNL     1      21.755   4.045  48.354  1.00  0.00     0.121 C 
HETATM    4  S1  UNL     1      20.235   3.074  48.081  1.00  0.00    -0.110 SA
HETATM    5  C6  UNL     1      19.726   2.478  49.739  1.00  0.00     0.081 C 
HETATM    6  C7  UNL     1      19.389   3.697  50.596  1.00  0.00     0.015 C 
HETATM    7  C8  UNL     1      19.560   3.316  52.060  1.00  0.00     0.039 C 
HETATM    8  C9  UNL     1      20.998   2.884  52.232  1.00  0.00    -0.037 A 
HETATM    9  C10 UNL     1      21.138   1.593  52.586  1.00  0.00     0.093 A 
HETATM   10  N4  UNL     1      22.391   0.978  52.802  1.00  0.00    -0.368 N 
HETATM   11  C11 UNL     1      23.587   1.718  52.650  1.00  0.00     0.017 A 
HETATM   12  C18 UNL     1      23.432   2.981  52.303  1.00  0.00     0.030 A 
HETATM   13  C19 UNL     1      22.170   3.756  52.041  1.00  0.00     0.159 A 
HETATM   14  H19 UNL     1      22.442  -0.014  53.071  1.00  0.00     0.165 HD
ENDROOT
BRANCH  11  15
HETATM   15  C12 UNL     1      24.865   1.039  52.875  1.00  0.00     0.016 C 
HETATM   16  C13 UNL     1      24.684  -0.419  53.240  1.00  0.00     0.023 C 
HETATM   17  C14 UNL     1      25.720   1.122  51.645  1.00  0.00     0.037 C 
HETATM   18  C15 UNL     1      27.088   0.751  52.208  1.00  0.00     0.126 C 
HETATM   19  N5  UNL     1      27.020   1.109  53.620  1.00  0.00    -0.358 N 
HETATM   20  C17 UNL     1      25.745   1.753  53.884  1.00  0.00     0.140 C 
BRANCH  19  21
HETATM   21  C16 UNL     1      28.053   0.851  54.559  1.00  0.00     0.350 C 
HETATM   22  O2  UNL     1      28.164  -0.289  55.054  1.00  0.00    -0.284 OA
ENDBRANCH  19  21
ENDBRANCH  11  15
BRANCH   1  23
HETATM   23  C2  UNL     1      23.004   5.622  50.990  1.00  0.00     0.141 C 
HETATM   24  C1  UNL     1      21.978   6.737  50.941  1.00  0.00     0.028 C 
ENDBRANCH   1  23
BRANCH   3  25
HETATM   25  C4  UNL     1      22.380   4.525  47.100  1.00  0.00     0.201 C 
HETATM   26  C5  UNL     1      21.777   3.749  45.927  1.00  0.00     0.049 C 
BRANCH  25  27
HETATM   27  O1  UNL     1      22.191   5.866  46.842  1.00  0.00    -0.297 OA
BRANCH  27  28
HETATM   28  N3  UNL     1      23.186   6.606  47.430  1.00  0.00    -0.214 NA
HETATM   29  H10 UNL     1      23.911   5.917  47.727  1.00  0.00     0.150 HD
HETATM   30  H11 UNL     1      23.573   7.275  46.723  1.00  0.00     0.150 HD
ENDBRANCH  27  28
ENDBRANCH  25  27
ENDBRANCH   3  25
TORSDOF 6
ENDMDL
MODEL 5
REMARK VINA RESULT:      -6.5      8.758     11.771
REMARK  6 active torsions:
REMARK  status: ('A' for Active; 'I' for Inactive)
REMARK    1  A    between atoms: C2_2  and  N1_3 
REMARK    2  A    between atoms: C3_5  and  C4_6 
REMARK    3  A    between atoms: C4_6  and  O1_8 
REMARK    4  A    between atoms: O1_8  and  N3_9 
REMARK    5  A    between atoms: C11_17  and  C12_18 
REMARK    6  A    between atoms: N5_22  and  C16_23 
ROOT
HETATM    1  N1  UNL     1      32.585   6.838  47.201  1.00  0.00    -0.292 N 
HETATM    2  N2  UNL     1      33.000   5.597  46.920  1.00  0.00    -0.171 NA
HETATM    3  C3  UNL     1      33.276   4.773  46.063  1.00  0.00     0.121 C 
HETATM    4  S1  UNL     1      33.252   4.874  44.242  1.00  0.00    -0.110 SA
HETATM    5  C6  UNL     1      32.547   6.522  43.849  1.00  0.00     0.081 C 
HETATM    6  C7  UNL     1      33.500   7.585  44.394  1.00  0.00     0.015 C 
HETATM    7  C8  UNL     1      32.707   8.861  44.634  1.00  0.00     0.039 C 
HETATM    8  C9  UNL     1      31.618   8.517  45.625  1.00  0.00    -0.037 A 
HETATM    9  C10 UNL     1      30.374   8.647  45.129  1.00  0.00     0.093 A 
HETATM   10  N4  UNL     1      29.207   8.380  45.879  1.00  0.00    -0.368 N 
HETATM   11  C11 UNL     1      29.304   7.951  47.224  1.00  0.00     0.017 A 
HETATM   12  C18 UNL     1      30.531   7.829  47.693  1.00  0.00     0.030 A 
HETATM   13  C19 UNL     1      31.848   8.076  47.011  1.00  0.00     0.159 A 
HETATM   14  H19 UNL     1      28.279   8.494  45.452  1.00  0.00     0.165 HD
ENDROOT
BRANCH  11  15
HETATM   15  C12 UNL     1      28.070   7.676  47.963  1.00  0.00     0.016 C 
HETATM   16  C13 UNL     1      27.950   8.521  49.214  1.00  0.00     0.023 C 
HETATM   17  C14 UNL     1      26.875   7.935  47.094  1.00  0.00     0.037 C 
HETATM   18  C15 UNL     1      25.779   7.217  47.873  1.00  0.00     0.126 C 
HETATM   19  N5  UNL     1      26.476   6.190  48.639  1.00  0.00    -0.358 N 
HETATM   20  C17 UNL     1      27.882   6.203  48.276  1.00  0.00     0.140 C 
BRANCH  19  21
HETATM   21  C16 UNL     1      25.848   5.334  49.582  1.00  0.00     0.350 C 
HETATM   22  O2  UNL     1      25.095   5.823  50.449  1.00  0.00    -0.284 OA
ENDBRANCH  19  21
ENDBRANCH  11  15
BRANCH   1  23
HETATM   23  C2  UNL     1      33.302   7.055  48.469  1.00  0.00     0.141 C 
HETATM   24  C1  UNL     1      34.725   7.505  48.204  1.00  0.00     0.028 C 
ENDBRANCH   1  23
BRANCH   3  25
HETATM   25  C4  UNL     1      33.720   3.454  46.573  1.00  0.00     0.201 C 
HETATM   26  C5  UNL     1      35.168   3.225  46.135  1.00  0.00     0.049 C 
BRANCH  25  27
HETATM   27  O1  UNL     1      33.683   3.330  47.946  1.00  0.00    -0.297 OA
BRANCH  27  28
HETATM   28  N3  UNL     1      34.906   3.644  48.482  1.00  0.00    -0.214 NA
HETATM   29  H10 UNL     1      34.747   3.743  49.509  1.00  0.00     0.150 HD
HETATM   30  H11 UNL     1      35.575   2.864  48.281  1.00  0.00     0.150 HD
ENDBRANCH  27  28
ENDBRANCH  25  27
ENDBRANCH   3  25
TORSDOF 6
ENDMDL
MODEL 6
REMARK VINA RESULT:      -6.5      8.416     10.334
REMARK  6 active torsions:
REMARK  status: ('A' for Active; 'I' for Inactive)
REMARK    1  A    between atoms: C2_2  and  N1_3 
REMARK    2  A    between atoms: C3_5  and  C4_6 
REMARK    3  A    between atoms: C4_6  and  O1_8 
REMARK    4  A    between atoms: O1_8  and  N3_9 
REMARK    5  A    between atoms: C11_17  and  C12_18 
REMARK    6  A    between atoms: N5_22  and  C16_23 
ROOT
HETATM    1  N1  UNL     1      29.583   8.204  46.527  1.00  0.00    -0.292 N 
HETATM    2  N2  UNL     1      28.458   8.007  47.226  1.00  0.00    -0.171 NA
HETATM    3  C3  UNL     1      27.828   8.230  48.246  1.00  0.00     0.121 C 
HETATM    4  S1  UNL     1      28.233   9.227  49.719  1.00  0.00    -0.110 SA
HETATM    5  C6  UNL     1      29.962   9.789  49.474  1.00  0.00     0.081 C 
HETATM    6  C7  UNL     1      29.994  10.689  48.239  1.00  0.00     0.015 C 
HETATM    7  C8  UNL     1      31.405  10.668  47.668  1.00  0.00     0.039 C 
HETATM    8  C9  UNL     1      31.715   9.229  47.327  1.00  0.00    -0.037 A 
HETATM    9  C10 UNL     1      32.730   8.709  48.043  1.00  0.00     0.093 A 
HETATM   10  N4  UNL     1      33.190   7.382  47.887  1.00  0.00    -0.368 N 
HETATM   11  C11 UNL     1      32.583   6.520  46.944  1.00  0.00     0.017 A 
HETATM   12  C18 UNL     1      31.590   7.046  46.252  1.00  0.00     0.030 A 
HETATM   13  C19 UNL     1      31.003   8.429  46.316  1.00  0.00     0.159 A 
HETATM   14  H19 UNL     1      33.969   7.033  48.460  1.00  0.00     0.165 HD
ENDROOT
BRANCH  11  15
HETATM   15  C12 UNL     1      33.084   5.150  46.821  1.00  0.00     0.016 C 
HETATM   16  C13 UNL     1      33.053   4.653  45.391  1.00  0.00     0.023 C 
HETATM   17  C14 UNL     1      34.494   5.065  47.326  1.00  0.00     0.037 C 
HETATM   18  C15 UNL     1      34.659   3.559  47.497  1.00  0.00     0.126 C 
HETATM   19  N5  UNL     1      33.306   3.055  47.697  1.00  0.00    -0.358 N 
HETATM   20  C17 UNL     1      32.387   4.178  47.755  1.00  0.00     0.140 C 
BRANCH  19  21
HETATM   21  C16 UNL     1      32.975   1.679  47.810  1.00  0.00     0.350 C 
HETATM   22  O2  UNL     1      33.203   1.078  48.880  1.00  0.00    -0.284 OA
ENDBRANCH  19  21
ENDBRANCH  11  15
BRANCH   1  23
HETATM   23  C2  UNL     1      29.038   8.133  45.160  1.00  0.00     0.141 C 
HETATM   24  C1  UNL     1      28.481   9.478  44.740  1.00  0.00     0.028 C 
ENDBRANCH   1  23
BRANCH   3  25
HETATM   25  C4  UNL     1      26.491   7.595  48.315  1.00  0.00     0.201 C 
HETATM   26  C5  UNL     1      25.677   8.038  47.098  1.00  0.00     0.049 C 
BRANCH  25  27
HETATM   27  O1  UNL     1      26.511   6.216  48.313  1.00  0.00    -0.297 OA
BRANCH  27  28
HETATM   28  N3  UNL     1      27.560   5.757  49.069  1.00  0.00    -0.214 NA
HETATM   29  H10 UNL     1      27.184   4.950  49.614  1.00  0.00     0.150 HD
HETATM   30  H11 UNL     1      28.330   5.449  48.430  1.00  0.00     0.150 HD
ENDBRANCH  27  28
ENDBRANCH  25  27
ENDBRANCH   3  25
TORSDOF 6
ENDMDL
MODEL 7
REMARK VINA RESULT:      -6.5      8.592     11.434
REMARK  6 active torsions:
REMARK  status: ('A' for Active; 'I' for Inactive)
REMARK    1  A    between atoms: C2_2  and  N1_3 
REMARK    2  A    between atoms: C3_5  and  C4_6 
REMARK    3  A    between atoms: C4_6  and  O1_8 
REMARK    4  A    between atoms: O1_8  and  N3_9 
REMARK    5  A    between atoms: C11_17  and  C12_18 
REMARK    6  A    between atoms: N5_22  and  C16_23 
ROOT
HETATM    1  N1  UNL     1      32.017   6.731  47.620  1.00  0.00    -0.292 N 
HETATM    2  N2  UNL     1      32.409   5.950  46.607  1.00  0.00    -0.171 NA
HETATM    3  C3  UNL     1      32.789   5.878  45.449  1.00  0.00     0.121 C 
HETATM    4  S1  UNL     1      33.095   7.172  44.200  1.00  0.00    -0.110 SA
HETATM    5  C6  UNL     1      32.560   8.745  44.977  1.00  0.00     0.081 C 
HETATM    6  C7  UNL     1      33.456   9.001  46.188  1.00  0.00     0.015 C 
HETATM    7  C8  UNL     1      32.702   9.896  47.161  1.00  0.00     0.039 C 
HETATM    8  C9  UNL     1      31.437   9.159  47.539  1.00  0.00    -0.037 A 
HETATM    9  C10 UNL     1      30.310   9.784  47.152  1.00  0.00     0.093 A 
HETATM   10  N4  UNL     1      29.016   9.276  47.403  1.00  0.00    -0.368 N 
HETATM   11  C11 UNL     1      28.848   8.051  48.091  1.00  0.00     0.017 A 
HETATM   12  C18 UNL     1      29.964   7.453  48.462  1.00  0.00     0.030 A 
HETATM   13  C19 UNL     1      31.393   7.876  48.261  1.00  0.00     0.159 A 
HETATM   14  H19 UNL     1      28.185   9.793  47.085  1.00  0.00     0.165 HD
ENDROOT
BRANCH  11  15
HETATM   15  C12 UNL     1      27.490   7.556  48.321  1.00  0.00     0.016 C 
HETATM   16  C13 UNL     1      26.551   7.906  47.186  1.00  0.00     0.023 C 
HETATM   17  C14 UNL     1      27.502   6.065  48.489  1.00  0.00     0.037 C 
HETATM   18  C15 UNL     1      26.130   5.824  49.110  1.00  0.00     0.126 C 
HETATM   19  N5  UNL     1      25.793   7.080  49.770  1.00  0.00    -0.358 N 
HETATM   20  C17 UNL     1      26.919   7.990  49.659  1.00  0.00     0.140 C 
BRANCH  19  21
HETATM   21  C16 UNL     1      24.551   7.338  50.409  1.00  0.00     0.350 C 
HETATM   22  O2  UNL     1      24.233   6.681  51.421  1.00  0.00    -0.284 OA
ENDBRANCH  19  21
ENDBRANCH  11  15
BRANCH   1  23
HETATM   23  C2  UNL     1      32.508   5.927  48.753  1.00  0.00     0.141 C 
HETATM   24  C1  UNL     1      34.022   5.957  48.808  1.00  0.00     0.028 C 
ENDBRANCH   1  23
BRANCH   3  25
HETATM   25  C4  UNL     1      33.064   4.508  44.957  1.00  0.00     0.201 C 
HETATM   26  C5  UNL     1      34.407   4.514  44.223  1.00  0.00     0.049 C 
BRANCH  25  27
HETATM   27  O1  UNL     1      33.143   3.550  45.946  1.00  0.00    -0.297 OA
BRANCH  27  28
HETATM   28  N3  UNL     1      31.909   2.993  46.165  1.00  0.00    -0.214 NA
HETATM   29  H10 UNL     1      31.808   2.241  45.448  1.00  0.00     0.150 HD
HETATM   30  H11 UNL     1      31.884   2.593  47.133  1.00  0.00     0.150 HD
ENDBRANCH  27  28
ENDBRANCH  25  27
ENDBRANCH   3  25
TORSDOF 6
ENDMDL
MODEL 8
REMARK VINA RESULT:      -6.4      7.154      9.678
REMARK  6 active torsions:
REMARK  status: ('A' for Active; 'I' for Inactive)
REMARK    1  A    between atoms: C2_2  and  N1_3 
REMARK    2  A    between atoms: C3_5  and  C4_6 
REMARK    3  A    between atoms: C4_6  and  O1_8 
REMARK    4  A    between atoms: O1_8  and  N3_9 
REMARK    5  A    between atoms: C11_17  and  C12_18 
REMARK    6  A    between atoms: N5_22  and  C16_23 
ROOT
HETATM    1  N1  UNL     1      27.926   9.214  47.217  1.00  0.00    -0.292 N 
HETATM    2  N2  UNL     1      28.235  10.365  47.829  1.00  0.00    -0.171 NA
HETATM    3  C3  UNL     1      29.054  11.002  48.470  1.00  0.00     0.121 C 
HETATM    4  S1  UNL     1      30.724  10.567  49.060  1.00  0.00    -0.110 SA
HETATM    5  C6  UNL     1      30.958   8.801  48.622  1.00  0.00     0.081 C 
HETATM    6  C7  UNL     1      30.923   8.685  47.098  1.00  0.00     0.015 C 
HETATM    7  C8  UNL     1      30.508   7.266  46.736  1.00  0.00     0.039 C 
HETATM    8  C9  UNL     1      29.147   7.040  47.351  1.00  0.00    -0.037 A 
HETATM    9  C10 UNL     1      29.130   6.076  48.291  1.00  0.00     0.093 A 
HETATM   10  N4  UNL     1      27.965   5.697  48.994  1.00  0.00    -0.368 N 
HETATM   11  C11 UNL     1      26.731   6.337  48.731  1.00  0.00     0.017 A 
HETATM   12  C18 UNL     1      26.766   7.279  47.808  1.00  0.00     0.030 A 
HETATM   13  C19 UNL     1      27.925   7.779  46.991  1.00  0.00     0.159 A 
HETATM   14  H19 UNL     1      28.007   4.954  49.704  1.00  0.00     0.165 HD
ENDROOT
BRANCH  11  15
HETATM   15  C12 UNL     1      25.550   5.920  49.489  1.00  0.00     0.016 C 
HETATM   16  C13 UNL     1      25.178   6.916  50.567  1.00  0.00     0.023 C 
HETATM   17  C14 UNL     1      24.376   5.750  48.571  1.00  0.00     0.037 C 
HETATM   18  C15 UNL     1      23.424   4.946  49.449  1.00  0.00     0.126 C 
HETATM   19  N5  UNL     1      24.287   4.250  50.396  1.00  0.00    -0.358 N 
HETATM   20  C17 UNL     1      25.673   4.518  50.057  1.00  0.00     0.140 C 
BRANCH  19  21
HETATM   21  C16 UNL     1      23.813   3.448  51.467  1.00  0.00     0.350 C 
HETATM   22  O2  UNL     1      23.058   3.951  52.325  1.00  0.00    -0.284 OA
ENDBRANCH  19  21
ENDBRANCH  11  15
BRANCH   1  23
HETATM   23  C2  UNL     1      27.061   9.733  46.143  1.00  0.00     0.141 C 
HETATM   24  C1  UNL     1      27.551   9.258  44.790  1.00  0.00     0.028 C 
ENDBRANCH   1  23
BRANCH   3  25
HETATM   25  C4  UNL     1      28.641  12.377  48.835  1.00  0.00     0.201 C 
HETATM   26  C5  UNL     1      29.257  13.353  47.830  1.00  0.00     0.049 C 
BRANCH  25  27
HETATM   27  O1  UNL     1      27.278  12.587  48.825  1.00  0.00    -0.297 OA
BRANCH  27  28
HETATM   28  N3  UNL     1      26.900  13.188  47.652  1.00  0.00    -0.214 NA
HETATM   29  H10 UNL     1      27.267  14.164  47.704  1.00  0.00     0.150 HD
HETATM   30  H11 UNL     1      27.329  12.669  46.851  1.00  0.00     0.150 HD
ENDBRANCH  27  28
ENDBRANCH  25  27
ENDBRANCH   3  25
TORSDOF 6
ENDMDL
MODEL 9
REMARK VINA RESULT:      -6.2      4.029      7.048
REMARK  6 active torsions:
REMARK  status: ('A' for Active; 'I' for Inactive)
REMARK    1  A    between atoms: C2_2  and  N1_3 
REMARK    2  A    between atoms: C3_5  and  C4_6 
REMARK    3  A    between atoms: C4_6  and  O1_8 
REMARK    4  A    between atoms: O1_8  and  N3_9 
REMARK    5  A    between atoms: C11_17  and  C12_18 
REMARK    6  A    between atoms: N5_22  and  C16_23 
ROOT
HETATM    1  N1  UNL     1      23.291   4.805  51.488  1.00  0.00    -0.292 N 
HETATM    2  N2  UNL     1      24.449   4.704  50.823  1.00  0.00    -0.171 NA
HETATM    3  C3  UNL     1      25.140   5.091  49.894  1.00  0.00     0.121 C 
HETATM    4  S1  UNL     1      24.839   6.353  48.613  1.00  0.00    -0.110 SA
HETATM    5  C6  UNL     1      23.111   6.914  48.870  1.00  0.00     0.081 C 
HETATM    6  C7  UNL     1      23.029   7.573  50.246  1.00  0.00     0.015 C 
HETATM    7  C8  UNL     1      21.589   7.492  50.731  1.00  0.00     0.039 C 
HETATM    8  C9  UNL     1      21.229   6.025  50.784  1.00  0.00    -0.037 A 
HETATM    9  C10 UNL     1      20.245   5.677  49.934  1.00  0.00     0.093 A 
HETATM   10  N4  UNL     1      19.749   4.359  49.818  1.00  0.00    -0.368 N 
HETATM   11  C11 UNL     1      20.284   3.320  50.616  1.00  0.00     0.017 A 
HETATM   12  C18 UNL     1      21.248   3.680  51.443  1.00  0.00     0.030 A 
HETATM   13  C19 UNL     1      21.867   5.032  51.665  1.00  0.00     0.159 A 
HETATM   14  H19 UNL     1      18.996   4.146  49.152  1.00  0.00     0.165 HD
ENDROOT
BRANCH  11  15
HETATM   15  C12 UNL     1      19.748   1.968  50.458  1.00  0.00     0.016 C 
HETATM   16  C13 UNL     1      20.500   1.170  49.413  1.00  0.00     0.023 C 
HETATM   17  C14 UNL     1      19.812   1.228  51.761  1.00  0.00     0.037 C 
HETATM   18  C15 UNL     1      18.865   0.064  51.490  1.00  0.00     0.126 C 
HETATM   19  N5  UNL     1      17.958   0.553  50.458  1.00  0.00    -0.358 N 
HETATM   20  C17 UNL     1      18.254   1.949  50.192  1.00  0.00     0.140 C 
BRANCH  19  21
HETATM   21  C16 UNL     1      16.958  -0.239  49.834  1.00  0.00     0.350 C 
HETATM   22  O2  UNL     1      15.821  -0.307  50.343  1.00  0.00    -0.284 OA
ENDBRANCH  19  21
ENDBRANCH  11  15
BRANCH   1  23
HETATM   23  C2  UNL     1      23.758   4.467  52.844  1.00  0.00     0.141 C 
HETATM   24  C1  UNL     1      24.329   3.063  52.874  1.00  0.00     0.028 C 
ENDBRANCH   1  23
BRANCH   3  25
HETATM   25  C4  UNL     1      26.465   4.437  49.777  1.00  0.00     0.201 C 
HETATM   26  C5  UNL     1      26.256   2.924  49.698  1.00  0.00     0.049 C 
BRANCH  25  27
HETATM   27  O1  UNL     1      27.189   4.809  48.664  1.00  0.00    -0.297 OA
BRANCH  27  28
HETATM   28  N3  UNL     1      28.456   5.189  49.030  1.00  0.00    -0.214 NA
HETATM   29  H10 UNL     1      29.090   4.797  48.299  1.00  0.00     0.150 HD
HETATM   30  H11 UNL     1      28.505   6.235  49.045  1.00  0.00     0.150 HD
ENDBRANCH  27  28
ENDBRANCH  25  27
ENDBRANCH   3  25
TORSDOF 6
ENDMDL
