MODEL 1
REMARK VINA RESULT:      -9.5      0.000      0.000
REMARK  2 active torsions:
REMARK  status: ('A' for Active; 'I' for Inactive)
REMARK    1  A    between atoms: O1_2  and  C2_3 
REMARK    2  A    between atoms: C7_8  and  O2_9 
ROOT
HETATM    1  C2  UNL     1      27.206   1.059  53.118  1.00  0.00     0.103 A 
HETATM    2  C3  UNL     1      26.017   1.567  52.699  1.00  0.00     0.073 A 
HETATM    3  C4  UNL     1      24.729   1.105  52.803  1.00  0.00     0.089 A 
HETATM    4  C5  UNL     1      24.654  -0.140  53.485  1.00  0.00     0.088 A 
HETATM    5  C6  UNL     1      25.841  -0.737  53.953  1.00  0.00     0.073 A 
HETATM    6  C7  UNL     1      27.046  -0.158  53.774  1.00  0.00     0.103 A 
HETATM    7  N1  UNL     1      23.643  -0.932  53.858  1.00  0.00    -0.254 NA
HETATM    8  C9  UNL     1      22.319  -0.527  53.555  1.00  0.00     0.027 A 
HETATM    9  C10 UNL     1      21.530  -0.126  52.398  1.00  0.00     0.064 A 
HETATM   10  C11 UNL     1      20.685   0.233  51.583  1.00  0.00    -0.007 A 
HETATM   11  C12 UNL     1      19.400   0.482  52.127  1.00  0.00    -0.044 A 
HETATM   12  C13 UNL     1      20.047   0.113  53.265  1.00  0.00     0.043 A 
HETATM   13  C14 UNL     1      21.065  -0.278  53.981  1.00  0.00     0.056 A 
HETATM   14  P1  UNL     1      18.097   1.053  51.006  1.00  0.00    -0.001 P 
HETATM   15  C15 UNL     1      18.646   2.707  50.301  1.00  0.00     0.247 C 
HETATM   16  O3  UNL     1      17.979   3.708  49.868  1.00  0.00    -0.268 OA
HETATM   17  N2  UNL     1      19.926   3.307  50.053  1.00  0.00    -0.321 N 
HETATM   18  C16 UNL     1      20.710   4.429  50.421  1.00  0.00     0.064 A 
HETATM   19  C17 UNL     1      20.178   5.568  49.795  1.00  0.00     0.032 A 
HETATM   20  C18 UNL     1      20.794   6.804  50.015  1.00  0.00     0.002 A 
HETATM   21  C19 UNL     1      21.899   6.884  50.833  1.00  0.00     0.002 A 
HETATM   22  C20 UNL     1      22.401   5.742  51.436  1.00  0.00     0.034 A 
HETATM   23  C21 UNL     1      21.808   4.518  51.230  1.00  0.00     0.085 A 
HETATM   24  N3  UNL     1      22.325   3.369  51.876  1.00  0.00    -0.240 NA
HETATM   25  C22 UNL     1      23.374   2.697  51.585  1.00  0.00     0.234 C 
HETATM   26  N4  UNL     1      23.711   1.606  52.337  1.00  0.00    -0.240 NA
HETATM   27  H13 UNL     1      18.002   0.100  49.903  1.00  0.00     0.071 HD
HETATM   28  H14 UNL     1      20.207   2.540  49.376  1.00  0.00     0.169 HD
ENDROOT
BRANCH   1  29
HETATM   29  O1  UNL     1      28.450   1.589  52.972  1.00  0.00    -0.353 OA
HETATM   30  C1  UNL     1      29.091   2.482  53.832  1.00  0.00     0.210 C 
ENDBRANCH   1  29
BRANCH   6  31
HETATM   31  O2  UNL     1      28.236  -0.725  54.228  1.00  0.00    -0.353 OA
HETATM   32  C8  UNL     1      28.926  -1.640  53.446  1.00  0.00     0.210 C 
ENDBRANCH   6  31
TORSDOF 2
ENDMDL
MODEL 2
REMARK VINA RESULT:      -9.1      2.396      4.463
REMARK  2 active torsions:
REMARK  status: ('A' for Active; 'I' for Inactive)
REMARK    1  A    between atoms: O1_2  and  C2_3 
REMARK    2  A    between atoms: C7_8  and  O2_9 
ROOT
HETATM    1  C2  UNL     1      26.124   0.028  54.400  1.00  0.00     0.103 A 
HETATM    2  C3  UNL     1      25.167   0.745  53.754  1.00  0.00     0.073 A 
HETATM    3  C4  UNL     1      25.234   1.675  52.746  1.00  0.00     0.089 A 
HETATM    4  C5  UNL     1      26.567   1.909  52.314  1.00  0.00     0.088 A 
HETATM    5  C6  UNL     1      27.621   1.207  52.932  1.00  0.00     0.073 A 
HETATM    6  C7  UNL     1      27.399   0.316  53.919  1.00  0.00     0.103 A 
HETATM    7  N1  UNL     1      27.110   2.668  51.357  1.00  0.00    -0.254 NA
HETATM    8  C9  UNL     1      26.251   3.444  50.539  1.00  0.00     0.027 A 
HETATM    9  C10 UNL     1      25.201   4.444  50.685  1.00  0.00     0.064 A 
HETATM   10  C11 UNL     1      24.311   5.281  50.568  1.00  0.00    -0.007 A 
HETATM   11  C12 UNL     1      23.944   5.576  49.230  1.00  0.00    -0.044 A 
HETATM   12  C13 UNL     1      24.917   4.657  48.988  1.00  0.00     0.043 A 
HETATM   13  C14 UNL     1      25.844   3.795  49.303  1.00  0.00     0.056 A 
HETATM   14  P1  UNL     1      22.612   6.772  48.958  1.00  0.00    -0.001 P 
HETATM   15  C15 UNL     1      21.053   6.067  49.737  1.00  0.00     0.247 C 
HETATM   16  O3  UNL     1      19.816   6.237  49.463  1.00  0.00    -0.268 OA
HETATM   17  N2  UNL     1      20.806   5.165  50.825  1.00  0.00    -0.321 N 
HETATM   18  C16 UNL     1      20.215   3.908  51.105  1.00  0.00     0.064 A 
HETATM   19  C17 UNL     1      18.819   4.051  51.052  1.00  0.00     0.032 A 
HETATM   20  C18 UNL     1      18.019   2.930  51.296  1.00  0.00     0.002 A 
HETATM   21  C19 UNL     1      18.606   1.718  51.581  1.00  0.00     0.002 A 
HETATM   22  C20 UNL     1      19.987   1.607  51.628  1.00  0.00     0.034 A 
HETATM   23  C21 UNL     1      20.788   2.701  51.391  1.00  0.00     0.085 A 
HETATM   24  N3  UNL     1      22.197   2.559  51.420  1.00  0.00    -0.240 NA
HETATM   25  C22 UNL     1      22.965   2.454  52.439  1.00  0.00     0.234 C 
HETATM   26  N4  UNL     1      24.313   2.324  52.261  1.00  0.00    -0.240 NA
HETATM   27  H13 UNL     1      22.957   8.001  49.669  1.00  0.00     0.071 HD
HETATM   28  H14 UNL     1      21.274   5.807  51.527  1.00  0.00     0.169 HD
ENDROOT
BRANCH   1  29
HETATM   29  O1  UNL     1      25.968  -0.882  55.398  1.00  0.00    -0.353 OA
HETATM   30  C1  UNL     1      24.773  -1.260  56.013  1.00  0.00     0.210 C 
ENDBRANCH   1  29
BRANCH   6  31
HETATM   31  O2  UNL     1      28.420  -0.395  54.546  1.00  0.00    -0.353 OA
HETATM   32  C8  UNL     1      29.522  -0.833  53.825  1.00  0.00     0.210 C 
ENDBRANCH   6  31
TORSDOF 2
ENDMDL
MODEL 3
REMARK VINA RESULT:      -8.8      2.724      7.987
REMARK  2 active torsions:
REMARK  status: ('A' for Active; 'I' for Inactive)
REMARK    1  A    between atoms: O1_2  and  C2_3 
REMARK    2  A    between atoms: C7_8  and  O2_9 
ROOT
HETATM    1  C2  UNL     1      17.686  -0.573  52.362  1.00  0.00     0.103 A 
HETATM    2  C3  UNL     1      18.990  -0.194  52.301  1.00  0.00     0.073 A 
HETATM    3  C4  UNL     1      19.593   0.972  51.903  1.00  0.00     0.089 A 
HETATM    4  C5  UNL     1      18.653   1.953  51.485  1.00  0.00     0.088 A 
HETATM    5  C6  UNL     1      17.279   1.641  51.516  1.00  0.00     0.073 A 
HETATM    6  C7  UNL     1      16.832   0.441  51.936  1.00  0.00     0.103 A 
HETATM    7  N1  UNL     1      18.758   3.220  51.070  1.00  0.00    -0.254 NA
HETATM    8  C9  UNL     1      20.048   3.804  51.001  1.00  0.00     0.027 A 
HETATM    9  C10 UNL     1      21.345   3.536  50.394  1.00  0.00     0.064 A 
HETATM   10  C11 UNL     1      22.504   3.516  49.989  1.00  0.00    -0.007 A 
HETATM   11  C12 UNL     1      23.299   4.615  50.403  1.00  0.00    -0.044 A 
HETATM   12  C13 UNL     1      22.127   4.959  51.003  1.00  0.00     0.043 A 
HETATM   13  C14 UNL     1      20.874   4.814  51.336  1.00  0.00     0.056 A 
HETATM   14  P1  UNL     1      25.033   4.653  49.887  1.00  0.00    -0.001 P 
HETATM   15  C15 UNL     1      25.877   3.148  50.632  1.00  0.00     0.247 C 
HETATM   16  O3  UNL     1      27.092   2.935  50.969  1.00  0.00    -0.268 OA
HETATM   17  N2  UNL     1      25.420   1.846  51.026  1.00  0.00    -0.321 N 
HETATM   18  C16 UNL     1      25.321   1.009  52.166  1.00  0.00     0.064 A 
HETATM   19  C17 UNL     1      26.604   0.533  52.481  1.00  0.00     0.032 A 
HETATM   20  C18 UNL     1      26.753  -0.319  53.580  1.00  0.00     0.002 A 
HETATM   21  C19 UNL     1      25.651  -0.673  54.327  1.00  0.00     0.002 A 
HETATM   22  C20 UNL     1      24.397  -0.188  53.991  1.00  0.00     0.034 A 
HETATM   23  C21 UNL     1      24.234   0.650  52.912  1.00  0.00     0.085 A 
HETATM   24  N3  UNL     1      22.947   1.152  52.602  1.00  0.00    -0.240 NA
HETATM   25  C22 UNL     1      21.971   0.546  52.038  1.00  0.00     0.234 C 
HETATM   26  N4  UNL     1      20.794   1.207  51.823  1.00  0.00    -0.240 NA
HETATM   27  H13 UNL     1      25.074   4.521  48.432  1.00  0.00     0.071 HD
HETATM   28  H14 UNL     1      25.106   1.605  50.043  1.00  0.00     0.169 HD
ENDROOT
BRANCH   1  29
HETATM   29  O1  UNL     1      17.171  -1.762  52.774  1.00  0.00    -0.353 OA
HETATM   30  C1  UNL     1      17.793  -2.714  53.585  1.00  0.00     0.210 C 
ENDBRANCH   1  29
BRANCH   6  31
HETATM   31  O2  UNL     1      15.480   0.106  51.980  1.00  0.00    -0.353 OA
HETATM   32  C8  UNL     1      14.622   0.746  52.863  1.00  0.00     0.210 C 
ENDBRANCH   6  31
TORSDOF 2
ENDMDL
MODEL 4
REMARK VINA RESULT:      -8.8      2.821      7.082
REMARK  2 active torsions:
REMARK  status: ('A' for Active; 'I' for Inactive)
REMARK    1  A    between atoms: O1_2  and  C2_3 
REMARK    2  A    between atoms: C7_8  and  O2_9 
ROOT
HETATM    1  C2  UNL     1      23.826   7.593  50.291  1.00  0.00     0.103 A 
HETATM    2  C3  UNL     1      23.772   6.317  50.755  1.00  0.00     0.073 A 
HETATM    3  C4  UNL     1      22.741   5.417  50.862  1.00  0.00     0.089 A 
HETATM    4  C5  UNL     1      21.510   5.946  50.386  1.00  0.00     0.088 A 
HETATM    5  C6  UNL     1      21.478   7.263  49.887  1.00  0.00     0.073 A 
HETATM    6  C7  UNL     1      22.583   8.035  49.846  1.00  0.00     0.103 A 
HETATM    7  N1  UNL     1      20.279   5.444  50.247  1.00  0.00    -0.254 NA
HETATM    8  C9  UNL     1      20.050   4.098  50.627  1.00  0.00     0.027 A 
HETATM    9  C10 UNL     1      20.230   3.238  51.790  1.00  0.00     0.064 A 
HETATM   10  C11 UNL     1      20.285   2.343  52.629  1.00  0.00    -0.007 A 
HETATM   11  C12 UNL     1      19.786   1.089  52.195  1.00  0.00    -0.044 A 
HETATM   12  C13 UNL     1      19.569   1.810  51.062  1.00  0.00     0.043 A 
HETATM   13  C14 UNL     1      19.588   2.873  50.307  1.00  0.00     0.056 A 
HETATM   14  P1  UNL     1      19.861  -0.302  53.352  1.00  0.00    -0.001 P 
HETATM   15  C15 UNL     1      21.674  -0.618  53.738  1.00  0.00     0.247 C 
HETATM   16  O3  UNL     1      22.295  -1.679  54.086  1.00  0.00    -0.268 OA
HETATM   17  N2  UNL     1      22.845   0.211  53.753  1.00  0.00    -0.321 N 
HETATM   18  C16 UNL     1      24.116   0.338  53.139  1.00  0.00     0.064 A 
HETATM   19  C17 UNL     1      24.956  -0.669  53.641  1.00  0.00     0.032 A 
HETATM   20  C18 UNL     1      26.272  -0.741  53.173  1.00  0.00     0.002 A 
HETATM   21  C19 UNL     1      26.718   0.166  52.238  1.00  0.00     0.002 A 
HETATM   22  C20 UNL     1      25.866   1.149  51.761  1.00  0.00     0.034 A 
HETATM   23  C21 UNL     1      24.568   1.235  52.212  1.00  0.00     0.085 A 
HETATM   24  N3  UNL     1      23.709   2.233  51.693  1.00  0.00    -0.240 NA
HETATM   25  C22 UNL     1      23.686   3.484  51.966  1.00  0.00     0.234 C 
HETATM   26  N4  UNL     1      22.772   4.295  51.355  1.00  0.00    -0.240 NA
HETATM   27  H13 UNL     1      19.199   0.104  54.590  1.00  0.00     0.071 HD
HETATM   28  H14 UNL     1      22.446   0.846  54.503  1.00  0.00     0.169 HD
ENDROOT
BRANCH   1  29
HETATM   29  O1  UNL     1      24.902   8.422  50.221  1.00  0.00    -0.353 OA
HETATM   30  C1  UNL     1      26.237   8.054  50.037  1.00  0.00     0.210 C 
ENDBRANCH   1  29
BRANCH   6  31
HETATM   31  O2  UNL     1      22.581   9.340  49.356  1.00  0.00    -0.353 OA
HETATM   32  C8  UNL     1      21.411   9.914  48.880  1.00  0.00     0.210 C 
ENDBRANCH   6  31
TORSDOF 2
ENDMDL
MODEL 5
REMARK VINA RESULT:      -8.6      3.011      7.167
REMARK  2 active torsions:
REMARK  status: ('A' for Active; 'I' for Inactive)
REMARK    1  A    between atoms: O1_2  and  C2_3 
REMARK    2  A    between atoms: C7_8  and  O2_9 
ROOT
HETATM    1  C2  UNL     1      24.653   5.906  48.844  1.00  0.00     0.103 A 
HETATM    2  C3  UNL     1      24.832   4.895  49.735  1.00  0.00     0.073 A 
HETATM    3  C4  UNL     1      24.012   3.878  50.152  1.00  0.00     0.089 A 
HETATM    4  C5  UNL     1      22.742   3.909  49.513  1.00  0.00     0.088 A 
HETATM    5  C6  UNL     1      22.473   4.925  48.575  1.00  0.00     0.073 A 
HETATM    6  C7  UNL     1      23.387   5.866  48.265  1.00  0.00     0.103 A 
HETATM    7  N1  UNL     1      21.663   3.121  49.558  1.00  0.00    -0.254 NA
HETATM    8  C9  UNL     1      21.695   1.977  50.395  1.00  0.00     0.027 A 
HETATM    9  C10 UNL     1      21.953   1.642  51.789  1.00  0.00     0.064 A 
HETATM   10  C11 UNL     1      22.124   1.133  52.893  1.00  0.00    -0.007 A 
HETATM   11  C12 UNL     1      21.944  -0.272  52.937  1.00  0.00    -0.044 A 
HETATM   12  C13 UNL     1      21.677  -0.062  51.619  1.00  0.00     0.043 A 
HETATM   13  C14 UNL     1      21.534   0.646  50.533  1.00  0.00     0.056 A 
HETATM   14  P1  UNL     1      22.214  -1.117  54.515  1.00  0.00    -0.001 P 
HETATM   15  C15 UNL     1      24.011  -0.852  54.997  1.00  0.00     0.247 C 
HETATM   16  O3  UNL     1      24.812  -1.552  55.705  1.00  0.00    -0.268 OA
HETATM   17  N2  UNL     1      24.973   0.177  54.720  1.00  0.00    -0.321 N 
HETATM   18  C16 UNL     1      26.236   0.371  54.106  1.00  0.00     0.064 A 
HETATM   19  C17 UNL     1      27.225  -0.176  54.940  1.00  0.00     0.032 A 
HETATM   20  C18 UNL     1      28.561  -0.101  54.535  1.00  0.00     0.002 A 
HETATM   21  C19 UNL     1      28.882   0.500  53.339  1.00  0.00     0.002 A 
HETATM   22  C20 UNL     1      27.885   1.032  52.537  1.00  0.00     0.034 A 
HETATM   23  C21 UNL     1      26.565   0.967  52.921  1.00  0.00     0.085 A 
HETATM   24  N3  UNL     1      25.561   1.496  52.075  1.00  0.00    -0.240 NA
HETATM   25  C22 UNL     1      25.248   2.722  51.882  1.00  0.00     0.234 C 
HETATM   26  N4  UNL     1      24.238   3.036  51.016  1.00  0.00    -0.240 NA
HETATM   27  H13 UNL     1      21.375  -0.469  55.522  1.00  0.00     0.071 HD
HETATM   28  H14 UNL     1      24.384   0.922  55.190  1.00  0.00     0.169 HD
ENDROOT
BRANCH   1  29
HETATM   29  O1  UNL     1      25.529   6.882  48.487  1.00  0.00    -0.353 OA
HETATM   30  C1  UNL     1      26.615   7.352  49.229  1.00  0.00     0.210 C 
ENDBRANCH   1  29
BRANCH   6  31
HETATM   31  O2  UNL     1      23.150   6.881  47.340  1.00  0.00    -0.353 OA
HETATM   32  C8  UNL     1      22.308   7.939  47.653  1.00  0.00     0.210 C 
ENDBRANCH   6  31
TORSDOF 2
ENDMDL
MODEL 6
REMARK VINA RESULT:      -8.5      3.646      7.007
REMARK  2 active torsions:
REMARK  status: ('A' for Active; 'I' for Inactive)
REMARK    1  A    between atoms: O1_2  and  C2_3 
REMARK    2  A    between atoms: C7_8  and  O2_9 
ROOT
HETATM    1  C2  UNL     1      26.113   6.663  48.658  1.00  0.00     0.103 A 
HETATM    2  C3  UNL     1      25.729   5.566  49.364  1.00  0.00     0.073 A 
HETATM    3  C4  UNL     1      24.540   4.886  49.436  1.00  0.00     0.089 A 
HETATM    4  C5  UNL     1      23.539   5.456  48.604  1.00  0.00     0.088 A 
HETATM    5  C6  UNL     1      23.853   6.596  47.838  1.00  0.00     0.073 A 
HETATM    6  C7  UNL     1      25.077   7.159  47.871  1.00  0.00     0.103 A 
HETATM    7  N1  UNL     1      22.276   5.125  48.314  1.00  0.00    -0.254 NA
HETATM    8  C9  UNL     1      21.725   3.966  48.917  1.00  0.00     0.027 A 
HETATM    9  C10 UNL     1      21.528   3.408  50.249  1.00  0.00     0.064 A 
HETATM   10  C11 UNL     1      21.259   2.754  51.252  1.00  0.00    -0.007 A 
HETATM   11  C12 UNL     1      20.608   1.519  51.002  1.00  0.00    -0.044 A 
HETATM   12  C13 UNL     1      20.737   1.958  49.721  1.00  0.00     0.043 A 
HETATM   13  C14 UNL     1      21.095   2.783  48.777  1.00  0.00     0.056 A 
HETATM   14  P1  UNL     1      20.206   0.467  52.419  1.00  0.00    -0.001 P 
HETATM   15  C15 UNL     1      21.826  -0.009  53.246  1.00  0.00     0.247 C 
HETATM   16  O3  UNL     1      22.157  -1.030  53.940  1.00  0.00    -0.268 OA
HETATM   17  N2  UNL     1      23.116   0.613  53.335  1.00  0.00    -0.321 N 
HETATM   18  C16 UNL     1      24.475   0.392  52.996  1.00  0.00     0.064 A 
HETATM   19  C17 UNL     1      25.000  -0.571  53.872  1.00  0.00     0.032 A 
HETATM   20  C18 UNL     1      26.338  -0.954  53.726  1.00  0.00     0.002 A 
HETATM   21  C19 UNL     1      27.108  -0.387  52.736  1.00  0.00     0.002 A 
HETATM   22  C20 UNL     1      26.562   0.562  51.887  1.00  0.00     0.034 A 
HETATM   23  C21 UNL     1      25.248   0.950  52.018  1.00  0.00     0.085 A 
HETATM   24  N3  UNL     1      24.705   1.904  51.123  1.00  0.00    -0.240 NA
HETATM   25  C22 UNL     1      24.880   3.171  51.109  1.00  0.00     0.234 C 
HETATM   26  N4  UNL     1      24.263   3.931  50.155  1.00  0.00    -0.240 NA
HETATM   27  H13 UNL     1      19.431   1.264  53.368  1.00  0.00     0.071 HD
HETATM   28  H14 UNL     1      22.724   1.467  53.826  1.00  0.00     0.169 HD
ENDROOT
BRANCH   1  29
HETATM   29  O1  UNL     1      27.326   7.277  48.645  1.00  0.00    -0.353 OA
HETATM   30  C1  UNL     1      28.535   6.743  48.195  1.00  0.00     0.210 C 
ENDBRANCH   1  29
BRANCH   6  31
HETATM   31  O2  UNL     1      25.417   8.285  47.123  1.00  0.00    -0.353 OA
HETATM   32  C8  UNL     1      24.825   9.513  47.386  1.00  0.00     0.210 C 
ENDBRANCH   6  31
TORSDOF 2
ENDMDL
MODEL 7
REMARK VINA RESULT:      -8.4      4.214      6.427
REMARK  2 active torsions:
REMARK  status: ('A' for Active; 'I' for Inactive)
REMARK    1  A    between atoms: O1_2  and  C2_3 
REMARK    2  A    between atoms: C7_8  and  O2_9 
ROOT
HETATM    1  C2  UNL     1      21.017   0.407  51.779  1.00  0.00     0.103 A 
HETATM    2  C3  UNL     1      21.399   1.393  50.925  1.00  0.00     0.073 A 
HETATM    3  C4  UNL     1      22.599   2.026  50.724  1.00  0.00     0.089 A 
HETATM    4  C5  UNL     1      23.620   1.535  51.583  1.00  0.00     0.088 A 
HETATM    5  C6  UNL     1      23.309   0.512  52.500  1.00  0.00     0.073 A 
HETATM    6  C7  UNL     1      22.071  -0.016  52.584  1.00  0.00     0.103 A 
HETATM    7  N1  UNL     1      24.923   1.801  51.719  1.00  0.00    -0.254 NA
HETATM    8  C9  UNL     1      25.510   2.767  50.863  1.00  0.00     0.027 A 
HETATM    9  C10 UNL     1      25.305   4.154  50.468  1.00  0.00     0.064 A 
HETATM   10  C11 UNL     1      25.327   5.288  49.997  1.00  0.00    -0.007 A 
HETATM   11  C12 UNL     1      26.375   5.528  49.072  1.00  0.00    -0.044 A 
HETATM   12  C13 UNL     1      26.655   4.234  49.382  1.00  0.00     0.043 A 
HETATM   13  C14 UNL     1      26.478   3.090  49.983  1.00  0.00     0.056 A 
HETATM   14  P1  UNL     1      26.465   7.161  48.295  1.00  0.00    -0.001 P 
HETATM   15  C15 UNL     1      24.888   7.399  47.300  1.00  0.00     0.247 C 
HETATM   16  O3  UNL     1      24.639   8.096  46.257  1.00  0.00    -0.268 OA
HETATM   17  N2  UNL     1      23.552   6.888  47.416  1.00  0.00    -0.321 N 
HETATM   18  C16 UNL     1      22.599   6.116  46.705  1.00  0.00     0.064 A 
HETATM   19  C17 UNL     1      22.091   6.895  45.654  1.00  0.00     0.032 A 
HETATM   20  C18 UNL     1      21.127   6.336  44.808  1.00  0.00     0.002 A 
HETATM   21  C19 UNL     1      20.698   5.045  45.018  1.00  0.00     0.002 A 
HETATM   22  C20 UNL     1      21.217   4.300  46.065  1.00  0.00     0.034 A 
HETATM   23  C21 UNL     1      22.165   4.836  46.906  1.00  0.00     0.085 A 
HETATM   24  N3  UNL     1      22.699   4.048  47.955  1.00  0.00    -0.240 NA
HETATM   25  C22 UNL     1      22.157   3.737  49.072  1.00  0.00     0.234 C 
HETATM   26  N4  UNL     1      22.840   2.958  49.963  1.00  0.00    -0.240 NA
HETATM   27  H13 UNL     1      26.487   8.166  49.356  1.00  0.00     0.071 HD
HETATM   28  H14 UNL     1      23.417   7.323  48.374  1.00  0.00     0.169 HD
ENDROOT
BRANCH   1  29
HETATM   29  O1  UNL     1      19.792  -0.167  51.912  1.00  0.00    -0.353 OA
HETATM   30  C1  UNL     1      18.609   0.214  51.275  1.00  0.00     0.210 C 
ENDBRANCH   1  29
BRANCH   6  31
HETATM   31  O2  UNL     1      21.736  -1.029  53.480  1.00  0.00    -0.353 OA
HETATM   32  C8  UNL     1      22.296  -1.065  54.749  1.00  0.00     0.210 C 
ENDBRANCH   6  31
TORSDOF 2
ENDMDL
MODEL 8
REMARK VINA RESULT:      -8.1      8.806     12.962
REMARK  2 active torsions:
REMARK  status: ('A' for Active; 'I' for Inactive)
REMARK    1  A    between atoms: O1_2  and  C2_3 
REMARK    2  A    between atoms: C7_8  and  O2_9 
ROOT
HETATM    1  C2  UNL     1      24.680  13.306  47.862  1.00  0.00     0.103 A 
HETATM    2  C3  UNL     1      25.339  12.124  47.983  1.00  0.00     0.073 A 
HETATM    3  C4  UNL     1      26.672  11.819  48.102  1.00  0.00     0.089 A 
HETATM    4  C5  UNL     1      27.495  12.977  48.098  1.00  0.00     0.088 A 
HETATM    5  C6  UNL     1      26.892  14.245  47.976  1.00  0.00     0.073 A 
HETATM    6  C7  UNL     1      25.556  14.389  47.866  1.00  0.00     0.103 A 
HETATM    7  N1  UNL     1      28.810  13.180  48.233  1.00  0.00    -0.254 NA
HETATM    8  C9  UNL     1      29.651  12.056  48.430  1.00  0.00     0.027 A 
HETATM    9  C10 UNL     1      29.949  10.781  47.790  1.00  0.00     0.064 A 
HETATM   10  C11 UNL     1      30.357   9.680  47.433  1.00  0.00    -0.007 A 
HETATM   11  C12 UNL     1      31.351   9.112  48.271  1.00  0.00    -0.044 A 
HETATM   12  C13 UNL     1      31.151  10.282  48.937  1.00  0.00     0.043 A 
HETATM   13  C14 UNL     1      30.604  11.445  49.159  1.00  0.00     0.056 A 
HETATM   14  P1  UNL     1      31.986   7.471  47.845  1.00  0.00    -0.001 P 
HETATM   15  C15 UNL     1      30.545   6.268  47.934  1.00  0.00     0.247 C 
HETATM   16  O3  UNL     1      30.499   5.014  48.178  1.00  0.00    -0.268 OA
HETATM   17  N2  UNL     1      29.127   6.402  47.760  1.00  0.00    -0.321 N 
HETATM   18  C16 UNL     1      27.906   6.231  48.462  1.00  0.00     0.064 A 
HETATM   19  C17 UNL     1      27.651   4.856  48.581  1.00  0.00     0.032 A 
HETATM   20  C18 UNL     1      26.491   4.443  49.244  1.00  0.00     0.002 A 
HETATM   21  C19 UNL     1      25.628   5.382  49.764  1.00  0.00     0.002 A 
HETATM   22  C20 UNL     1      25.907   6.733  49.630  1.00  0.00     0.034 A 
HETATM   23  C21 UNL     1      27.043   7.155  48.979  1.00  0.00     0.085 A 
HETATM   24  N3  UNL     1      27.319   8.540  48.875  1.00  0.00    -0.240 NA
HETATM   25  C22 UNL     1      26.781   9.402  48.096  1.00  0.00     0.234 C 
HETATM   26  N4  UNL     1      27.187  10.706  48.145  1.00  0.00    -0.240 NA
HETATM   27  H13 UNL     1      32.456   7.513  46.462  1.00  0.00     0.071 HD
HETATM   28  H14 UNL     1      29.232   6.731  46.757  1.00  0.00     0.169 HD
ENDROOT
BRANCH   1  29
HETATM   29  O1  UNL     1      23.342  13.520  47.749  1.00  0.00    -0.353 OA
HETATM   30  C1  UNL     1      22.357  12.568  47.480  1.00  0.00     0.210 C 
ENDBRANCH   1  29
BRANCH   6  31
HETATM   31  O2  UNL     1      24.932  15.629  47.747  1.00  0.00    -0.353 OA
HETATM   32  C8  UNL     1      25.359  16.546  46.796  1.00  0.00     0.210 C 
ENDBRANCH   6  31
TORSDOF 2
ENDMDL
MODEL 9
REMARK VINA RESULT:      -8.1      2.678      3.296
REMARK  2 active torsions:
REMARK  status: ('A' for Active; 'I' for Inactive)
REMARK    1  A    between atoms: O1_2  and  C2_3 
REMARK    2  A    between atoms: C7_8  and  O2_9 
ROOT
HETATM    1  C2  UNL     1      25.695   0.643  53.319  1.00  0.00     0.103 A 
HETATM    2  C3  UNL     1      25.133   1.442  52.374  1.00  0.00     0.073 A 
HETATM    3  C4  UNL     1      23.882   1.465  51.811  1.00  0.00     0.089 A 
HETATM    4  C5  UNL     1      23.033   0.453  52.336  1.00  0.00     0.088 A 
HETATM    5  C6  UNL     1      23.537  -0.419  53.321  1.00  0.00     0.073 A 
HETATM    6  C7  UNL     1      24.801  -0.319  53.781  1.00  0.00     0.103 A 
HETATM    7  N1  UNL     1      21.753   0.123  52.138  1.00  0.00    -0.254 NA
HETATM    8  C9  UNL     1      20.990   0.891  51.223  1.00  0.00     0.027 A 
HETATM    9  C10 UNL     1      21.054   1.331  49.836  1.00  0.00     0.064 A 
HETATM   10  C11 UNL     1      20.898   1.809  48.716  1.00  0.00    -0.007 A 
HETATM   11  C12 UNL     1      19.710   2.565  48.551  1.00  0.00    -0.044 A 
HETATM   12  C13 UNL     1      19.553   2.199  49.852  1.00  0.00     0.043 A 
HETATM   13  C14 UNL     1      19.883   1.617  50.971  1.00  0.00     0.056 A 
HETATM   14  P1  UNL     1      19.411   3.341  46.943  1.00  0.00    -0.001 P 
HETATM   15  C15 UNL     1      20.802   4.569  46.643  1.00  0.00     0.247 C 
HETATM   16  O3  UNL     1      20.850   5.646  45.957  1.00  0.00    -0.268 OA
HETATM   17  N2  UNL     1      22.167   4.651  47.080  1.00  0.00    -0.321 N 
HETATM   18  C16 UNL     1      23.042   5.490  47.815  1.00  0.00     0.064 A 
HETATM   19  C17 UNL     1      23.340   6.617  47.032  1.00  0.00     0.032 A 
HETATM   20  C18 UNL     1      24.194   7.593  47.557  1.00  0.00     0.002 A 
HETATM   21  C19 UNL     1      24.721   7.434  48.819  1.00  0.00     0.002 A 
HETATM   22  C20 UNL     1      24.410   6.310  49.568  1.00  0.00     0.034 A 
HETATM   23  C21 UNL     1      23.572   5.341  49.065  1.00  0.00     0.085 A 
HETATM   24  N3  UNL     1      23.249   4.213  49.858  1.00  0.00    -0.240 NA
HETATM   25  C22 UNL     1      23.971   3.188  50.115  1.00  0.00     0.234 C 
HETATM   26  N4  UNL     1      23.477   2.192  50.910  1.00  0.00    -0.240 NA
HETATM   27  H13 UNL     1      19.495   2.303  45.918  1.00  0.00     0.071 HD
HETATM   28  H14 UNL     1      22.421   3.732  46.617  1.00  0.00     0.169 HD
ENDROOT
BRANCH   1  29
HETATM   29  O1  UNL     1      26.956   0.691  53.825  1.00  0.00    -0.353 OA
HETATM   30  C1  UNL     1      28.117   0.179  53.242  1.00  0.00     0.210 C 
ENDBRANCH   1  29
BRANCH   6  31
HETATM   31  O2  UNL     1      25.325  -1.166  54.755  1.00  0.00    -0.353 OA
HETATM   32  C8  UNL     1      24.689  -1.315  55.979  1.00  0.00     0.210 C 
ENDBRANCH   6  31
TORSDOF 2
ENDMDL
