MODEL 1
REMARK VINA RESULT:      -7.3      0.000      0.000
REMARK  6 active torsions:
REMARK  status: ('A' for Active; 'I' for Inactive)
REMARK    1  A    between atoms: N1_2  and  C2_3 
REMARK       I    between atoms: N1_2  and  C11_13 
REMARK    2  A    between atoms: C2_3  and  C3_4 
REMARK    3  A    between atoms: C3_4  and  C4_5 
REMARK    4  A    between atoms: C4_5  and  N2_6 
REMARK    5  A    between atoms: C11_13  and  C12_15 
REMARK    6  A    between atoms: C15_18  and  C16_19 
ROOT
HETATM    1  C1  UNL     1      22.506   1.988  50.316  1.00  0.00     0.152 C 
HETATM    2  N1  UNL     1      22.810   2.052  51.742  1.00  0.00    -0.352 N 
HETATM    3  C11 UNL     1      23.942   2.779  52.259  1.00  0.00     0.253 C 
HETATM    4  O1  UNL     1      24.431   2.998  53.415  1.00  0.00    -0.267 OA
ENDROOT
BRANCH   2   5
HETATM    5  C2  UNL     1      21.920   1.346  52.649  1.00  0.00     0.127 C 
BRANCH   5   6
HETATM    6  C3  UNL     1      22.027  -0.171  52.464  1.00  0.00     0.040 C 
BRANCH   6   7
HETATM    7  C4  UNL     1      22.766  -0.660  53.706  1.00  0.00     0.131 C 
BRANCH   7   8
HETATM    8  N2  UNL     1      24.199  -0.523  53.593  1.00  0.00    -0.343 N 
HETATM    9  C5  UNL     1      25.475  -0.548  52.951  1.00  0.00     0.062 A 
HETATM   10  C6  UNL     1      26.726  -0.559  52.372  1.00  0.00     0.032 A 
HETATM   11  C10 UNL     1      25.439  -0.190  54.272  1.00  0.00     0.062 A 
HETATM   12  C7  UNL     1      27.880  -0.231  53.071  1.00  0.00     0.002 A 
HETATM   13  C8  UNL     1      27.770   0.126  54.419  1.00  0.00     0.002 A 
HETATM   14  C9  UNL     1      26.545   0.156  55.056  1.00  0.00     0.032 A 
ENDBRANCH   7   8
ENDBRANCH   6   7
ENDBRANCH   5   6
ENDBRANCH   2   5
BRANCH   3  15
HETATM   15  C12 UNL     1      24.785   3.460  51.280  1.00  0.00     0.032 A 
HETATM   16  C13 UNL     1      25.916   2.938  50.684  1.00  0.00     0.017 A 
HETATM   17  C14 UNL     1      26.641   3.679  49.765  1.00  0.00     0.009 A 
HETATM   18  C15 UNL     1      26.259   4.961  49.415  1.00  0.00    -0.044 A 
HETATM   19  C17 UNL     1      25.123   5.479  50.017  1.00  0.00     0.009 A 
HETATM   20  C18 UNL     1      24.397   4.745  50.933  1.00  0.00     0.017 A 
BRANCH  18  21
HETATM   21  C16 UNL     1      27.011   5.797  48.428  1.00  0.00     0.153 C 
HETATM   22 CL1  UNL     1      28.699   5.212  48.297  1.00  0.00    -0.126 Cl
ENDBRANCH  18  21
ENDBRANCH   3  15
TORSDOF 6
ENDMDL
MODEL 2
REMARK VINA RESULT:      -7.3      1.166      1.385
REMARK  6 active torsions:
REMARK  status: ('A' for Active; 'I' for Inactive)
REMARK    1  A    between atoms: N1_2  and  C2_3 
REMARK       I    between atoms: N1_2  and  C11_13 
REMARK    2  A    between atoms: C2_3  and  C3_4 
REMARK    3  A    between atoms: C3_4  and  C4_5 
REMARK    4  A    between atoms: C4_5  and  N2_6 
REMARK    5  A    between atoms: C11_13  and  C12_15 
REMARK    6  A    between atoms: C15_18  and  C16_19 
ROOT
HETATM    1  C1  UNL     1      24.218   3.192  52.857  1.00  0.00     0.152 C 
HETATM    2  N1  UNL     1      23.302   2.508  51.949  1.00  0.00    -0.352 N 
HETATM    3  C11 UNL     1      23.424   2.599  50.516  1.00  0.00     0.253 C 
HETATM    4  O1  UNL     1      22.790   2.126  49.518  1.00  0.00    -0.267 OA
ENDROOT
BRANCH   2   5
HETATM    5  C2  UNL     1      22.239   1.713  52.542  1.00  0.00     0.127 C 
BRANCH   5   6
HETATM    6  C3  UNL     1      22.469   0.217  52.309  1.00  0.00     0.040 C 
BRANCH   6   7
HETATM    7  C4  UNL     1      23.065  -0.290  53.620  1.00  0.00     0.131 C 
BRANCH   7   8
HETATM    8  N2  UNL     1      24.502  -0.414  53.567  1.00  0.00    -0.343 N 
HETATM    9  C5  UNL     1      25.766  -0.852  53.066  1.00  0.00     0.062 A 
HETATM   10  C6  UNL     1      27.007  -1.251  52.617  1.00  0.00     0.032 A 
HETATM   11  C10 UNL     1      25.770  -0.050  54.175  1.00  0.00     0.062 A 
HETATM   12  C7  UNL     1      28.189  -0.871  53.238  1.00  0.00     0.002 A 
HETATM   13  C8  UNL     1      28.119  -0.050  54.369  1.00  0.00     0.002 A 
HETATM   14  C9  UNL     1      26.906   0.383  54.867  1.00  0.00     0.032 A 
ENDBRANCH   7   8
ENDBRANCH   6   7
ENDBRANCH   5   6
ENDBRANCH   2   5
BRANCH   3  15
HETATM   15  C12 UNL     1      24.519   3.418  50.003  1.00  0.00     0.032 A 
HETATM   16  C13 UNL     1      25.844   3.041  49.927  1.00  0.00     0.017 A 
HETATM   17  C14 UNL     1      26.802   3.905  49.420  1.00  0.00     0.009 A 
HETATM   18  C15 UNL     1      26.463   5.170  48.975  1.00  0.00    -0.044 A 
HETATM   19  C17 UNL     1      25.130   5.542  49.053  1.00  0.00     0.009 A 
HETATM   20  C18 UNL     1      24.172   4.685  49.558  1.00  0.00     0.017 A 
BRANCH  18  21
HETATM   21  C16 UNL     1      27.462   6.135  48.420  1.00  0.00     0.153 C 
HETATM   22 CL1  UNL     1      29.040   5.318  48.200  1.00  0.00    -0.126 Cl
ENDBRANCH  18  21
ENDBRANCH   3  15
TORSDOF 6
ENDMDL
MODEL 3
REMARK VINA RESULT:      -7.2      2.590      5.165
REMARK  6 active torsions:
REMARK  status: ('A' for Active; 'I' for Inactive)
REMARK    1  A    between atoms: N1_2  and  C2_3 
REMARK       I    between atoms: N1_2  and  C11_13 
REMARK    2  A    between atoms: C2_3  and  C3_4 
REMARK    3  A    between atoms: C3_4  and  C4_5 
REMARK    4  A    between atoms: C4_5  and  N2_6 
REMARK    5  A    between atoms: C11_13  and  C12_15 
REMARK    6  A    between atoms: C15_18  and  C16_19 
ROOT
HETATM    1  C1  UNL     1      26.379   2.686  50.184  1.00  0.00     0.152 C 
HETATM    2  N1  UNL     1      25.421   3.072  51.215  1.00  0.00    -0.352 N 
HETATM    3  C11 UNL     1      25.557   2.660  52.590  1.00  0.00     0.253 C 
HETATM    4  O1  UNL     1      24.896   2.841  53.662  1.00  0.00    -0.267 OA
ENDROOT
BRANCH   2   5
HETATM    5  C2  UNL     1      24.298   3.901  50.810  1.00  0.00     0.127 C 
BRANCH   5   6
HETATM    6  C3  UNL     1      23.204   3.066  50.139  1.00  0.00     0.040 C 
BRANCH   6   7
HETATM    7  C4  UNL     1      22.061   3.044  51.150  1.00  0.00     0.131 C 
BRANCH   7   8
HETATM    8  N2  UNL     1      22.087   1.875  51.996  1.00  0.00    -0.343 N 
HETATM    9  C5  UNL     1      22.589   0.646  52.525  1.00  0.00     0.062 A 
HETATM   10  C6  UNL     1      23.036  -0.542  53.063  1.00  0.00     0.032 A 
HETATM   11  C10 UNL     1      21.424   1.132  53.054  1.00  0.00     0.062 A 
HETATM   12  C7  UNL     1      22.359  -1.210  54.075  1.00  0.00     0.002 A 
HETATM   13  C8  UNL     1      21.174  -0.655  54.570  1.00  0.00     0.002 A 
HETATM   14  C9  UNL     1      20.674   0.532  54.071  1.00  0.00     0.032 A 
ENDBRANCH   7   8
ENDBRANCH   6   7
ENDBRANCH   5   6
ENDBRANCH   2   5
BRANCH   3  15
HETATM   15  C12 UNL     1      26.713   1.827  52.912  1.00  0.00     0.032 A 
HETATM   16  C13 UNL     1      27.930   2.280  53.381  1.00  0.00     0.017 A 
HETATM   17  C14 UNL     1      28.961   1.394  53.654  1.00  0.00     0.009 A 
HETATM   18  C15 UNL     1      28.806   0.033  53.464  1.00  0.00    -0.044 A 
HETATM   19  C17 UNL     1      27.581  -0.415  52.993  1.00  0.00     0.009 A 
HETATM   20  C18 UNL     1      26.551   0.463  52.720  1.00  0.00     0.017 A 
BRANCH  18  21
HETATM   21  C16 UNL     1      29.889  -0.960  53.746  1.00  0.00     0.153 C 
HETATM   22 CL1  UNL     1      29.338  -2.604  53.299  1.00  0.00    -0.126 Cl
ENDBRANCH  18  21
ENDBRANCH   3  15
TORSDOF 6
ENDMDL
MODEL 4
REMARK VINA RESULT:      -7.0      2.331      5.866
REMARK  6 active torsions:
REMARK  status: ('A' for Active; 'I' for Inactive)
REMARK    1  A    between atoms: N1_2  and  C2_3 
REMARK       I    between atoms: N1_2  and  C11_13 
REMARK    2  A    between atoms: C2_3  and  C3_4 
REMARK    3  A    between atoms: C3_4  and  C4_5 
REMARK    4  A    between atoms: C4_5  and  N2_6 
REMARK    5  A    between atoms: C11_13  and  C12_15 
REMARK    6  A    between atoms: C15_18  and  C16_19 
ROOT
HETATM    1  C1  UNL     1      24.027   3.737  53.252  1.00  0.00     0.152 C 
HETATM    2  N1  UNL     1      23.058   3.125  52.348  1.00  0.00    -0.352 N 
HETATM    3  C11 UNL     1      23.204   1.779  51.854  1.00  0.00     0.253 C 
HETATM    4  O1  UNL     1      22.537   1.017  51.081  1.00  0.00    -0.267 OA
ENDROOT
BRANCH   2   5
HETATM    5  C2  UNL     1      21.914   3.928  51.949  1.00  0.00     0.127 C 
BRANCH   5   6
HETATM    6  C3  UNL     1      22.357   5.262  51.339  1.00  0.00     0.040 C 
BRANCH   6   7
HETATM    7  C4  UNL     1      22.613   4.947  49.868  1.00  0.00     0.131 C 
BRANCH   7   8
HETATM    8  N2  UNL     1      23.985   5.174  49.480  1.00  0.00    -0.343 N 
HETATM    9  C5  UNL     1      25.106   5.907  48.982  1.00  0.00     0.062 A 
HETATM   10  C6  UNL     1      26.215   6.576  48.508  1.00  0.00     0.032 A 
HETATM   11  C10 UNL     1      25.317   4.609  49.363  1.00  0.00     0.062 A 
HETATM   12  C7  UNL     1      27.467   5.984  48.419  1.00  0.00     0.002 A 
HETATM   13  C8  UNL     1      27.612   4.653  48.825  1.00  0.00     0.002 A 
HETATM   14  C9  UNL     1      26.540   3.930  49.309  1.00  0.00     0.032 A 
ENDBRANCH   7   8
ENDBRANCH   6   7
ENDBRANCH   5   6
ENDBRANCH   2   5
BRANCH   3  15
HETATM   15  C12 UNL     1      24.382   1.042  52.303  1.00  0.00     0.032 A 
HETATM   16  C13 UNL     1      24.407   0.088  53.301  1.00  0.00     0.017 A 
HETATM   17  C14 UNL     1      25.588  -0.550  53.645  1.00  0.00     0.009 A 
HETATM   18  C15 UNL     1      26.777  -0.253  53.004  1.00  0.00    -0.044 A 
HETATM   19  C17 UNL     1      26.745   0.705  52.003  1.00  0.00     0.009 A 
HETATM   20  C18 UNL     1      25.571   1.344  51.656  1.00  0.00     0.017 A 
BRANCH  18  21
HETATM   21  C16 UNL     1      28.075  -0.917  53.341  1.00  0.00     0.153 C 
HETATM   22 CL1  UNL     1      29.374   0.311  53.451  1.00  0.00    -0.126 Cl
ENDBRANCH  18  21
ENDBRANCH   3  15
TORSDOF 6
ENDMDL
MODEL 5
REMARK VINA RESULT:      -6.7      2.639      6.053
REMARK  6 active torsions:
REMARK  status: ('A' for Active; 'I' for Inactive)
REMARK    1  A    between atoms: N1_2  and  C2_3 
REMARK       I    between atoms: N1_2  and  C11_13 
REMARK    2  A    between atoms: C2_3  and  C3_4 
REMARK    3  A    between atoms: C3_4  and  C4_5 
REMARK    4  A    between atoms: C4_5  and  N2_6 
REMARK    5  A    between atoms: C11_13  and  C12_15 
REMARK    6  A    between atoms: C15_18  and  C16_19 
ROOT
HETATM    1  C1  UNL     1      23.455   2.642  50.033  1.00  0.00     0.152 C 
HETATM    2  N1  UNL     1      23.219   3.561  51.142  1.00  0.00    -0.352 N 
HETATM    3  C11 UNL     1      23.949   3.478  52.382  1.00  0.00     0.253 C 
HETATM    4  O1  UNL     1      23.951   4.124  53.480  1.00  0.00    -0.267 OA
ENDROOT
BRANCH   2   5
HETATM    5  C2  UNL     1      22.204   4.585  50.959  1.00  0.00     0.127 C 
BRANCH   5   6
HETATM    6  C3  UNL     1      22.515   5.464  49.743  1.00  0.00     0.040 C 
BRANCH   6   7
HETATM    7  C4  UNL     1      23.602   6.420  50.226  1.00  0.00     0.131 C 
BRANCH   7   8
HETATM    8  N2  UNL     1      24.908   6.084  49.709  1.00  0.00    -0.343 N 
HETATM    9  C5  UNL     1      26.012   5.242  49.372  1.00  0.00     0.062 A 
HETATM   10  C6  UNL     1      27.100   4.467  49.031  1.00  0.00     0.032 A 
HETATM   11  C10 UNL     1      26.123   6.576  49.084  1.00  0.00     0.062 A 
HETATM   12  C7  UNL     1      28.238   4.992  48.434  1.00  0.00     0.002 A 
HETATM   13  C8  UNL     1      28.284   6.365  48.167  1.00  0.00     0.002 A 
HETATM   14  C9  UNL     1      27.227   7.194  48.485  1.00  0.00     0.032 A 
ENDBRANCH   7   8
ENDBRANCH   6   7
ENDBRANCH   5   6
ENDBRANCH   2   5
BRANCH   3  15
HETATM   15  C12 UNL     1      24.950   2.420  52.483  1.00  0.00     0.032 A 
HETATM   16  C13 UNL     1      26.252   2.492  52.031  1.00  0.00     0.017 A 
HETATM   17  C14 UNL     1      27.117   1.420  52.181  1.00  0.00     0.009 A 
HETATM   18  C15 UNL     1      26.707   0.246  52.785  1.00  0.00    -0.044 A 
HETATM   19  C17 UNL     1      25.398   0.180  53.237  1.00  0.00     0.009 A 
HETATM   20  C18 UNL     1      24.532   1.245  53.090  1.00  0.00     0.017 A 
BRANCH  18  21
HETATM   21  C16 UNL     1      27.606  -0.936  52.969  1.00  0.00     0.153 C 
HETATM   22 CL1  UNL     1      26.851  -2.392  52.250  1.00  0.00    -0.126 Cl
ENDBRANCH  18  21
ENDBRANCH   3  15
TORSDOF 6
ENDMDL
MODEL 6
REMARK VINA RESULT:      -6.7      2.709      6.209
REMARK  6 active torsions:
REMARK  status: ('A' for Active; 'I' for Inactive)
REMARK    1  A    between atoms: N1_2  and  C2_3 
REMARK       I    between atoms: N1_2  and  C11_13 
REMARK    2  A    between atoms: C2_3  and  C3_4 
REMARK    3  A    between atoms: C3_4  and  C4_5 
REMARK    4  A    between atoms: C4_5  and  N2_6 
REMARK    5  A    between atoms: C11_13  and  C12_15 
REMARK    6  A    between atoms: C15_18  and  C16_19 
ROOT
HETATM    1  C1  UNL     1      23.364   4.712  52.718  1.00  0.00     0.152 C 
HETATM    2  N1  UNL     1      22.356   4.285  51.753  1.00  0.00    -0.352 N 
HETATM    3  C11 UNL     1      22.255   2.922  51.293  1.00  0.00     0.253 C 
HETATM    4  O1  UNL     1      21.501   2.290  50.485  1.00  0.00    -0.267 OA
ENDROOT
BRANCH   2   5
HETATM    5  C2  UNL     1      21.434   5.293  51.255  1.00  0.00     0.127 C 
BRANCH   5   6
HETATM    6  C3  UNL     1      22.184   6.454  50.596  1.00  0.00     0.040 C 
BRANCH   6   7
HETATM    7  C4  UNL     1      22.556   5.936  49.209  1.00  0.00     0.131 C 
BRANCH   7   8
HETATM    8  N2  UNL     1      23.983   5.869  49.003  1.00  0.00    -0.343 N 
HETATM    9  C5  UNL     1      25.280   6.335  48.628  1.00  0.00     0.062 A 
HETATM   10  C6  UNL     1      26.549   6.742  48.276  1.00  0.00     0.032 A 
HETATM   11  C10 UNL     1      25.182   5.055  49.103  1.00  0.00     0.062 A 
HETATM   12  C7  UNL     1      27.662   5.920  48.393  1.00  0.00     0.002 A 
HETATM   13  C8  UNL     1      27.489   4.623  48.888  1.00  0.00     0.002 A 
HETATM   14  C9  UNL     1      26.243   4.156  49.257  1.00  0.00     0.032 A 
ENDBRANCH   7   8
ENDBRANCH   6   7
ENDBRANCH   5   6
ENDBRANCH   2   5
BRANCH   3  15
HETATM   15  C12 UNL     1      23.220   1.973  51.842  1.00  0.00     0.032 A 
HETATM   16  C13 UNL     1      24.547   1.866  51.477  1.00  0.00     0.017 A 
HETATM   17  C14 UNL     1      25.373   0.923  52.068  1.00  0.00     0.009 A 
HETATM   18  C15 UNL     1      24.897   0.061  53.039  1.00  0.00    -0.044 A 
HETATM   19  C17 UNL     1      23.564   0.174  53.402  1.00  0.00     0.009 A 
HETATM   20  C18 UNL     1      22.737   1.112  52.816  1.00  0.00     0.017 A 
BRANCH  18  21
HETATM   21  C16 UNL     1      25.752  -0.971  53.705  1.00  0.00     0.153 C 
HETATM   22 CL1  UNL     1      27.001  -1.555  52.562  1.00  0.00    -0.126 Cl
ENDBRANCH  18  21
ENDBRANCH   3  15
TORSDOF 6
ENDMDL
MODEL 7
REMARK VINA RESULT:      -6.5      1.451      2.308
REMARK  6 active torsions:
REMARK  status: ('A' for Active; 'I' for Inactive)
REMARK    1  A    between atoms: N1_2  and  C2_3 
REMARK       I    between atoms: N1_2  and  C11_13 
REMARK    2  A    between atoms: C2_3  and  C3_4 
REMARK    3  A    between atoms: C3_4  and  C4_5 
REMARK    4  A    between atoms: C4_5  and  N2_6 
REMARK    5  A    between atoms: C11_13  and  C12_15 
REMARK    6  A    between atoms: C15_18  and  C16_19 
ROOT
HETATM    1  C1  UNL     1      22.757   2.889  48.198  1.00  0.00     0.152 C 
HETATM    2  N1  UNL     1      22.491   3.032  49.626  1.00  0.00    -0.352 N 
HETATM    3  C11 UNL     1      23.395   3.718  50.515  1.00  0.00     0.253 C 
HETATM    4  O1  UNL     1      23.417   3.985  51.760  1.00  0.00    -0.267 OA
ENDROOT
BRANCH   2   5
HETATM    5  C2  UNL     1      21.262   2.452  50.141  1.00  0.00     0.127 C 
BRANCH   5   6
HETATM    6  C3  UNL     1      21.460   0.982  50.523  1.00  0.00     0.040 C 
BRANCH   6   7
HETATM    7  C4  UNL     1      21.516   0.984  52.048  1.00  0.00     0.131 C 
BRANCH   7   8
HETATM    8  N2  UNL     1      22.805   0.584  52.560  1.00  0.00    -0.343 N 
HETATM    9  C5  UNL     1      23.727  -0.061  53.440  1.00  0.00     0.062 A 
HETATM   10  C6  UNL     1      24.653  -0.665  54.265  1.00  0.00     0.032 A 
HETATM   11  C10 UNL     1      24.246   0.649  52.391  1.00  0.00     0.062 A 
HETATM   12  C7  UNL     1      26.022  -0.569  54.054  1.00  0.00     0.002 A 
HETATM   13  C8  UNL     1      26.483   0.172  52.961  1.00  0.00     0.002 A 
HETATM   14  C9  UNL     1      25.606   0.801  52.099  1.00  0.00     0.032 A 
ENDBRANCH   7   8
ENDBRANCH   6   7
ENDBRANCH   5   6
ENDBRANCH   2   5
BRANCH   3  15
HETATM   15  C12 UNL     1      24.607   4.272  49.917  1.00  0.00     0.032 A 
HETATM   16  C13 UNL     1      24.731   5.527  49.355  1.00  0.00     0.017 A 
HETATM   17  C14 UNL     1      25.936   5.947  48.814  1.00  0.00     0.009 A 
HETATM   18  C15 UNL     1      27.049   5.127  48.818  1.00  0.00    -0.044 A 
HETATM   19  C17 UNL     1      26.918   3.869  49.384  1.00  0.00     0.009 A 
HETATM   20  C18 UNL     1      25.720   3.445  49.924  1.00  0.00     0.017 A 
BRANCH  18  21
HETATM   21  C16 UNL     1      28.370   5.539  48.247  1.00  0.00     0.153 C 
HETATM   22 CL1  UNL     1      28.215   7.136  47.451  1.00  0.00    -0.126 Cl
ENDBRANCH  18  21
ENDBRANCH   3  15
TORSDOF 6
ENDMDL
MODEL 8
REMARK VINA RESULT:      -6.3      2.615      5.970
REMARK  6 active torsions:
REMARK  status: ('A' for Active; 'I' for Inactive)
REMARK    1  A    between atoms: N1_2  and  C2_3 
REMARK       I    between atoms: N1_2  and  C11_13 
REMARK    2  A    between atoms: C2_3  and  C3_4 
REMARK    3  A    between atoms: C3_4  and  C4_5 
REMARK    4  A    between atoms: C4_5  and  N2_6 
REMARK    5  A    between atoms: C11_13  and  C12_15 
REMARK    6  A    between atoms: C15_18  and  C16_19 
ROOT
HETATM    1  C1  UNL     1      21.554   1.081  49.654  1.00  0.00     0.152 C 
HETATM    2  N1  UNL     1      21.228   2.339  50.318  1.00  0.00    -0.352 N 
HETATM    3  C11 UNL     1      21.776   2.700  51.601  1.00  0.00     0.253 C 
HETATM    4  O1  UNL     1      21.670   3.697  52.386  1.00  0.00    -0.267 OA
ENDROOT
BRANCH   2   5
HETATM    5  C2  UNL     1      20.314   3.240  49.636  1.00  0.00     0.127 C 
BRANCH   5   6
HETATM    6  C3  UNL     1      20.930   3.781  48.342  1.00  0.00     0.040 C 
BRANCH   6   7
HETATM    7  C4  UNL     1      21.635   5.068  48.759  1.00  0.00     0.131 C 
BRANCH   7   8
HETATM    8  N2  UNL     1      23.064   4.908  48.879  1.00  0.00    -0.343 N 
HETATM    9  C5  UNL     1      24.294   4.227  49.135  1.00  0.00     0.062 A 
HETATM   10  C6  UNL     1      25.503   3.610  49.374  1.00  0.00     0.032 A 
HETATM   11  C10 UNL     1      24.366   5.543  48.764  1.00  0.00     0.062 A 
HETATM   12  C7  UNL     1      26.720   4.266  49.248  1.00  0.00     0.002 A 
HETATM   13  C8  UNL     1      26.720   5.612  48.865  1.00  0.00     0.002 A 
HETATM   14  C9  UNL     1      25.541   6.286  48.612  1.00  0.00     0.032 A 
ENDBRANCH   7   8
ENDBRANCH   6   7
ENDBRANCH   5   6
ENDBRANCH   2   5
BRANCH   3  15
HETATM   15  C12 UNL     1      22.686   1.739  52.218  1.00  0.00     0.032 A 
HETATM   16  C13 UNL     1      22.316   0.590  52.889  1.00  0.00     0.017 A 
HETATM   17  C14 UNL     1      23.271  -0.252  53.437  1.00  0.00     0.009 A 
HETATM   18  C15 UNL     1      24.620   0.030  53.332  1.00  0.00    -0.044 A 
HETATM   19  C17 UNL     1      24.985   1.184  52.658  1.00  0.00     0.009 A 
HETATM   20  C18 UNL     1      24.038   2.027  52.110  1.00  0.00     0.017 A 
BRANCH  18  21
HETATM   21  C16 UNL     1      25.685  -0.850  53.908  1.00  0.00     0.153 C 
HETATM   22 CL1  UNL     1      26.661  -1.566  52.587  1.00  0.00    -0.126 Cl
ENDBRANCH  18  21
ENDBRANCH   3  15
TORSDOF 6
ENDMDL
MODEL 9
REMARK VINA RESULT:      -6.3      3.019      5.743
REMARK  6 active torsions:
REMARK  status: ('A' for Active; 'I' for Inactive)
REMARK    1  A    between atoms: N1_2  and  C2_3 
REMARK       I    between atoms: N1_2  and  C11_13 
REMARK    2  A    between atoms: C2_3  and  C3_4 
REMARK    3  A    between atoms: C3_4  and  C4_5 
REMARK    4  A    between atoms: C4_5  and  N2_6 
REMARK    5  A    between atoms: C11_13  and  C12_15 
REMARK    6  A    between atoms: C15_18  and  C16_19 
ROOT
HETATM    1  C1  UNL     1      23.789   4.835  52.520  1.00  0.00     0.152 C 
HETATM    2  N1  UNL     1      23.594   4.715  51.079  1.00  0.00    -0.352 N 
HETATM    3  C11 UNL     1      24.101   3.598  50.321  1.00  0.00     0.253 C 
HETATM    4  O1  UNL     1      24.080   3.246  49.098  1.00  0.00    -0.267 OA
ENDROOT
BRANCH   2   5
HETATM    5  C2  UNL     1      22.857   5.775  50.411  1.00  0.00     0.127 C 
BRANCH   5   6
HETATM    6  C3  UNL     1      21.603   6.163  51.201  1.00  0.00     0.040 C 
BRANCH   6   7
HETATM    7  C4  UNL     1      20.490   5.310  50.600  1.00  0.00     0.131 C 
BRANCH   7   8
HETATM    8  N2  UNL     1      20.503   3.951  51.088  1.00  0.00    -0.343 N 
HETATM    9  C5  UNL     1      20.470   2.902  52.057  1.00  0.00     0.062 A 
HETATM   10  C6  UNL     1      20.443   1.859  52.958  1.00  0.00     0.032 A 
HETATM   11  C10 UNL     1      20.578   2.543  50.740  1.00  0.00     0.062 A 
HETATM   12  C7  UNL     1      20.518   0.528  52.568  1.00  0.00     0.002 A 
HETATM   13  C8  UNL     1      20.627   0.233  51.205  1.00  0.00     0.002 A 
HETATM   14  C9  UNL     1      20.660   1.234  50.254  1.00  0.00     0.032 A 
ENDBRANCH   7   8
ENDBRANCH   6   7
ENDBRANCH   5   6
ENDBRANCH   2   5
BRANCH   3  15
HETATM   15  C12 UNL     1      24.830   2.577  51.069  1.00  0.00     0.032 A 
HETATM   16  C13 UNL     1      26.202   2.494  51.197  1.00  0.00     0.017 A 
HETATM   17  C14 UNL     1      26.786   1.476  51.934  1.00  0.00     0.009 A 
HETATM   18  C15 UNL     1      26.018   0.513  52.562  1.00  0.00    -0.044 A 
HETATM   19  C17 UNL     1      24.641   0.603  52.429  1.00  0.00     0.009 A 
HETATM   20  C18 UNL     1      24.054   1.614  51.696  1.00  0.00     0.017 A 
BRANCH  18  21
HETATM   21  C16 UNL     1      26.605  -0.603  53.368  1.00  0.00     0.153 C 
HETATM   22 CL1  UNL     1      26.793  -2.059  52.343  1.00  0.00    -0.126 Cl
ENDBRANCH  18  21
ENDBRANCH   3  15
TORSDOF 6
ENDMDL
