MODEL 1
REMARK VINA RESULT:      -6.4      0.000      0.000
REMARK  3 active torsions:
REMARK  status: ('A' for Active; 'I' for Inactive)
REMARK    1  A    between atoms: C7_9  and  C8_10 
REMARK    2  A    between atoms: C11_13  and  O1_14 
REMARK    3  A    between atoms: C14_17  and  S1_18 
ROOT
HETATM    1  C1  UNL     1      21.896   3.269  46.690  1.00  0.00     0.045 C 
HETATM    2  C2  UNL     1      21.831   3.026  47.989  1.00  0.00     0.048 A 
HETATM    3  C3  UNL     1      21.608   3.987  49.065  1.00  0.00     0.041 A 
HETATM    4  C4  UNL     1      21.610   3.351  50.252  1.00  0.00    -0.009 A 
HETATM    5  C5  UNL     1      21.403   4.117  51.498  1.00  0.00     0.191 C 
HETATM    6  N1  UNL     1      20.598   3.438  52.467  1.00  0.00    -0.281 NA
HETATM    7  C6  UNL     1      20.351   2.180  52.578  1.00  0.00     0.197 C 
HETATM    8  N2  UNL     1      20.713   1.001  51.877  1.00  0.00    -0.371 N 
HETATM    9  C7  UNL     1      21.905   0.945  51.036  1.00  0.00     0.169 C 
HETATM   10  C16 UNL     1      21.838   1.963  49.954  1.00  0.00     0.070 A 
HETATM   11  N3  UNL     1      21.964   1.780  48.662  1.00  0.00    -0.251 NA
HETATM   12  H7  UNL     1      20.095   0.166  51.981  1.00  0.00     0.161 HD
ENDROOT
BRANCH   9  13
HETATM   13  C8  UNL     1      23.102   1.102  51.903  1.00  0.00    -0.013 A 
HETATM   14  C9  UNL     1      23.970   2.155  51.703  1.00  0.00     0.013 A 
HETATM   15  C10 UNL     1      25.101   2.375  52.458  1.00  0.00     0.037 A 
HETATM   16  C11 UNL     1      25.412   1.508  53.486  1.00  0.00     0.069 A 
HETATM   17  C13 UNL     1      24.568   0.445  53.716  1.00  0.00     0.055 A 
HETATM   18  C14 UNL     1      23.445   0.259  52.937  1.00  0.00     0.011 A 
BRANCH  16  19
HETATM   19  O1  UNL     1      26.532   1.657  54.293  1.00  0.00    -0.356 OA
HETATM   20  C12 UNL     1      27.359   0.549  54.520  1.00  0.00     0.210 C 
ENDBRANCH  16  19
BRANCH  18  21
HETATM   21  S1  UNL     1      22.378  -1.135  53.274  1.00  0.00    -0.134 SA
HETATM   22  C15 UNL     1      21.570  -0.837  54.872  1.00  0.00     0.095 C 
ENDBRANCH  18  21
ENDBRANCH   9  13
TORSDOF 3
ENDMDL
MODEL 2
REMARK VINA RESULT:      -6.3      3.760      6.522
REMARK  3 active torsions:
REMARK  status: ('A' for Active; 'I' for Inactive)
REMARK    1  A    between atoms: C7_9  and  C8_10 
REMARK    2  A    between atoms: C11_13  and  O1_14 
REMARK    3  A    between atoms: C14_17  and  S1_18 
ROOT
HETATM    1  C1  UNL     1      26.808  -0.103  52.221  1.00  0.00     0.045 C 
HETATM    2  C2  UNL     1      25.987   0.903  51.967  1.00  0.00     0.048 A 
HETATM    3  C3  UNL     1      24.621   1.081  52.449  1.00  0.00     0.041 A 
HETATM    4  C4  UNL     1      24.116   2.233  51.970  1.00  0.00    -0.009 A 
HETATM    5  C5  UNL     1      22.738   2.636  52.320  1.00  0.00     0.191 C 
HETATM    6  N1  UNL     1      22.587   4.039  52.557  1.00  0.00    -0.281 NA
HETATM    7  C6  UNL     1      23.333   5.011  52.167  1.00  0.00     0.197 C 
HETATM    8  N2  UNL     1      24.523   5.147  51.406  1.00  0.00    -0.371 N 
HETATM    9  C7  UNL     1      24.954   4.114  50.469  1.00  0.00     0.169 C 
HETATM   10  C16 UNL     1      25.156   2.816  51.167  1.00  0.00     0.070 A 
HETATM   11  N3  UNL     1      26.224   2.055  51.167  1.00  0.00    -0.251 NA
HETATM   12  H7  UNL     1      25.087   6.016  51.538  1.00  0.00     0.161 HD
ENDROOT
BRANCH   9  13
HETATM   13  C8  UNL     1      23.958   4.028  49.369  1.00  0.00    -0.013 A 
HETATM   14  C9  UNL     1      23.321   2.835  49.101  1.00  0.00     0.013 A 
HETATM   15  C10 UNL     1      22.387   2.667  48.103  1.00  0.00     0.037 A 
HETATM   16  C11 UNL     1      22.045   3.740  47.304  1.00  0.00     0.069 A 
HETATM   17  C13 UNL     1      22.659   4.948  47.543  1.00  0.00     0.055 A 
HETATM   18  C14 UNL     1      23.590   5.075  48.553  1.00  0.00     0.011 A 
BRANCH  16  19
HETATM   19  O1  UNL     1      21.114   3.656  46.277  1.00  0.00    -0.356 OA
HETATM   20  C12 UNL     1      21.524   3.931  44.965  1.00  0.00     0.210 C 
ENDBRANCH  16  19
BRANCH  18  21
HETATM   21  S1  UNL     1      24.361   6.665  48.825  1.00  0.00    -0.134 SA
HETATM   22  C15 UNL     1      23.078   7.807  49.408  1.00  0.00     0.095 C 
ENDBRANCH  18  21
ENDBRANCH   9  13
TORSDOF 3
ENDMDL
MODEL 3
REMARK VINA RESULT:      -6.2      1.681      2.154
REMARK  3 active torsions:
REMARK  status: ('A' for Active; 'I' for Inactive)
REMARK    1  A    between atoms: C7_9  and  C8_10 
REMARK    2  A    between atoms: C11_13  and  O1_14 
REMARK    3  A    between atoms: C14_17  and  S1_18 
ROOT
HETATM    1  C1  UNL     1      21.842   3.671  45.593  1.00  0.00     0.045 C 
HETATM    2  C2  UNL     1      22.089   3.729  46.892  1.00  0.00     0.048 A 
HETATM    3  C3  UNL     1      22.363   4.916  47.695  1.00  0.00     0.041 A 
HETATM    4  C4  UNL     1      22.564   4.563  48.978  1.00  0.00    -0.009 A 
HETATM    5  C5  UNL     1      22.861   5.598  49.990  1.00  0.00     0.191 C 
HETATM    6  N1  UNL     1      22.234   5.367  51.255  1.00  0.00    -0.281 NA
HETATM    7  C6  UNL     1      21.784   4.267  51.748  1.00  0.00     0.197 C 
HETATM    8  N2  UNL     1      21.699   2.915  51.326  1.00  0.00    -0.371 N 
HETATM    9  C7  UNL     1      22.581   2.380  50.292  1.00  0.00     0.169 C 
HETATM   10  C16 UNL     1      22.423   3.133  49.019  1.00  0.00     0.070 A 
HETATM   11  N3  UNL     1      22.152   2.658  47.827  1.00  0.00    -0.251 NA
HETATM   12  H7  UNL     1      20.981   2.309  51.780  1.00  0.00     0.161 HD
ENDROOT
BRANCH   9  13
HETATM   13  C8  UNL     1      23.976   2.399  50.805  1.00  0.00    -0.013 A 
HETATM   14  C9  UNL     1      24.967   3.046  50.097  1.00  0.00     0.013 A 
HETATM   15  C10 UNL     1      26.282   3.114  50.497  1.00  0.00     0.037 A 
HETATM   16  C11 UNL     1      26.666   2.506  51.676  1.00  0.00     0.069 A 
HETATM   17  C13 UNL     1      25.704   1.850  52.411  1.00  0.00     0.055 A 
HETATM   18  C14 UNL     1      24.396   1.806  51.975  1.00  0.00     0.011 A 
BRANCH  16  19
HETATM   19  O1  UNL     1      27.970   2.526  52.152  1.00  0.00    -0.356 OA
HETATM   20  C12 UNL     1      28.206   2.226  53.500  1.00  0.00     0.210 C 
ENDBRANCH  16  19
BRANCH  18  21
HETATM   21  S1  UNL     1      23.182   0.944  52.963  1.00  0.00    -0.134 SA
HETATM   22  C15 UNL     1      23.932  -0.610  53.525  1.00  0.00     0.095 C 
ENDBRANCH  18  21
ENDBRANCH   9  13
TORSDOF 3
ENDMDL
MODEL 4
REMARK VINA RESULT:      -6.2      9.016     10.791
REMARK  3 active torsions:
REMARK  status: ('A' for Active; 'I' for Inactive)
REMARK    1  A    between atoms: C7_9  and  C8_10 
REMARK    2  A    between atoms: C11_13  and  O1_14 
REMARK    3  A    between atoms: C14_17  and  S1_18 
ROOT
HETATM    1  C1  UNL     1      34.067   3.543  46.130  1.00  0.00     0.045 C 
HETATM    2  C2  UNL     1      33.289   4.432  46.727  1.00  0.00     0.048 A 
HETATM    3  C3  UNL     1      33.188   4.709  48.156  1.00  0.00     0.041 A 
HETATM    4  C4  UNL     1      32.284   5.683  48.368  1.00  0.00    -0.009 A 
HETATM    5  C5  UNL     1      32.004   6.142  49.745  1.00  0.00     0.191 C 
HETATM    6  N1  UNL     1      31.804   7.555  49.855  1.00  0.00    -0.281 NA
HETATM    7  C6  UNL     1      31.472   8.400  48.944  1.00  0.00     0.197 C 
HETATM    8  N2  UNL     1      31.179   8.347  47.557  1.00  0.00    -0.371 N 
HETATM    9  C7  UNL     1      30.755   7.109  46.910  1.00  0.00     0.169 C 
HETATM   10  C16 UNL     1      31.785   6.048  47.070  1.00  0.00     0.070 A 
HETATM   11  N3  UNL     1      32.361   5.332  46.134  1.00  0.00    -0.251 NA
HETATM   12  H7  UNL     1      31.277   9.228  47.006  1.00  0.00     0.161 HD
ENDROOT
BRANCH   9  13
HETATM   13  C8  UNL     1      29.432   6.716  47.464  1.00  0.00    -0.013 A 
HETATM   14  C9  UNL     1      29.266   5.480  48.054  1.00  0.00     0.013 A 
HETATM   15  C10 UNL     1      28.079   5.037  48.592  1.00  0.00     0.037 A 
HETATM   16  C11 UNL     1      26.967   5.855  48.554  1.00  0.00     0.069 A 
HETATM   17  C13 UNL     1      27.095   7.097  47.974  1.00  0.00     0.055 A 
HETATM   18  C14 UNL     1      28.303   7.504  47.446  1.00  0.00     0.011 A 
BRANCH  16  19
HETATM   19  O1  UNL     1      25.733   5.485  49.072  1.00  0.00    -0.356 OA
HETATM   20  C12 UNL     1      25.610   4.244  49.713  1.00  0.00     0.210 C 
ENDBRANCH  16  19
BRANCH  18  21
HETATM   21  S1  UNL     1      28.420   9.125  46.703  1.00  0.00    -0.134 SA
HETATM   22  C15 UNL     1      28.130  10.352  48.008  1.00  0.00     0.095 C 
ENDBRANCH  18  21
ENDBRANCH   9  13
TORSDOF 3
ENDMDL
MODEL 5
REMARK VINA RESULT:      -6.1      4.668      6.426
REMARK  3 active torsions:
REMARK  status: ('A' for Active; 'I' for Inactive)
REMARK    1  A    between atoms: C7_9  and  C8_10 
REMARK    2  A    between atoms: C11_13  and  O1_14 
REMARK    3  A    between atoms: C14_17  and  S1_18 
ROOT
HETATM    1  C1  UNL     1      23.401   0.914  53.203  1.00  0.00     0.045 C 
HETATM    2  C2  UNL     1      23.470   1.840  52.261  1.00  0.00     0.048 A 
HETATM    3  C3  UNL     1      23.222   1.677  50.832  1.00  0.00     0.041 A 
HETATM    4  C4  UNL     1      23.394   2.854  50.202  1.00  0.00    -0.009 A 
HETATM    5  C5  UNL     1      23.198   2.944  48.740  1.00  0.00     0.191 C 
HETATM    6  N1  UNL     1      22.559   4.151  48.314  1.00  0.00    -0.281 NA
HETATM    7  C6  UNL     1      22.472   5.281  48.925  1.00  0.00     0.197 C 
HETATM    8  N2  UNL     1      22.913   5.811  50.164  1.00  0.00    -0.371 N 
HETATM    9  C7  UNL     1      24.032   5.223  50.894  1.00  0.00     0.169 C 
HETATM   10  C16 UNL     1      23.759   3.798  51.224  1.00  0.00     0.070 A 
HETATM   11  N3  UNL     1      23.802   3.217  52.398  1.00  0.00    -0.251 NA
HETATM   12  H7  UNL     1      22.408   6.642  50.544  1.00  0.00     0.161 HD
ENDROOT
BRANCH   9  13
HETATM   13  C8  UNL     1      25.268   5.402  50.087  1.00  0.00    -0.013 A 
HETATM   14  C9  UNL     1      26.015   4.306  49.709  1.00  0.00     0.013 A 
HETATM   15  C10 UNL     1      27.170   4.380  48.964  1.00  0.00     0.037 A 
HETATM   16  C11 UNL     1      27.636   5.613  48.553  1.00  0.00     0.069 A 
HETATM   17  C13 UNL     1      26.916   6.731  48.911  1.00  0.00     0.055 A 
HETATM   18  C14 UNL     1      25.763   6.614  49.659  1.00  0.00     0.011 A 
BRANCH  16  19
HETATM   19  O1  UNL     1      28.791   5.777  47.801  1.00  0.00    -0.356 OA
HETATM   20  C12 UNL     1      29.314   7.066  47.631  1.00  0.00     0.210 C 
ENDBRANCH  16  19
BRANCH  18  21
HETATM   21  S1  UNL     1      24.862   8.093  50.100  1.00  0.00    -0.134 SA
HETATM   22  C15 UNL     1      24.632   9.069  48.587  1.00  0.00     0.095 C 
ENDBRANCH  18  21
ENDBRANCH   9  13
TORSDOF 3
ENDMDL
MODEL 6
REMARK VINA RESULT:      -6.0      2.632      4.493
REMARK  3 active torsions:
REMARK  status: ('A' for Active; 'I' for Inactive)
REMARK    1  A    between atoms: C7_9  and  C8_10 
REMARK    2  A    between atoms: C11_13  and  O1_14 
REMARK    3  A    between atoms: C14_17  and  S1_18 
ROOT
HETATM    1  C1  UNL     1      21.701  -1.304  53.793  1.00  0.00     0.045 C 
HETATM    2  C2  UNL     1      21.880  -0.212  53.068  1.00  0.00     0.048 A 
HETATM    3  C3  UNL     1      21.486   0.011  51.681  1.00  0.00     0.041 A 
HETATM    4  C4  UNL     1      21.843   1.251  51.299  1.00  0.00    -0.009 A 
HETATM    5  C5  UNL     1      21.549   1.714  49.927  1.00  0.00     0.191 C 
HETATM    6  N1  UNL     1      21.138   3.082  49.852  1.00  0.00    -0.281 NA
HETATM    7  C6  UNL     1      21.335   4.034  50.695  1.00  0.00     0.197 C 
HETATM    8  N2  UNL     1      21.976   4.172  51.953  1.00  0.00    -0.371 N 
HETATM    9  C7  UNL     1      23.007   3.237  52.392  1.00  0.00     0.169 C 
HETATM   10  C16 UNL     1      22.477   1.848  52.443  1.00  0.00     0.070 A 
HETATM   11  N3  UNL     1      22.497   1.011  53.452  1.00  0.00    -0.251 NA
HETATM   12  H7  UNL     1      21.685   4.969  52.561  1.00  0.00     0.161 HD
ENDROOT
BRANCH   9  13
HETATM   13  C8  UNL     1      24.183   3.373  51.492  1.00  0.00    -0.013 A 
HETATM   14  C9  UNL     1      24.106   4.164  50.365  1.00  0.00     0.013 A 
HETATM   15  C10 UNL     1      25.144   4.346  49.479  1.00  0.00     0.037 A 
HETATM   16  C11 UNL     1      26.349   3.711  49.704  1.00  0.00     0.069 A 
HETATM   17  C13 UNL     1      26.464   2.913  50.820  1.00  0.00     0.055 A 
HETATM   18  C14 UNL     1      25.400   2.757  51.684  1.00  0.00     0.011 A 
BRANCH  16  19
HETATM   19  O1  UNL     1      27.445   3.840  48.861  1.00  0.00    -0.356 OA
HETATM   20  C12 UNL     1      27.919   5.123  48.555  1.00  0.00     0.210 C 
ENDBRANCH  16  19
BRANCH  18  21
HETATM   21  S1  UNL     1      25.596   1.711  53.120  1.00  0.00    -0.134 SA
HETATM   22  C15 UNL     1      26.324   0.144  52.566  1.00  0.00     0.095 C 
ENDBRANCH  18  21
ENDBRANCH   9  13
TORSDOF 3
ENDMDL
MODEL 7
REMARK VINA RESULT:      -6.0      1.966      2.955
REMARK  3 active torsions:
REMARK  status: ('A' for Active; 'I' for Inactive)
REMARK    1  A    between atoms: C7_9  and  C8_10 
REMARK    2  A    between atoms: C11_13  and  O1_14 
REMARK    3  A    between atoms: C14_17  and  S1_18 
ROOT
HETATM    1  C1  UNL     1      18.940   0.634  50.552  1.00  0.00     0.045 C 
HETATM    2  C2  UNL     1      20.159   1.114  50.739  1.00  0.00     0.048 A 
HETATM    3  C3  UNL     1      21.132   1.495  49.720  1.00  0.00     0.041 A 
HETATM    4  C4  UNL     1      22.258   1.939  50.309  1.00  0.00    -0.009 A 
HETATM    5  C5  UNL     1      23.397   2.385  49.480  1.00  0.00     0.191 C 
HETATM    6  N1  UNL     1      24.076   3.533  49.998  1.00  0.00    -0.281 NA
HETATM    7  C6  UNL     1      24.093   3.990  51.200  1.00  0.00     0.197 C 
HETATM    8  N2  UNL     1      23.516   3.623  52.443  1.00  0.00    -0.371 N 
HETATM    9  C7  UNL     1      23.065   2.259  52.705  1.00  0.00     0.169 C 
HETATM   10  C16 UNL     1      22.025   1.849  51.724  1.00  0.00     0.070 A 
HETATM   11  N3  UNL     1      20.825   1.377  51.968  1.00  0.00    -0.251 NA
HETATM   12  H7  UNL     1      23.422   4.364  53.173  1.00  0.00     0.161 HD
ENDROOT
BRANCH   9  13
HETATM   13  C8  UNL     1      24.250   1.361  52.699  1.00  0.00    -0.013 A 
HETATM   14  C9  UNL     1      25.462   1.814  52.222  1.00  0.00     0.013 A 
HETATM   15  C10 UNL     1      26.607   1.050  52.180  1.00  0.00     0.037 A 
HETATM   16  C11 UNL     1      26.574  -0.252  52.637  1.00  0.00     0.069 A 
HETATM   17  C13 UNL     1      25.381  -0.739  53.123  1.00  0.00     0.055 A 
HETATM   18  C14 UNL     1      24.255   0.058  53.147  1.00  0.00     0.011 A 
BRANCH  16  19
HETATM   19  O1  UNL     1      27.682  -1.088  52.630  1.00  0.00    -0.356 OA
HETATM   20  C12 UNL     1      27.488  -2.473  52.725  1.00  0.00     0.210 C 
ENDBRANCH  16  19
BRANCH  18  21
HETATM   21  S1  UNL     1      22.729  -0.617  53.787  1.00  0.00    -0.134 SA
HETATM   22  C15 UNL     1      23.081  -1.323  55.421  1.00  0.00     0.095 C 
ENDBRANCH  18  21
ENDBRANCH   9  13
TORSDOF 3
ENDMDL
MODEL 8
REMARK VINA RESULT:      -5.9      3.063      5.937
REMARK  3 active torsions:
REMARK  status: ('A' for Active; 'I' for Inactive)
REMARK    1  A    between atoms: C7_9  and  C8_10 
REMARK    2  A    between atoms: C11_13  and  O1_14 
REMARK    3  A    between atoms: C14_17  and  S1_18 
ROOT
HETATM    1  C1  UNL     1      25.124  -0.472  53.825  1.00  0.00     0.045 C 
HETATM    2  C2  UNL     1      24.172   0.249  53.256  1.00  0.00     0.048 A 
HETATM    3  C3  UNL     1      22.844  -0.195  52.845  1.00  0.00     0.041 A 
HETATM    4  C4  UNL     1      22.166   0.834  52.303  1.00  0.00    -0.009 A 
HETATM    5  C5  UNL     1      20.789   0.632  51.808  1.00  0.00     0.191 C 
HETATM    6  N1  UNL     1      19.910   1.729  52.076  1.00  0.00    -0.281 NA
HETATM    7  C6  UNL     1      20.200   2.957  52.329  1.00  0.00     0.197 C 
HETATM    8  N2  UNL     1      21.388   3.724  52.451  1.00  0.00    -0.371 N 
HETATM    9  C7  UNL     1      22.642   3.295  51.839  1.00  0.00     0.169 C 
HETATM   10  C16 UNL     1      23.056   1.963  52.357  1.00  0.00     0.070 A 
HETATM   11  N3  UNL     1      24.200   1.626  52.901  1.00  0.00    -0.251 NA
HETATM   12  H7  UNL     1      21.338   4.612  52.997  1.00  0.00     0.161 HD
ENDROOT
BRANCH   9  13
HETATM   13  C8  UNL     1      22.478   3.314  50.362  1.00  0.00    -0.013 A 
HETATM   14  C9  UNL     1      22.594   2.148  49.635  1.00  0.00     0.013 A 
HETATM   15  C10 UNL     1      22.458   2.075  48.267  1.00  0.00     0.037 A 
HETATM   16  C11 UNL     1      22.188   3.223  47.549  1.00  0.00     0.069 A 
HETATM   17  C13 UNL     1      22.064   4.407  48.240  1.00  0.00     0.055 A 
HETATM   18  C14 UNL     1      22.208   4.437  49.612  1.00  0.00     0.011 A 
BRANCH  16  19
HETATM   19  O1  UNL     1      22.036   3.237  46.169  1.00  0.00    -0.356 OA
HETATM   20  C12 UNL     1      21.919   4.470  45.511  1.00  0.00     0.210 C 
ENDBRANCH  16  19
BRANCH  18  21
HETATM   21  S1  UNL     1      22.039   5.998  50.466  1.00  0.00    -0.134 SA
HETATM   22  C15 UNL     1      23.704   6.567  50.911  1.00  0.00     0.095 C 
ENDBRANCH  18  21
ENDBRANCH   9  13
TORSDOF 3
ENDMDL
MODEL 9
REMARK VINA RESULT:      -5.9     11.801     13.374
REMARK  3 active torsions:
REMARK  status: ('A' for Active; 'I' for Inactive)
REMARK    1  A    between atoms: C7_9  and  C8_10 
REMARK    2  A    between atoms: C11_13  and  O1_14 
REMARK    3  A    between atoms: C14_17  and  S1_18 
ROOT
HETATM    1  C1  UNL     1      29.631   9.329  48.891  1.00  0.00     0.045 C 
HETATM    2  C2  UNL     1      30.800   8.813  48.547  1.00  0.00     0.048 A 
HETATM    3  C3  UNL     1      31.969   9.520  48.033  1.00  0.00     0.041 A 
HETATM    4  C4  UNL     1      32.965   8.644  47.799  1.00  0.00    -0.009 A 
HETATM    5  C5  UNL     1      34.259   9.124  47.272  1.00  0.00     0.191 C 
HETATM    6  N1  UNL     1      35.395   8.462  47.835  1.00  0.00    -0.281 NA
HETATM    7  C6  UNL     1      35.459   7.317  48.418  1.00  0.00     0.197 C 
HETATM    8  N2  UNL     1      34.545   6.282  48.746  1.00  0.00    -0.371 N 
HETATM    9  C7  UNL     1      33.279   6.126  48.036  1.00  0.00     0.169 C 
HETATM   10  C16 UNL     1      32.447   7.353  48.162  1.00  0.00     0.070 A 
HETATM   11  N3  UNL     1      31.211   7.452  48.589  1.00  0.00    -0.251 NA
HETATM   12  H7  UNL     1      34.807   5.629  49.517  1.00  0.00     0.161 HD
ENDROOT
BRANCH   9  13
HETATM   13  C8  UNL     1      33.570   5.770  46.622  1.00  0.00    -0.013 A 
HETATM   14  C9  UNL     1      33.172   6.606  45.600  1.00  0.00     0.013 A 
HETATM   15  C10 UNL     1      33.401   6.354  44.266  1.00  0.00     0.037 A 
HETATM   16  C11 UNL     1      34.067   5.202  43.895  1.00  0.00     0.069 A 
HETATM   17  C13 UNL     1      34.480   4.344  44.889  1.00  0.00     0.055 A 
HETATM   18  C14 UNL     1      34.232   4.633  46.214  1.00  0.00     0.011 A 
BRANCH  16  19
HETATM   19  O1  UNL     1      34.337   4.873  42.574  1.00  0.00    -0.356 OA
HETATM   20  C12 UNL     1      33.287   4.435  41.754  1.00  0.00     0.210 C 
ENDBRANCH  16  19
BRANCH  18  21
HETATM   21  S1  UNL     1      34.788   3.489  47.469  1.00  0.00    -0.134 SA
HETATM   22  C15 UNL     1      33.401   2.387  47.865  1.00  0.00     0.095 C 
ENDBRANCH  18  21
ENDBRANCH   9  13
TORSDOF 3
ENDMDL
