MODEL 1
REMARK VINA RESULT:      -8.8      0.000      0.000
REMARK  5 active torsions:
REMARK  status: ('A' for Active; 'I' for Inactive)
REMARK    1  A    between atoms: C6_7  and  C7_8 
REMARK    2  A    between atoms: C7_8  and  N2_9 
REMARK    3  A    between atoms: N2_9  and  C8_10 
REMARK    4  A    between atoms: C11_14  and  C12_15 
REMARK    5  A    between atoms: C12_15  and  C13_16 
ROOT
HETATM    1  C8  UNL     1      24.238  -0.636  54.344  1.00  0.00     0.722 A 
HETATM    2  N3  UNL     1      23.346  -1.260  55.123  1.00  0.00    -0.075 NA
HETATM    3  C9  UNL     1      22.034  -1.114  54.903  1.00  0.00     0.138 A 
HETATM    4  C10 UNL     1      21.596  -0.305  53.852  1.00  0.00     0.048 A 
HETATM    5  C11 UNL     1      22.521   0.339  53.047  1.00  0.00     0.061 A 
HETATM    6  N5  UNL     1      23.847   0.149  53.323  1.00  0.00    -0.067 NA
ENDROOT
BRANCH   1   7
HETATM    7  N2  UNL     1      25.668  -0.683  54.425  1.00  0.00    -0.220 N 
HETATM    8  H11 UNL     1      26.280  -1.462  54.807  1.00  0.00     0.177 HD
BRANCH   7   9
HETATM    9  C7  UNL     1      26.198   0.552  53.883  1.00  0.00     0.167 C 
BRANCH   9  10
HETATM   10  C6  UNL     1      27.369   0.230  53.008  1.00  0.00     0.124 A 
HETATM   11  N1  UNL     1      28.573   0.910  53.412  1.00  0.00    -0.385 N 
HETATM   12  C1  UNL     1      28.488   2.352  53.544  1.00  0.00     0.149 C 
HETATM   13  C2  UNL     1      29.847   0.355  53.702  1.00  0.00     0.086 A 
HETATM   14  C3  UNL     1      29.942  -0.972  53.588  1.00  0.00     0.017 A 
HETATM   15  C4  UNL     1      28.807  -1.794  53.192  1.00  0.00    -0.001 A 
HETATM   16  C5  UNL     1      27.649  -1.222  52.934  1.00  0.00    -0.000 A 
ENDBRANCH   9  10
ENDBRANCH   7   9
ENDBRANCH   1   7
BRANCH   5  17
HETATM   17  C12 UNL     1      22.070   1.190  51.929  1.00  0.00     0.127 C 
BRANCH  17  18
HETATM   18  C13 UNL     1      23.168   1.943  51.325  1.00  0.00     0.082 A 
HETATM   19  N4  UNL     1      24.406   1.924  51.084  1.00  0.00    -0.244 NA
HETATM   20  C14 UNL     1      24.988   2.928  50.453  1.00  0.00     0.074 A 
HETATM   21  C15 UNL     1      26.344   2.969  50.156  1.00  0.00     0.033 A 
HETATM   22  C19 UNL     1      24.287   4.097  49.999  1.00  0.00     0.035 A 
HETATM   23  C16 UNL     1      26.889   4.027  49.504  1.00  0.00     0.002 A 
HETATM   24  C17 UNL     1      26.154   5.142  49.084  1.00  0.00     0.002 A 
HETATM   25  C18 UNL     1      24.806   5.170  49.345  1.00  0.00     0.021 A 
HETATM   26  S1  UNL     1      22.568   3.599  50.602  1.00  0.00    -0.072 SA
ENDBRANCH  17  18
ENDBRANCH   5  17
TORSDOF 5
ENDMDL
MODEL 2
REMARK VINA RESULT:      -8.5      1.916      6.102
REMARK  5 active torsions:
REMARK  status: ('A' for Active; 'I' for Inactive)
REMARK    1  A    between atoms: C6_7  and  C7_8 
REMARK    2  A    between atoms: C7_8  and  N2_9 
REMARK    3  A    between atoms: N2_9  and  C8_10 
REMARK    4  A    between atoms: C11_14  and  C12_15 
REMARK    5  A    between atoms: C12_15  and  C13_16 
ROOT
HETATM    1  C8  UNL     1      27.380   2.003  52.769  1.00  0.00     0.722 A 
HETATM    2  N3  UNL     1      28.640   1.752  53.142  1.00  0.00    -0.075 NA
HETATM    3  C9  UNL     1      28.913   0.746  53.981  1.00  0.00     0.138 A 
HETATM    4  C10 UNL     1      27.871  -0.047  54.469  1.00  0.00     0.048 A 
HETATM    5  C11 UNL     1      26.567   0.215  54.081  1.00  0.00     0.061 A 
HETATM    6  N5  UNL     1      26.355   1.257  53.221  1.00  0.00    -0.067 NA
ENDROOT
BRANCH   1   7
HETATM    7  N2  UNL     1      26.907   3.023  51.880  1.00  0.00    -0.220 N 
HETATM    8  H11 UNL     1      27.337   3.973  51.682  1.00  0.00     0.177 HD
BRANCH   7   9
HETATM    9  C7  UNL     1      25.690   2.553  51.250  1.00  0.00     0.167 C 
BRANCH   9  10
HETATM   10  C6  UNL     1      25.454   3.349  50.005  1.00  0.00     0.124 A 
HETATM   11  N1  UNL     1      24.827   4.620  50.264  1.00  0.00    -0.385 N 
HETATM   12  C1  UNL     1      23.592   4.589  51.024  1.00  0.00     0.149 C 
HETATM   13  C2  UNL     1      25.258   5.915  49.872  1.00  0.00     0.086 A 
HETATM   14  C3  UNL     1      26.396   5.962  49.174  1.00  0.00     0.017 A 
HETATM   15  C4  UNL     1      27.143   4.758  48.839  1.00  0.00    -0.001 A 
HETATM   16  C5  UNL     1      26.692   3.583  49.229  1.00  0.00    -0.000 A 
ENDBRANCH   9  10
ENDBRANCH   7   9
ENDBRANCH   1   7
BRANCH   5  17
HETATM   17  C12 UNL     1      25.460  -0.621  54.585  1.00  0.00     0.127 C 
BRANCH  17  18
HETATM   18  C13 UNL     1      24.206  -0.370  53.874  1.00  0.00     0.082 A 
HETATM   19  N4  UNL     1      23.712   0.118  52.822  1.00  0.00    -0.244 NA
HETATM   20  C14 UNL     1      22.406   0.104  52.618  1.00  0.00     0.074 A 
HETATM   21  C15 UNL     1      21.798   0.624  51.483  1.00  0.00     0.033 A 
HETATM   22  C19 UNL     1      21.461  -0.452  53.547  1.00  0.00     0.035 A 
HETATM   23  C16 UNL     1      20.450   0.580  51.325  1.00  0.00     0.002 A 
HETATM   24  C17 UNL     1      19.577   0.024  52.267  1.00  0.00     0.002 A 
HETATM   25  C18 UNL     1      20.110  -0.508  53.415  1.00  0.00     0.021 A 
HETATM   26  S1  UNL     1      22.705  -1.004  54.857  1.00  0.00    -0.072 SA
ENDBRANCH  17  18
ENDBRANCH   5  17
TORSDOF 5
ENDMDL
MODEL 3
REMARK VINA RESULT:      -8.4      1.541      5.225
REMARK  5 active torsions:
REMARK  status: ('A' for Active; 'I' for Inactive)
REMARK    1  A    between atoms: C6_7  and  C7_8 
REMARK    2  A    between atoms: C7_8  and  N2_9 
REMARK    3  A    between atoms: N2_9  and  C8_10 
REMARK    4  A    between atoms: C11_14  and  C12_15 
REMARK    5  A    between atoms: C12_15  and  C13_16 
ROOT
HETATM    1  C8  UNL     1      26.549   2.714  51.272  1.00  0.00     0.722 A 
HETATM    2  N3  UNL     1      26.783   3.257  50.072  1.00  0.00    -0.075 NA
HETATM    3  C9  UNL     1      25.821   3.931  49.432  1.00  0.00     0.138 A 
HETATM    4  C10 UNL     1      24.563   4.068  50.024  1.00  0.00     0.048 A 
HETATM    5  C11 UNL     1      24.324   3.506  51.268  1.00  0.00     0.061 A 
HETATM    6  N5  UNL     1      25.348   2.829  51.870  1.00  0.00    -0.067 NA
ENDROOT
BRANCH   1   7
HETATM    7  N2  UNL     1      27.454   1.972  52.099  1.00  0.00    -0.220 N 
HETATM    8  H11 UNL     1      28.386   1.540  51.831  1.00  0.00     0.177 HD
BRANCH   7   9
HETATM    9  C7  UNL     1      26.892   1.887  53.431  1.00  0.00     0.167 C 
BRANCH   9  10
HETATM   10  C6  UNL     1      27.542   0.751  54.157  1.00  0.00     0.124 A 
HETATM   11  N1  UNL     1      27.233  -0.532  53.580  1.00  0.00    -0.385 N 
HETATM   12  C1  UNL     1      25.826  -0.846  53.416  1.00  0.00     0.149 C 
HETATM   13  C2  UNL     1      28.127  -1.546  53.145  1.00  0.00     0.086 A 
HETATM   14  C3  UNL     1      29.427  -1.272  53.286  1.00  0.00     0.017 A 
HETATM   15  C4  UNL     1      29.892  -0.013  53.851  1.00  0.00    -0.001 A 
HETATM   16  C5  UNL     1      29.014   0.889  54.239  1.00  0.00    -0.000 A 
ENDBRANCH   9  10
ENDBRANCH   7   9
ENDBRANCH   1   7
BRANCH   5  17
HETATM   17  C12 UNL     1      23.001   3.652  51.907  1.00  0.00     0.127 C 
BRANCH  17  18
HETATM   18  C13 UNL     1      22.515   2.393  52.472  1.00  0.00     0.082 A 
HETATM   19  N4  UNL     1      22.856   1.372  53.129  1.00  0.00    -0.244 NA
HETATM   20  C14 UNL     1      21.977   0.429  53.418  1.00  0.00     0.074 A 
HETATM   21  C15 UNL     1      22.286  -0.718  54.138  1.00  0.00     0.033 A 
HETATM   22  C19 UNL     1      20.597   0.478  53.022  1.00  0.00     0.035 A 
HETATM   23  C16 UNL     1      21.342  -1.655  54.407  1.00  0.00     0.002 A 
HETATM   24  C17 UNL     1      20.008  -1.553  53.994  1.00  0.00     0.002 A 
HETATM   25  C18 UNL     1      19.632  -0.444  53.276  1.00  0.00     0.021 A 
HETATM   26  S1  UNL     1      20.662   2.136  52.119  1.00  0.00    -0.072 SA
ENDBRANCH  17  18
ENDBRANCH   5  17
TORSDOF 5
ENDMDL
MODEL 4
REMARK VINA RESULT:      -8.2      2.481      6.741
REMARK  5 active torsions:
REMARK  status: ('A' for Active; 'I' for Inactive)
REMARK    1  A    between atoms: C6_7  and  C7_8 
REMARK    2  A    between atoms: C7_8  and  N2_9 
REMARK    3  A    between atoms: N2_9  and  C8_10 
REMARK    4  A    between atoms: C11_14  and  C12_15 
REMARK    5  A    between atoms: C12_15  and  C13_16 
ROOT
HETATM    1  C8  UNL     1      24.808   3.729  50.535  1.00  0.00     0.722 A 
HETATM    2  N3  UNL     1      23.798   3.625  49.664  1.00  0.00    -0.075 NA
HETATM    3  C9  UNL     1      22.835   2.714  49.845  1.00  0.00     0.138 A 
HETATM    4  C10 UNL     1      22.887   1.867  50.955  1.00  0.00     0.048 A 
HETATM    5  C11 UNL     1      23.933   1.977  51.856  1.00  0.00     0.061 A 
HETATM    6  N5  UNL     1      24.886   2.928  51.614  1.00  0.00    -0.067 NA
ENDROOT
BRANCH   1   7
HETATM    7  N2  UNL     1      25.911   4.643  50.506  1.00  0.00    -0.220 N 
HETATM    8  H11 UNL     1      26.880   4.518  50.923  1.00  0.00     0.177 HD
BRANCH   7   9
HETATM    9  C7  UNL     1      25.502   5.832  49.786  1.00  0.00     0.167 C 
BRANCH   9  10
HETATM   10  C6  UNL     1      26.335   5.955  48.548  1.00  0.00     0.124 A 
HETATM   11  N1  UNL     1      26.767   7.306  48.297  1.00  0.00    -0.385 N 
HETATM   12  C1  UNL     1      25.729   8.318  48.248  1.00  0.00     0.149 C 
HETATM   13  C2  UNL     1      28.085   7.789  48.087  1.00  0.00     0.086 A 
HETATM   14  C3  UNL     1      29.054   6.870  48.131  1.00  0.00     0.017 A 
HETATM   15  C4  UNL     1      28.770   5.464  48.379  1.00  0.00    -0.001 A 
HETATM   16  C5  UNL     1      27.525   5.075  48.565  1.00  0.00    -0.000 A 
ENDBRANCH   9  10
ENDBRANCH   7   9
ENDBRANCH   1   7
BRANCH   5  17
HETATM   17  C12 UNL     1      23.994   1.093  53.037  1.00  0.00     0.127 C 
BRANCH  17  18
HETATM   18  C13 UNL     1      25.234   0.319  53.088  1.00  0.00     0.082 A 
HETATM   19  N4  UNL     1      25.760  -0.784  52.780  1.00  0.00    -0.244 NA
HETATM   20  C14 UNL     1      27.028  -1.031  53.059  1.00  0.00     0.074 A 
HETATM   21  C15 UNL     1      27.667  -2.224  52.747  1.00  0.00     0.033 A 
HETATM   22  C19 UNL     1      27.895  -0.095  53.719  1.00  0.00     0.035 A 
HETATM   23  C16 UNL     1      28.974  -2.423  53.057  1.00  0.00     0.002 A 
HETATM   24  C17 UNL     1      29.772  -1.471  53.702  1.00  0.00     0.002 A 
HETATM   25  C18 UNL     1      29.204  -0.268  54.042  1.00  0.00     0.021 A 
HETATM   26  S1  UNL     1      26.635   1.297  53.927  1.00  0.00    -0.072 SA
ENDBRANCH  17  18
ENDBRANCH   5  17
TORSDOF 5
ENDMDL
MODEL 5
REMARK VINA RESULT:      -8.0      2.053      6.256
REMARK  5 active torsions:
REMARK  status: ('A' for Active; 'I' for Inactive)
REMARK    1  A    between atoms: C6_7  and  C7_8 
REMARK    2  A    between atoms: C7_8  and  N2_9 
REMARK    3  A    between atoms: N2_9  and  C8_10 
REMARK    4  A    between atoms: C11_14  and  C12_15 
REMARK    5  A    between atoms: C12_15  and  C13_16 
ROOT
HETATM    1  C8  UNL     1      23.056   3.688  50.057  1.00  0.00     0.722 A 
HETATM    2  N3  UNL     1      22.418   2.957  49.135  1.00  0.00    -0.075 NA
HETATM    3  C9  UNL     1      22.042   1.702  49.405  1.00  0.00     0.138 A 
HETATM    4  C10 UNL     1      22.318   1.153  50.659  1.00  0.00     0.048 A 
HETATM    5  C11 UNL     1      22.979   1.912  51.612  1.00  0.00     0.061 A 
HETATM    6  N5  UNL     1      23.337   3.188  51.274  1.00  0.00    -0.067 NA
ENDROOT
BRANCH   1   7
HETATM    7  N2  UNL     1      23.522   5.039  49.948  1.00  0.00    -0.220 N 
HETATM    8  H11 UNL     1      23.250   5.877  50.540  1.00  0.00     0.177 HD
BRANCH   7   9
HETATM    9  C7  UNL     1      24.469   5.110  48.855  1.00  0.00     0.167 C 
BRANCH   9  10
HETATM   10  C6  UNL     1      25.760   5.665  49.371  1.00  0.00     0.124 A 
HETATM   11  N1  UNL     1      26.876   4.781  49.154  1.00  0.00    -0.385 N 
HETATM   12  C1  UNL     1      26.734   3.425  49.650  1.00  0.00     0.149 C 
HETATM   13  C2  UNL     1      28.112   5.058  48.513  1.00  0.00     0.086 A 
HETATM   14  C3  UNL     1      28.258   6.301  48.047  1.00  0.00     0.017 A 
HETATM   15  C4  UNL     1      27.213   7.304  48.190  1.00  0.00    -0.001 A 
HETATM   16  C5  UNL     1      26.087   6.989  48.797  1.00  0.00    -0.000 A 
ENDBRANCH   9  10
ENDBRANCH   7   9
ENDBRANCH   1   7
BRANCH   5  17
HETATM   17  C12 UNL     1      23.269   1.344  52.943  1.00  0.00     0.127 C 
BRANCH  17  18
HETATM   18  C13 UNL     1      24.631   0.817  53.037  1.00  0.00     0.082 A 
HETATM   19  N4  UNL     1      25.341  -0.209  52.858  1.00  0.00    -0.244 NA
HETATM   20  C14 UNL     1      26.639  -0.185  53.104  1.00  0.00     0.074 A 
HETATM   21  C15 UNL     1      27.477  -1.278  52.926  1.00  0.00     0.033 A 
HETATM   22  C19 UNL     1      27.338   0.975  53.584  1.00  0.00     0.035 A 
HETATM   23  C16 UNL     1      28.806  -1.196  53.194  1.00  0.00     0.002 A 
HETATM   24  C17 UNL     1      29.433  -0.035  53.661  1.00  0.00     0.002 A 
HETATM   25  C18 UNL     1      28.664   1.085  53.860  1.00  0.00     0.021 A 
HETATM   26  S1  UNL     1      25.851   2.138  53.662  1.00  0.00    -0.072 SA
ENDBRANCH  17  18
ENDBRANCH   5  17
TORSDOF 5
ENDMDL
MODEL 6
REMARK VINA RESULT:      -8.0      2.059      3.302
REMARK  5 active torsions:
REMARK  status: ('A' for Active; 'I' for Inactive)
REMARK    1  A    between atoms: C6_7  and  C7_8 
REMARK    2  A    between atoms: C7_8  and  N2_9 
REMARK    3  A    between atoms: N2_9  and  C8_10 
REMARK    4  A    between atoms: C11_14  and  C12_15 
REMARK    5  A    between atoms: C12_15  and  C13_16 
ROOT
HETATM    1  C8  UNL     1      24.622   1.490  52.655  1.00  0.00     0.722 A 
HETATM    2  N3  UNL     1      24.484   2.359  53.663  1.00  0.00    -0.075 NA
HETATM    3  C9  UNL     1      24.142   3.629  53.422  1.00  0.00     0.138 A 
HETATM    4  C10 UNL     1      23.927   4.049  52.107  1.00  0.00     0.048 A 
HETATM    5  C11 UNL     1      24.071   3.147  51.065  1.00  0.00     0.061 A 
HETATM    6  N5  UNL     1      24.422   1.863  51.377  1.00  0.00    -0.067 NA
ENDROOT
BRANCH   1   7
HETATM    7  N2  UNL     1      24.972   0.102  52.726  1.00  0.00    -0.220 N 
HETATM    8  H11 UNL     1      24.530  -0.715  52.209  1.00  0.00     0.177 HD
BRANCH   7   9
HETATM    9  C7  UNL     1      26.075  -0.047  53.652  1.00  0.00     0.167 C 
BRANCH   9  10
HETATM   10  C6  UNL     1      27.341  -0.214  52.872  1.00  0.00     0.124 A 
HETATM   11  N1  UNL     1      28.400   0.648  53.330  1.00  0.00    -0.385 N 
HETATM   12  C1  UNL     1      28.095   2.064  53.403  1.00  0.00     0.149 C 
HETATM   13  C2  UNL     1      29.717   0.297  53.726  1.00  0.00     0.086 A 
HETATM   14  C3  UNL     1      30.013  -1.004  53.669  1.00  0.00     0.017 A 
HETATM   15  C4  UNL     1      29.043  -1.995  53.227  1.00  0.00    -0.001 A 
HETATM   16  C5  UNL     1      27.835  -1.609  52.870  1.00  0.00    -0.000 A 
ENDBRANCH   9  10
ENDBRANCH   7   9
ENDBRANCH   1   7
BRANCH   5  17
HETATM   17  C12 UNL     1      23.839   3.577  49.672  1.00  0.00     0.127 C 
BRANCH  17  18
HETATM   18  C13 UNL     1      24.876   4.490  49.193  1.00  0.00     0.082 A 
HETATM   19  N4  UNL     1      25.079   5.635  48.703  1.00  0.00    -0.244 NA
HETATM   20  C14 UNL     1      26.303   6.041  48.418  1.00  0.00     0.074 A 
HETATM   21  C15 UNL     1      26.596   7.287  47.878  1.00  0.00     0.033 A 
HETATM   22  C19 UNL     1      27.478   5.241  48.631  1.00  0.00     0.035 A 
HETATM   23  C16 UNL     1      27.874   7.653  47.606  1.00  0.00     0.002 A 
HETATM   24  C17 UNL     1      28.982   6.829  47.836  1.00  0.00     0.002 A 
HETATM   25  C18 UNL     1      28.767   5.581  48.367  1.00  0.00     0.021 A 
HETATM   26  S1  UNL     1      26.611   3.720  49.340  1.00  0.00    -0.072 SA
ENDBRANCH  17  18
ENDBRANCH   5  17
TORSDOF 5
ENDMDL
MODEL 7
REMARK VINA RESULT:      -8.0      1.508      2.090
REMARK  5 active torsions:
REMARK  status: ('A' for Active; 'I' for Inactive)
REMARK    1  A    between atoms: C6_7  and  C7_8 
REMARK    2  A    between atoms: C7_8  and  N2_9 
REMARK    3  A    between atoms: N2_9  and  C8_10 
REMARK    4  A    between atoms: C11_14  and  C12_15 
REMARK    5  A    between atoms: C12_15  and  C13_16 
ROOT
HETATM    1  C8  UNL     1      23.823   0.014  53.384  1.00  0.00     0.722 A 
HETATM    2  N3  UNL     1      22.688  -0.142  54.076  1.00  0.00    -0.075 NA
HETATM    3  C9  UNL     1      21.528   0.310  53.587  1.00  0.00     0.138 A 
HETATM    4  C10 UNL     1      21.503   0.948  52.345  1.00  0.00     0.048 A 
HETATM    5  C11 UNL     1      22.679   1.107  51.630  1.00  0.00     0.061 A 
HETATM    6  N5  UNL     1      23.832   0.624  52.184  1.00  0.00    -0.067 NA
ENDROOT
BRANCH   1   7
HETATM    7  N2  UNL     1      25.143  -0.410  53.744  1.00  0.00    -0.220 N 
HETATM    8  H11 UNL     1      25.466  -1.377  54.040  1.00  0.00     0.177 HD
BRANCH   7   9
HETATM    9  C7  UNL     1      26.033   0.729  53.643  1.00  0.00     0.167 C 
BRANCH   9  10
HETATM   10  C6  UNL     1      27.246   0.325  52.864  1.00  0.00     0.124 A 
HETATM   11  N1  UNL     1      28.459   0.913  53.371  1.00  0.00    -0.385 N 
HETATM   12  C1  UNL     1      28.469   2.357  53.509  1.00  0.00     0.149 C 
HETATM   13  C2  UNL     1      29.661   0.265  53.759  1.00  0.00     0.086 A 
HETATM   14  C3  UNL     1      29.668  -1.065  53.641  1.00  0.00     0.017 A 
HETATM   15  C4  UNL     1      28.513  -1.800  53.145  1.00  0.00    -0.001 A 
HETATM   16  C5  UNL     1      27.424  -1.143  52.799  1.00  0.00    -0.000 A 
ENDBRANCH   9  10
ENDBRANCH   7   9
ENDBRANCH   1   7
BRANCH   5  17
HETATM   17  C12 UNL     1      22.664   1.773  50.313  1.00  0.00     0.127 C 
BRANCH  17  18
HETATM   18  C13 UNL     1      23.042   3.184  50.399  1.00  0.00     0.082 A 
HETATM   19  N4  UNL     1      22.638   4.328  50.741  1.00  0.00    -0.244 NA
HETATM   20  C14 UNL     1      23.420   5.386  50.619  1.00  0.00     0.074 A 
HETATM   21  C15 UNL     1      23.038   6.673  50.977  1.00  0.00     0.033 A 
HETATM   22  C19 UNL     1      24.760   5.332  50.103  1.00  0.00     0.035 A 
HETATM   23  C16 UNL     1      23.884   7.724  50.832  1.00  0.00     0.002 A 
HETATM   24  C17 UNL     1      25.182   7.610  50.321  1.00  0.00     0.002 A 
HETATM   25  C18 UNL     1      25.627   6.366  49.945  1.00  0.00     0.021 A 
HETATM   26  S1  UNL     1      24.817   3.472  49.774  1.00  0.00    -0.072 SA
ENDBRANCH  17  18
ENDBRANCH   5  17
TORSDOF 5
ENDMDL
MODEL 8
REMARK VINA RESULT:      -7.8      3.296      7.452
REMARK  5 active torsions:
REMARK  status: ('A' for Active; 'I' for Inactive)
REMARK    1  A    between atoms: C6_7  and  C7_8 
REMARK    2  A    between atoms: C7_8  and  N2_9 
REMARK    3  A    between atoms: N2_9  and  C8_10 
REMARK    4  A    between atoms: C11_14  and  C12_15 
REMARK    5  A    between atoms: C12_15  and  C13_16 
ROOT
HETATM    1  C8  UNL     1      20.803  -0.890  53.885  1.00  0.00     0.722 A 
HETATM    2  N3  UNL     1      21.237  -1.610  54.926  1.00  0.00    -0.075 NA
HETATM    3  C9  UNL     1      22.533  -1.611  55.257  1.00  0.00     0.138 A 
HETATM    4  C10 UNL     1      23.438  -0.854  54.508  1.00  0.00     0.048 A 
HETATM    5  C11 UNL     1      22.986  -0.110  53.431  1.00  0.00     0.061 A 
HETATM    6  N5  UNL     1      21.649  -0.151  53.144  1.00  0.00    -0.067 NA
ENDROOT
BRANCH   1   7
HETATM    7  N2  UNL     1      19.462  -0.764  53.394  1.00  0.00    -0.220 N 
HETATM    8  H11 UNL     1      18.589  -1.265  53.732  1.00  0.00     0.177 HD
BRANCH   7   9
HETATM    9  C7  UNL     1      19.459   0.198  52.311  1.00  0.00     0.167 C 
BRANCH   9  10
HETATM   10  C6  UNL     1      18.043   0.564  51.996  1.00  0.00     0.124 A 
HETATM   11  N1  UNL     1      17.940   1.713  51.134  1.00  0.00    -0.385 N 
HETATM   12  C1  UNL     1      18.632   2.911  51.568  1.00  0.00     0.149 C 
HETATM   13  C2  UNL     1      17.246   1.836  49.902  1.00  0.00     0.086 A 
HETATM   14  C3  UNL     1      16.605   0.740  49.485  1.00  0.00     0.017 A 
HETATM   15  C4  UNL     1      16.621  -0.499  50.251  1.00  0.00    -0.001 A 
HETATM   16  C5  UNL     1      17.283  -0.551  51.389  1.00  0.00    -0.000 A 
ENDBRANCH   9  10
ENDBRANCH   7   9
ENDBRANCH   1   7
BRANCH   5  17
HETATM   17  C12 UNL     1      23.931   0.700  52.638  1.00  0.00     0.127 C 
BRANCH  17  18
HETATM   18  C13 UNL     1      25.319   0.280  52.830  1.00  0.00     0.082 A 
HETATM   19  N4  UNL     1      26.106  -0.702  52.756  1.00  0.00    -0.244 NA
HETATM   20  C14 UNL     1      27.386  -0.568  53.057  1.00  0.00     0.074 A 
HETATM   21  C15 UNL     1      28.305  -1.608  52.996  1.00  0.00     0.033 A 
HETATM   22  C19 UNL     1      27.979   0.670  53.483  1.00  0.00     0.035 A 
HETATM   23  C16 UNL     1      29.610  -1.412  53.316  1.00  0.00     0.002 A 
HETATM   24  C17 UNL     1      30.132  -0.180  53.726  1.00  0.00     0.002 A 
HETATM   25  C18 UNL     1      29.278   0.893  53.810  1.00  0.00     0.021 A 
HETATM   26  S1  UNL     1      26.413   1.725  53.412  1.00  0.00    -0.072 SA
ENDBRANCH  17  18
ENDBRANCH   5  17
TORSDOF 5
ENDMDL
MODEL 9
REMARK VINA RESULT:      -7.7      3.610      7.510
REMARK  5 active torsions:
REMARK  status: ('A' for Active; 'I' for Inactive)
REMARK    1  A    between atoms: C6_7  and  C7_8 
REMARK    2  A    between atoms: C7_8  and  N2_9 
REMARK    3  A    between atoms: N2_9  and  C8_10 
REMARK    4  A    between atoms: C11_14  and  C12_15 
REMARK    5  A    between atoms: C12_15  and  C13_16 
ROOT
HETATM    1  C8  UNL     1      25.448   6.847  50.327  1.00  0.00     0.722 A 
HETATM    2  N3  UNL     1      24.220   7.218  50.709  1.00  0.00    -0.075 NA
HETATM    3  C9  UNL     1      23.258   6.305  50.883  1.00  0.00     0.138 A 
HETATM    4  C10 UNL     1      23.540   4.955  50.664  1.00  0.00     0.048 A 
HETATM    5  C11 UNL     1      24.812   4.573  50.269  1.00  0.00     0.061 A 
HETATM    6  N5  UNL     1      25.751   5.554  50.109  1.00  0.00    -0.067 NA
ENDROOT
BRANCH   1   7
HETATM    7  N2  UNL     1      26.593   7.678  50.102  1.00  0.00    -0.220 N 
HETATM    8  H11 UNL     1      27.465   7.772  50.701  1.00  0.00     0.177 HD
BRANCH   7   9
HETATM    9  C7  UNL     1      26.389   8.417  48.874  1.00  0.00     0.167 C 
BRANCH   9  10
HETATM   10  C6  UNL     1      27.619   8.298  48.030  1.00  0.00     0.124 A 
HETATM   11  N1  UNL     1      28.767   8.939  48.619  1.00  0.00    -0.385 N 
HETATM   12  C1  UNL     1      28.608  10.330  48.995  1.00  0.00     0.149 C 
HETATM   13  C2  UNL     1      30.048   8.388  48.886  1.00  0.00     0.086 A 
HETATM   14  C3  UNL     1      30.211   7.106  48.548  1.00  0.00     0.017 A 
HETATM   15  C4  UNL     1      29.138   6.327  47.945  1.00  0.00    -0.001 A 
HETATM   16  C5  UNL     1      27.970   6.894  47.720  1.00  0.00    -0.000 A 
ENDBRANCH   9  10
ENDBRANCH   7   9
ENDBRANCH   1   7
BRANCH   5  17
HETATM   17  C12 UNL     1      25.123   3.148  50.042  1.00  0.00     0.127 C 
BRANCH  17  18
HETATM   18  C13 UNL     1      25.970   2.589  51.096  1.00  0.00     0.082 A 
HETATM   19  N4  UNL     1      27.114   2.648  51.622  1.00  0.00    -0.244 NA
HETATM   20  C14 UNL     1      27.429   1.874  52.645  1.00  0.00     0.074 A 
HETATM   21  C15 UNL     1      28.670   1.889  53.270  1.00  0.00     0.033 A 
HETATM   22  C19 UNL     1      26.525   0.926  53.235  1.00  0.00     0.035 A 
HETATM   23  C16 UNL     1      28.938   1.072  54.320  1.00  0.00     0.002 A 
HETATM   24  C17 UNL     1      28.014   0.166  54.854  1.00  0.00     0.002 A 
HETATM   25  C18 UNL     1      26.766   0.097  54.284  1.00  0.00     0.021 A 
HETATM   26  S1  UNL     1      25.050   1.260  52.102  1.00  0.00    -0.072 SA
ENDBRANCH  17  18
ENDBRANCH   5  17
TORSDOF 5
ENDMDL
