MODEL 1
REMARK VINA RESULT:      -8.5      0.000      0.000
REMARK  4 active torsions:
REMARK  status: ('A' for Active; 'I' for Inactive)
REMARK    1  A    between atoms: O1_2  and  C2_3 
REMARK    2  A    between atoms: C6_9  and  N3_10 
REMARK    3  A    between atoms: N3_10  and  C7_11 
REMARK    4  A    between atoms: C17_22  and  O2_23 
ROOT
HETATM    1  C2  UNL     1      21.490   0.794  51.427  1.00  0.00     0.103 A 
HETATM    2  C3  UNL     1      22.210   1.451  50.431  1.00  0.00     0.072 A 
HETATM    3  C4  UNL     1      23.436   2.045  50.703  1.00  0.00     0.075 A 
HETATM    4  N1  UNL     1      24.153   2.689  49.749  1.00  0.00    -0.241 NA
HETATM    5  C5  UNL     1      25.350   3.261  50.046  1.00  0.00     0.236 A 
HETATM    6  N2  UNL     1      25.848   3.200  51.293  1.00  0.00    -0.223 NA
HETATM    7  C6  UNL     1      25.197   2.581  52.291  1.00  0.00     0.143 A 
HETATM    8  C15 UNL     1      23.987   2.008  51.969  1.00  0.00     0.042 A 
HETATM    9  C16 UNL     1      23.283   1.361  52.963  1.00  0.00     0.057 A 
HETATM   10  C17 UNL     1      22.066   0.775  52.681  1.00  0.00     0.102 A 
ENDROOT
BRANCH   7  11
HETATM   11  N3  UNL     1      25.790   2.561  53.577  1.00  0.00    -0.324 N 
HETATM   12  H6  UNL     1      25.419   2.938  54.473  1.00  0.00     0.169 HD
BRANCH  11  13
HETATM   13  C7  UNL     1      27.076   1.952  53.710  1.00  0.00     0.135 A 
HETATM   14  N4  UNL     1      28.148   2.552  54.117  1.00  0.00    -0.267 NA
HETATM   15  C8  UNL     1      29.287   1.661  54.140  1.00  0.00     0.190 A 
HETATM   16  C9  UNL     1      28.755   0.336  53.663  1.00  0.00    -0.024 A 
HETATM   17  C10 UNL     1      29.434  -0.852  53.501  1.00  0.00     0.010 A 
HETATM   18  C14 UNL     1      27.415   0.542  53.410  1.00  0.00     0.018 A 
HETATM   19  C11 UNL     1      28.644  -1.891  53.042  1.00  0.00     0.001 A 
HETATM   20  C12 UNL     1      27.299  -1.756  52.768  1.00  0.00     0.001 A 
HETATM   21  C13 UNL     1      26.682  -0.534  52.953  1.00  0.00     0.016 A 
ENDBRANCH  11  13
ENDBRANCH   7  11
BRANCH  10  22
HETATM   22  O2  UNL     1      21.373   0.132  53.676  1.00  0.00    -0.353 OA
HETATM   23  C18 UNL     1      21.967  -0.734  54.620  1.00  0.00     0.210 C 
ENDBRANCH  10  22
BRANCH   1  24
HETATM   24  O1  UNL     1      20.264   0.194  51.176  1.00  0.00    -0.353 OA
HETATM   25  C1  UNL     1      19.340   0.944  50.383  1.00  0.00     0.210 C 
ENDBRANCH   1  24
TORSDOF 4
ENDMDL
MODEL 2
REMARK VINA RESULT:      -8.5      2.027      3.442
REMARK  4 active torsions:
REMARK  status: ('A' for Active; 'I' for Inactive)
REMARK    1  A    between atoms: O1_2  and  C2_3 
REMARK    2  A    between atoms: C6_9  and  N3_10 
REMARK    3  A    between atoms: N3_10  and  C7_11 
REMARK    4  A    between atoms: C17_22  and  O2_23 
ROOT
HETATM    1  C2  UNL     1      19.922  -0.228  52.678  1.00  0.00     0.103 A 
HETATM    2  C3  UNL     1      20.432  -0.809  53.838  1.00  0.00     0.072 A 
HETATM    3  C4  UNL     1      21.797  -0.811  54.101  1.00  0.00     0.075 A 
HETATM    4  N1  UNL     1      22.315  -1.370  55.222  1.00  0.00    -0.241 NA
HETATM    5  C5  UNL     1      23.654  -1.355  55.451  1.00  0.00     0.236 A 
HETATM    6  N2  UNL     1      24.494  -0.786  54.570  1.00  0.00    -0.223 NA
HETATM    7  C6  UNL     1      24.058  -0.212  53.436  1.00  0.00     0.143 A 
HETATM    8  C15 UNL     1      22.698  -0.237  53.224  1.00  0.00     0.042 A 
HETATM    9  C16 UNL     1      22.203   0.340  52.073  1.00  0.00     0.057 A 
HETATM   10  C17 UNL     1      20.846   0.335  51.823  1.00  0.00     0.102 A 
ENDROOT
BRANCH   7  11
HETATM   11  N3  UNL     1      25.008   0.366  52.560  1.00  0.00    -0.324 N 
HETATM   12  H6  UNL     1      24.872   0.721  51.592  1.00  0.00     0.169 HD
BRANCH  11  13
HETATM   13  C7  UNL     1      26.351   0.501  53.027  1.00  0.00     0.135 A 
HETATM   14  N4  UNL     1      26.878   1.592  53.483  1.00  0.00    -0.267 NA
HETATM   15  C8  UNL     1      28.257   1.401  53.875  1.00  0.00     0.190 A 
HETATM   16  C9  UNL     1      28.547  -0.049  53.587  1.00  0.00    -0.024 A 
HETATM   17  C10 UNL     1      29.721  -0.742  53.782  1.00  0.00     0.010 A 
HETATM   18  C14 UNL     1      27.376  -0.567  53.075  1.00  0.00     0.018 A 
HETATM   19  C11 UNL     1      29.653  -2.073  53.411  1.00  0.00     0.001 A 
HETATM   20  C12 UNL     1      28.517  -2.659  52.892  1.00  0.00     0.001 A 
HETATM   21  C13 UNL     1      27.373  -1.901  52.724  1.00  0.00     0.016 A 
ENDBRANCH  11  13
ENDBRANCH   7  11
BRANCH  10  22
HETATM   22  O2  UNL     1      20.363   0.913  50.676  1.00  0.00    -0.353 OA
HETATM   23  C18 UNL     1      21.074   0.960  49.456  1.00  0.00     0.210 C 
ENDBRANCH  10  22
BRANCH   1  24
HETATM   24  O1  UNL     1      18.563  -0.216  52.398  1.00  0.00    -0.353 OA
HETATM   25  C1  UNL     1      17.761  -1.171  53.097  1.00  0.00     0.210 C 
ENDBRANCH   1  24
TORSDOF 4
ENDMDL
MODEL 3
REMARK VINA RESULT:      -7.8      2.348      6.088
REMARK  4 active torsions:
REMARK  status: ('A' for Active; 'I' for Inactive)
REMARK    1  A    between atoms: O1_2  and  C2_3 
REMARK    2  A    between atoms: C6_9  and  N3_10 
REMARK    3  A    between atoms: N3_10  and  C7_11 
REMARK    4  A    between atoms: C17_22  and  O2_23 
ROOT
HETATM    1  C2  UNL     1      27.256  -0.203  53.411  1.00  0.00     0.103 A 
HETATM    2  C3  UNL     1      27.535   0.603  52.309  1.00  0.00     0.072 A 
HETATM    3  C4  UNL     1      26.645   1.586  51.894  1.00  0.00     0.075 A 
HETATM    4  N1  UNL     1      26.897   2.381  50.825  1.00  0.00    -0.241 NA
HETATM    5  C5  UNL     1      26.006   3.334  50.443  1.00  0.00     0.236 A 
HETATM    6  N2  UNL     1      24.856   3.508  51.117  1.00  0.00    -0.223 NA
HETATM    7  C6  UNL     1      24.536   2.759  52.185  1.00  0.00     0.143 A 
HETATM    8  C15 UNL     1      25.452   1.801  52.556  1.00  0.00     0.042 A 
HETATM    9  C16 UNL     1      25.165   1.007  53.647  1.00  0.00     0.057 A 
HETATM   10  C17 UNL     1      26.057   0.035  54.051  1.00  0.00     0.102 A 
ENDROOT
BRANCH   7  11
HETATM   11  N3  UNL     1      23.305   3.006  52.840  1.00  0.00    -0.324 N 
HETATM   12  H6  UNL     1      23.124   3.561  53.702  1.00  0.00     0.169 HD
BRANCH  11  13
HETATM   13  C7  UNL     1      22.123   2.434  52.279  1.00  0.00     0.135 A 
HETATM   14  N4  UNL     1      21.527   2.851  51.208  1.00  0.00    -0.267 NA
HETATM   15  C8  UNL     1      20.356   2.061  50.902  1.00  0.00     0.190 A 
HETATM   16  C9  UNL     1      20.289   1.023  51.991  1.00  0.00    -0.024 A 
HETATM   17  C10 UNL     1      19.359   0.022  52.164  1.00  0.00     0.010 A 
HETATM   18  C14 UNL     1      21.371   1.274  52.809  1.00  0.00     0.018 A 
HETATM   19  C11 UNL     1      19.589  -0.769  53.276  1.00  0.00     0.001 A 
HETATM   20  C12 UNL     1      20.648  -0.576  54.138  1.00  0.00     0.001 A 
HETATM   21  C13 UNL     1      21.543   0.450  53.902  1.00  0.00     0.016 A 
ENDBRANCH  11  13
ENDBRANCH   7  11
BRANCH  10  22
HETATM   22  O2  UNL     1      25.764  -0.749  55.138  1.00  0.00    -0.353 OA
HETATM   23  C18 UNL     1      24.468  -1.215  55.450  1.00  0.00     0.210 C 
ENDBRANCH  10  22
BRANCH   1  24
HETATM   24  O1  UNL     1      28.132  -1.190  53.843  1.00  0.00    -0.353 OA
HETATM   25  C1  UNL     1      29.526  -0.876  53.774  1.00  0.00     0.210 C 
ENDBRANCH   1  24
TORSDOF 4
ENDMDL
MODEL 4
REMARK VINA RESULT:      -7.6      2.673      7.092
REMARK  4 active torsions:
REMARK  status: ('A' for Active; 'I' for Inactive)
REMARK    1  A    between atoms: O1_2  and  C2_3 
REMARK    2  A    between atoms: C6_9  and  N3_10 
REMARK    3  A    between atoms: N3_10  and  C7_11 
REMARK    4  A    between atoms: C17_22  and  O2_23 
ROOT
HETATM    1  C2  UNL     1      26.436   1.129  54.044  1.00  0.00     0.103 A 
HETATM    2  C3  UNL     1      25.905   2.407  53.883  1.00  0.00     0.072 A 
HETATM    3  C4  UNL     1      24.727   2.612  53.175  1.00  0.00     0.075 A 
HETATM    4  N1  UNL     1      24.192   3.847  53.006  1.00  0.00    -0.241 NA
HETATM    5  C5  UNL     1      23.039   4.015  52.308  1.00  0.00     0.236 A 
HETATM    6  N2  UNL     1      22.403   2.961  51.770  1.00  0.00    -0.223 NA
HETATM    7  C6  UNL     1      22.870   1.708  51.893  1.00  0.00     0.143 A 
HETATM    8  C15 UNL     1      24.039   1.559  52.604  1.00  0.00     0.042 A 
HETATM    9  C16 UNL     1      24.556   0.290  52.757  1.00  0.00     0.057 A 
HETATM   10  C17 UNL     1      25.727   0.098  53.462  1.00  0.00     0.102 A 
ENDROOT
BRANCH   7  11
HETATM   11  N3  UNL     1      22.139   0.651  51.296  1.00  0.00    -0.324 N 
HETATM   12  H6  UNL     1      22.320   0.160  50.396  1.00  0.00     0.169 HD
BRANCH  11  13
HETATM   13  C7  UNL     1      20.990   0.160  51.987  1.00  0.00     0.135 A 
HETATM   14  N4  UNL     1      21.000  -0.387  53.160  1.00  0.00    -0.267 NA
HETATM   15  C8  UNL     1      19.674  -0.779  53.583  1.00  0.00     0.190 A 
HETATM   16  C9  UNL     1      18.769  -0.380  52.448  1.00  0.00    -0.024 A 
HETATM   17  C10 UNL     1      17.404  -0.532  52.347  1.00  0.00     0.010 A 
HETATM   18  C14 UNL     1      19.593   0.185  51.497  1.00  0.00     0.018 A 
HETATM   19  C11 UNL     1      16.873  -0.054  51.162  1.00  0.00     0.001 A 
HETATM   20  C12 UNL     1      17.636   0.522  50.167  1.00  0.00     0.001 A 
HETATM   21  C13 UNL     1      19.002   0.642  50.337  1.00  0.00     0.016 A 
ENDBRANCH  11  13
ENDBRANCH   7  11
BRANCH  10  22
HETATM   22  O2  UNL     1      26.234  -1.169  53.609  1.00  0.00    -0.353 OA
HETATM   23  C18 UNL     1      26.951  -1.854  52.604  1.00  0.00     0.210 C 
ENDBRANCH  10  22
BRANCH   1  24
HETATM   24  O1  UNL     1      27.611   0.902  54.748  1.00  0.00    -0.353 OA
HETATM   25  C1  UNL     1      28.831   1.157  54.046  1.00  0.00     0.210 C 
ENDBRANCH   1  24
TORSDOF 4
ENDMDL
MODEL 5
REMARK VINA RESULT:      -7.4      3.122      6.452
REMARK  4 active torsions:
REMARK  status: ('A' for Active; 'I' for Inactive)
REMARK    1  A    between atoms: O1_2  and  C2_3 
REMARK    2  A    between atoms: C6_9  and  N3_10 
REMARK    3  A    between atoms: N3_10  and  C7_11 
REMARK    4  A    between atoms: C17_22  and  O2_23 
ROOT
HETATM    1  C2  UNL     1      25.972   0.206  53.651  1.00  0.00     0.103 A 
HETATM    2  C3  UNL     1      24.727  -0.097  53.103  1.00  0.00     0.072 A 
HETATM    3  C4  UNL     1      23.845   0.908  52.722  1.00  0.00     0.075 A 
HETATM    4  N1  UNL     1      22.629   0.636  52.187  1.00  0.00    -0.241 NA
HETATM    5  C5  UNL     1      21.789   1.641  51.825  1.00  0.00     0.236 A 
HETATM    6  N2  UNL     1      22.146   2.926  51.989  1.00  0.00    -0.223 NA
HETATM    7  C6  UNL     1      23.333   3.275  52.513  1.00  0.00     0.143 A 
HETATM    8  C15 UNL     1      24.169   2.243  52.872  1.00  0.00     0.042 A 
HETATM    9  C16 UNL     1      25.398   2.553  53.414  1.00  0.00     0.057 A 
HETATM   10  C17 UNL     1      26.266   1.547  53.788  1.00  0.00     0.102 A 
ENDROOT
BRANCH   7  11
HETATM   11  N3  UNL     1      23.633   4.652  52.652  1.00  0.00    -0.324 N 
HETATM   12  H6  UNL     1      24.002   5.159  53.483  1.00  0.00     0.169 HD
BRANCH  11  13
HETATM   13  C7  UNL     1      23.412   5.501  51.525  1.00  0.00     0.135 A 
HETATM   14  N4  UNL     1      22.343   6.199  51.313  1.00  0.00    -0.267 NA
HETATM   15  C8  UNL     1      22.428   6.954  50.083  1.00  0.00     0.190 A 
HETATM   16  C9  UNL     1      23.780   6.617  49.511  1.00  0.00    -0.024 A 
HETATM   17  C10 UNL     1      24.354   7.073  48.346  1.00  0.00     0.010 A 
HETATM   18  C14 UNL     1      24.351   5.736  50.405  1.00  0.00     0.018 A 
HETATM   19  C11 UNL     1      25.619   6.565  48.109  1.00  0.00     0.001 A 
HETATM   20  C12 UNL     1      26.252   5.681  48.958  1.00  0.00     0.001 A 
HETATM   21  C13 UNL     1      25.615   5.265  50.111  1.00  0.00     0.016 A 
ENDBRANCH  11  13
ENDBRANCH   7  11
BRANCH  10  22
HETATM   22  O2  UNL     1      27.488   1.866  54.326  1.00  0.00    -0.353 OA
HETATM   23  C18 UNL     1      28.589   2.320  53.568  1.00  0.00     0.210 C 
ENDBRANCH  10  22
BRANCH   1  24
HETATM   24  O1  UNL     1      26.867  -0.782  54.036  1.00  0.00    -0.353 OA
HETATM   25  C1  UNL     1      27.629  -1.393  52.991  1.00  0.00     0.210 C 
ENDBRANCH   1  24
TORSDOF 4
ENDMDL
MODEL 6
REMARK VINA RESULT:      -7.3      1.777      2.436
REMARK  4 active torsions:
REMARK  status: ('A' for Active; 'I' for Inactive)
REMARK    1  A    between atoms: O1_2  and  C2_3 
REMARK    2  A    between atoms: C6_9  and  N3_10 
REMARK    3  A    between atoms: N3_10  and  C7_11 
REMARK    4  A    between atoms: C17_22  and  O2_23 
ROOT
HETATM    1  C2  UNL     1      21.728   3.400  50.711  1.00  0.00     0.103 A 
HETATM    2  C3  UNL     1      22.807   3.743  49.899  1.00  0.00     0.072 A 
HETATM    3  C4  UNL     1      24.111   3.446  50.272  1.00  0.00     0.075 A 
HETATM    4  N1  UNL     1      25.175   3.771  49.498  1.00  0.00    -0.241 NA
HETATM    5  C5  UNL     1      26.440   3.467  49.891  1.00  0.00     0.236 A 
HETATM    6  N2  UNL     1      26.663   2.837  51.057  1.00  0.00    -0.223 NA
HETATM    7  C6  UNL     1      25.662   2.483  51.879  1.00  0.00     0.143 A 
HETATM    8  C15 UNL     1      24.389   2.800  51.462  1.00  0.00     0.042 A 
HETATM    9  C16 UNL     1      23.328   2.456  52.274  1.00  0.00     0.057 A 
HETATM   10  C17 UNL     1      22.036   2.757  51.892  1.00  0.00     0.102 A 
ENDROOT
BRANCH   7  11
HETATM   11  N3  UNL     1      25.981   1.822  53.090  1.00  0.00    -0.324 N 
HETATM   12  H6  UNL     1      25.906   2.176  54.066  1.00  0.00     0.169 HD
BRANCH  11  13
HETATM   13  C7  UNL     1      26.478   0.485  53.010  1.00  0.00     0.135 A 
HETATM   14  N4  UNL     1      25.771  -0.558  52.715  1.00  0.00    -0.267 NA
HETATM   15  C8  UNL     1      26.566  -1.765  52.717  1.00  0.00     0.190 A 
HETATM   16  C9  UNL     1      27.958  -1.315  53.075  1.00  0.00    -0.024 A 
HETATM   17  C10 UNL     1      29.097  -2.077  53.210  1.00  0.00     0.010 A 
HETATM   18  C14 UNL     1      27.873   0.051  53.245  1.00  0.00     0.018 A 
HETATM   19  C11 UNL     1      30.222  -1.348  53.549  1.00  0.00     0.001 A 
HETATM   20  C12 UNL     1      30.212   0.019  53.737  1.00  0.00     0.001 A 
HETATM   21  C13 UNL     1      29.031   0.721  53.584  1.00  0.00     0.016 A 
ENDBRANCH  11  13
ENDBRANCH   7  11
BRANCH  10  22
HETATM   22  O2  UNL     1      20.988   2.410  52.706  1.00  0.00    -0.353 OA
HETATM   23  C18 UNL     1      20.847   1.144  53.317  1.00  0.00     0.210 C 
ENDBRANCH  10  22
BRANCH   1  24
HETATM   24  O1  UNL     1      20.417   3.687  50.356  1.00  0.00    -0.353 OA
HETATM   25  C1  UNL     1      20.080   5.072  50.237  1.00  0.00     0.210 C 
ENDBRANCH   1  24
TORSDOF 4
ENDMDL
MODEL 7
REMARK VINA RESULT:      -7.3      2.478      5.462
REMARK  4 active torsions:
REMARK  status: ('A' for Active; 'I' for Inactive)
REMARK    1  A    between atoms: O1_2  and  C2_3 
REMARK    2  A    between atoms: C6_9  and  N3_10 
REMARK    3  A    between atoms: N3_10  and  C7_11 
REMARK    4  A    between atoms: C17_22  and  O2_23 
ROOT
HETATM    1  C2  UNL     1      22.651   0.437  53.171  1.00  0.00     0.103 A 
HETATM    2  C3  UNL     1      23.996   0.421  53.537  1.00  0.00     0.072 A 
HETATM    3  C4  UNL     1      24.955   1.082  52.779  1.00  0.00     0.075 A 
HETATM    4  N1  UNL     1      26.268   1.080  53.117  1.00  0.00    -0.241 NA
HETATM    5  C5  UNL     1      27.183   1.737  52.355  1.00  0.00     0.236 A 
HETATM    6  N2  UNL     1      26.804   2.402  51.251  1.00  0.00    -0.223 NA
HETATM    7  C6  UNL     1      25.523   2.450  50.851  1.00  0.00     0.143 A 
HETATM    8  C15 UNL     1      24.613   1.779  51.636  1.00  0.00     0.042 A 
HETATM    9  C16 UNL     1      23.285   1.800  51.265  1.00  0.00     0.057 A 
HETATM   10  C17 UNL     1      22.341   1.140  52.025  1.00  0.00     0.102 A 
ENDROOT
BRANCH   7  11
HETATM   11  N3  UNL     1      25.207   3.173  49.675  1.00  0.00    -0.324 N 
HETATM   12  H6  UNL     1      24.855   2.815  48.763  1.00  0.00     0.169 HD
BRANCH  11  13
HETATM   13  C7  UNL     1      25.379   4.591  49.697  1.00  0.00     0.135 A 
HETATM   14  N4  UNL     1      24.536   5.439  50.192  1.00  0.00    -0.267 NA
HETATM   15  C8  UNL     1      25.002   6.801  50.059  1.00  0.00     0.190 A 
HETATM   16  C9  UNL     1      26.337   6.691  49.370  1.00  0.00    -0.024 A 
HETATM   17  C10 UNL     1      27.199   7.702  49.008  1.00  0.00     0.010 A 
HETATM   18  C14 UNL     1      26.538   5.343  49.163  1.00  0.00     0.018 A 
HETATM   19  C11 UNL     1      28.353   7.258  48.386  1.00  0.00     0.001 A 
HETATM   20  C12 UNL     1      28.620   5.926  48.146  1.00  0.00     0.001 A 
HETATM   21  C13 UNL     1      27.708   4.965  48.537  1.00  0.00     0.016 A 
ENDBRANCH  11  13
ENDBRANCH   7  11
BRANCH  10  22
HETATM   22  O2  UNL     1      21.022   1.167  51.648  1.00  0.00    -0.353 OA
HETATM   23  C18 UNL     1      20.406   2.267  51.011  1.00  0.00     0.210 C 
ENDBRANCH  10  22
BRANCH   1  24
HETATM   24  O1  UNL     1      21.678  -0.217  53.914  1.00  0.00    -0.353 OA
HETATM   25  C1  UNL     1      22.045  -1.484  54.467  1.00  0.00     0.210 C 
ENDBRANCH   1  24
TORSDOF 4
ENDMDL
MODEL 8
REMARK VINA RESULT:      -7.2      3.230      6.880
REMARK  4 active torsions:
REMARK  status: ('A' for Active; 'I' for Inactive)
REMARK    1  A    between atoms: O1_2  and  C2_3 
REMARK    2  A    between atoms: C6_9  and  N3_10 
REMARK    3  A    between atoms: N3_10  and  C7_11 
REMARK    4  A    between atoms: C17_22  and  O2_23 
ROOT
HETATM    1  C2  UNL     1      26.170  -0.500  53.927  1.00  0.00     0.103 A 
HETATM    2  C3  UNL     1      25.178  -0.958  54.792  1.00  0.00     0.072 A 
HETATM    3  C4  UNL     1      23.832  -0.837  54.470  1.00  0.00     0.075 A 
HETATM    4  N1  UNL     1      22.850  -1.275  55.296  1.00  0.00    -0.241 NA
HETATM    5  C5  UNL     1      21.542  -1.142  54.953  1.00  0.00     0.236 A 
HETATM    6  N2  UNL     1      21.193  -0.574  53.786  1.00  0.00    -0.223 NA
HETATM    7  C6  UNL     1      22.107  -0.116  52.915  1.00  0.00     0.143 A 
HETATM    8  C15 UNL     1      23.426  -0.260  53.282  1.00  0.00     0.042 A 
HETATM    9  C16 UNL     1      24.400   0.197  52.419  1.00  0.00     0.057 A 
HETATM   10  C17 UNL     1      25.734   0.071  52.750  1.00  0.00     0.102 A 
ENDROOT
BRANCH   7  11
HETATM   11  N3  UNL     1      21.658   0.470  51.706  1.00  0.00    -0.324 N 
HETATM   12  H6  UNL     1      21.616   0.051  50.754  1.00  0.00     0.169 HD
BRANCH  11  13
HETATM   13  C7  UNL     1      21.188   1.818  51.751  1.00  0.00     0.135 A 
HETATM   14  N4  UNL     1      19.965   2.176  51.977  1.00  0.00    -0.267 NA
HETATM   15  C8  UNL     1      19.813   3.613  51.957  1.00  0.00     0.190 A 
HETATM   16  C9  UNL     1      21.191   4.148  51.670  1.00  0.00    -0.024 A 
HETATM   17  C10 UNL     1      21.592   5.459  51.546  1.00  0.00     0.010 A 
HETATM   18  C14 UNL     1      22.001   3.039  51.551  1.00  0.00     0.018 A 
HETATM   19  C11 UNL     1      22.942   5.609  51.279  1.00  0.00     0.001 A 
HETATM   20  C12 UNL     1      23.810   4.546  51.146  1.00  0.00     0.001 A 
HETATM   21  C13 UNL     1      23.338   3.255  51.283  1.00  0.00     0.016 A 
ENDBRANCH  11  13
ENDBRANCH   7  11
BRANCH  10  22
HETATM   22  O2  UNL     1      26.697   0.528  51.884  1.00  0.00    -0.353 OA
HETATM   23  C18 UNL     1      26.791   1.866  51.443  1.00  0.00     0.210 C 
ENDBRANCH  10  22
BRANCH   1  24
HETATM   24  O1  UNL     1      27.520  -0.612  54.230  1.00  0.00    -0.353 OA
HETATM   25  C1  UNL     1      28.104   0.482  54.944  1.00  0.00     0.210 C 
ENDBRANCH   1  24
TORSDOF 4
ENDMDL
MODEL 9
REMARK VINA RESULT:      -7.1      3.060      6.796
REMARK  4 active torsions:
REMARK  status: ('A' for Active; 'I' for Inactive)
REMARK    1  A    between atoms: O1_2  and  C2_3 
REMARK    2  A    between atoms: C6_9  and  N3_10 
REMARK    3  A    between atoms: N3_10  and  C7_11 
REMARK    4  A    between atoms: C17_22  and  O2_23 
ROOT
HETATM    1  C2  UNL     1      27.051  -0.407  53.553  1.00  0.00     0.103 A 
HETATM    2  C3  UNL     1      25.768  -0.921  53.730  1.00  0.00     0.072 A 
HETATM    3  C4  UNL     1      24.643  -0.144  53.484  1.00  0.00     0.075 A 
HETATM    4  N1  UNL     1      23.385  -0.622  53.649  1.00  0.00    -0.241 NA
HETATM    5  C5  UNL     1      22.304   0.163  53.400  1.00  0.00     0.236 A 
HETATM    6  N2  UNL     1      22.459   1.431  52.985  1.00  0.00    -0.223 NA
HETATM    7  C6  UNL     1      23.672   1.977  52.798  1.00  0.00     0.143 A 
HETATM    8  C15 UNL     1      24.753   1.165  53.055  1.00  0.00     0.042 A 
HETATM    9  C16 UNL     1      26.019   1.683  52.878  1.00  0.00     0.057 A 
HETATM   10  C17 UNL     1      27.129   0.902  53.125  1.00  0.00     0.102 A 
ENDROOT
BRANCH   7  11
HETATM   11  N3  UNL     1      23.749   3.321  52.358  1.00  0.00    -0.324 N 
HETATM   12  H6  UNL     1      24.480   4.034  52.562  1.00  0.00     0.169 HD
BRANCH  11  13
HETATM   13  C7  UNL     1      22.702   3.810  51.519  1.00  0.00     0.135 A 
HETATM   14  N4  UNL     1      21.821   4.694  51.861  1.00  0.00    -0.267 NA
HETATM   15  C8  UNL     1      20.896   4.976  50.787  1.00  0.00     0.190 A 
HETATM   16  C9  UNL     1      21.339   4.095  49.649  1.00  0.00    -0.024 A 
HETATM   17  C10 UNL     1      20.791   3.980  48.390  1.00  0.00     0.010 A 
HETATM   18  C14 UNL     1      22.433   3.402  50.121  1.00  0.00     0.018 A 
HETATM   19  C11 UNL     1      21.444   3.073  47.576  1.00  0.00     0.001 A 
HETATM   20  C12 UNL     1      22.543   2.344  47.981  1.00  0.00     0.001 A 
HETATM   21  C13 UNL     1      23.040   2.510  49.260  1.00  0.00     0.016 A 
ENDBRANCH  11  13
ENDBRANCH   7  11
BRANCH  10  22
HETATM   22  O2  UNL     1      28.385   1.426  52.945  1.00  0.00    -0.353 OA
HETATM   23  C18 UNL     1      28.898   2.517  53.680  1.00  0.00     0.210 C 
ENDBRANCH  10  22
BRANCH   1  24
HETATM   24  O1  UNL     1      28.188  -1.167  53.793  1.00  0.00    -0.353 OA
HETATM   25  C1  UNL     1      28.369  -2.319  52.965  1.00  0.00     0.210 C 
ENDBRANCH   1  24
TORSDOF 4
ENDMDL
