MODEL 1
REMARK VINA RESULT:      -7.0      0.000      0.000
REMARK  9 active torsions:
REMARK  status: ('A' for Active; 'I' for Inactive)
REMARK    1  A    between atoms: C2_2  and  O1_3 
REMARK    2  A    between atoms: O1_3  and  C3_4 
REMARK    3  A    between atoms: C3_4  and  C4_5 
REMARK    4  A    between atoms: C5_6  and  N1_7 
REMARK    5  A    between atoms: C6_8  and  C7_9 
REMARK    6  A    between atoms: C7_9  and  C8_10 
REMARK    7  A    between atoms: C8_10  and  C9_11 
REMARK    8  A    between atoms: N3_13  and  C10_14 
REMARK    9  A    between atoms: C15_21  and  N6_22 
ROOT
HETATM    1  C9  UNL     1      24.837   0.856  52.904  1.00  0.00     0.102 A 
HETATM    2  N2  UNL     1      24.643   1.745  51.890  1.00  0.00    -0.169 NA
HETATM    3  N3  UNL     1      25.725   2.448  51.684  1.00  0.00    -0.247 N 
HETATM    4  C13 UNL     1      26.699   2.064  52.549  1.00  0.00     0.164 A 
HETATM    5  N4  UNL     1      27.960   2.497  52.707  1.00  0.00    -0.222 NA
HETATM    6  C14 UNL     1      28.735   1.923  53.674  1.00  0.00     0.237 A 
HETATM    7  N5  UNL     1      28.231   0.943  54.446  1.00  0.00    -0.224 NA
HETATM    8  C15 UNL     1      26.962   0.480  54.315  1.00  0.00     0.139 A 
HETATM    9  C16 UNL     1      26.154   1.053  53.333  1.00  0.00     0.088 A 
ENDROOT
BRANCH   1  10
HETATM   10  C8  UNL     1      24.008  -0.153  53.550  1.00  0.00     0.091 C 
BRANCH  10  11
HETATM   11  C7  UNL     1      22.713  -0.045  53.536  1.00  0.00    -0.111 C 
BRANCH  11  12
HETATM   12  C6  UNL     1      21.441   0.209  53.286  1.00  0.00     0.047 A 
HETATM   13  C4  UNL     1      20.349   0.923  52.829  1.00  0.00     0.013 A 
HETATM   14  C5  UNL     1      20.127  -0.297  53.408  1.00  0.00     0.054 A 
BRANCH  13  15
HETATM   15  C3  UNL     1      19.654   2.073  52.197  1.00  0.00     0.210 C 
BRANCH  15  16
HETATM   16  O1  UNL     1      20.024   3.252  52.783  1.00  0.00    -0.387 OA
BRANCH  16  17
HETATM   17  C2  UNL     1      21.161   3.743  52.156  1.00  0.00     0.163 C 
HETATM   18  C1  UNL     1      20.786   4.433  50.850  1.00  0.00     0.033 C 
ENDBRANCH  16  17
ENDBRANCH  15  16
ENDBRANCH  13  15
BRANCH  14  19
HETATM   19  N1  UNL     1      19.203  -1.323  53.826  1.00  0.00    -0.397 N 
HETATM   20  H8  UNL     1      18.208  -1.125  54.137  1.00  0.00     0.156 HD
HETATM   21  H9  UNL     1      19.702  -2.238  53.756  1.00  0.00     0.156 HD
ENDBRANCH  14  19
ENDBRANCH  11  12
ENDBRANCH  10  11
ENDBRANCH   1  10
BRANCH   3  22
HETATM   22  C10 UNL     1      25.886   3.488  50.683  1.00  0.00     0.104 C 
HETATM   23  C11 UNL     1      26.600   2.895  49.502  1.00  0.00     0.034 C 
HETATM   24  C12 UNL     1      24.527   3.976  50.216  1.00  0.00     0.034 C 
ENDBRANCH   3  22
BRANCH   8  25
HETATM   25  N6  UNL     1      26.422  -0.557  55.129  1.00  0.00    -0.383 N 
HETATM   26  H19 UNL     1      27.149  -0.857  55.835  1.00  0.00     0.157 HD
HETATM   27  H20 UNL     1      25.447  -0.842  54.910  1.00  0.00     0.157 HD
ENDBRANCH   8  25
TORSDOF 9
ENDMDL
MODEL 2
REMARK VINA RESULT:      -6.9      3.865      7.755
REMARK  9 active torsions:
REMARK  status: ('A' for Active; 'I' for Inactive)
REMARK    1  A    between atoms: C2_2  and  O1_3 
REMARK    2  A    between atoms: O1_3  and  C3_4 
REMARK    3  A    between atoms: C3_4  and  C4_5 
REMARK    4  A    between atoms: C5_6  and  N1_7 
REMARK    5  A    between atoms: C6_8  and  C7_9 
REMARK    6  A    between atoms: C7_9  and  C8_10 
REMARK    7  A    between atoms: C8_10  and  C9_11 
REMARK    8  A    between atoms: N3_13  and  C10_14 
REMARK    9  A    between atoms: C15_21  and  N6_22 
ROOT
HETATM    1  C9  UNL     1      26.156   2.498  51.057  1.00  0.00     0.102 A 
HETATM    2  N2  UNL     1      27.251   2.254  51.831  1.00  0.00    -0.169 NA
HETATM    3  N3  UNL     1      26.941   1.470  52.829  1.00  0.00    -0.247 N 
HETATM    4  C13 UNL     1      25.623   1.150  52.773  1.00  0.00     0.164 A 
HETATM    5  N4  UNL     1      24.867   0.382  53.575  1.00  0.00    -0.222 NA
HETATM    6  C14 UNL     1      23.543   0.227  53.279  1.00  0.00     0.237 A 
HETATM    7  N5  UNL     1      23.019   0.840  52.202  1.00  0.00    -0.224 NA
HETATM    8  C15 UNL     1      23.752   1.623  51.370  1.00  0.00     0.139 A 
HETATM    9  C16 UNL     1      25.106   1.793  51.655  1.00  0.00     0.088 A 
ENDROOT
BRANCH   1  10
HETATM   10  C8  UNL     1      25.911   3.277  49.851  1.00  0.00     0.091 C 
BRANCH  10  11
HETATM   11  C7  UNL     1      26.848   4.027  49.353  1.00  0.00    -0.111 C 
BRANCH  11  12
HETATM   12  C6  UNL     1      27.589   4.960  48.781  1.00  0.00     0.047 A 
HETATM   13  C4  UNL     1      28.723   5.529  48.231  1.00  0.00     0.013 A 
HETATM   14  C5  UNL     1      27.583   6.284  48.288  1.00  0.00     0.054 A 
BRANCH  13  15
HETATM   15  C3  UNL     1      30.142   5.566  47.796  1.00  0.00     0.210 C 
BRANCH  15  16
HETATM   16  O1  UNL     1      30.986   5.427  48.863  1.00  0.00    -0.387 OA
BRANCH  16  17
HETATM   17  C2  UNL     1      32.228   4.996  48.417  1.00  0.00     0.163 C 
HETATM   18  C1  UNL     1      32.074   4.169  47.147  1.00  0.00     0.033 C 
ENDBRANCH  16  17
ENDBRANCH  15  16
ENDBRANCH  13  15
BRANCH  14  19
HETATM   19  N1  UNL     1      26.905   7.530  48.025  1.00  0.00    -0.397 N 
HETATM   20  H8  UNL     1      27.177   8.453  48.474  1.00  0.00     0.156 HD
HETATM   21  H9  UNL     1      26.141   7.331  47.342  1.00  0.00     0.156 HD
ENDBRANCH  14  19
ENDBRANCH  11  12
ENDBRANCH  10  11
ENDBRANCH   1  10
BRANCH   3  22
HETATM   22  C10 UNL     1      27.854   0.999  53.855  1.00  0.00     0.104 C 
HETATM   23  C11 UNL     1      28.442  -0.304  53.396  1.00  0.00     0.034 C 
HETATM   24  C12 UNL     1      28.988   1.990  54.039  1.00  0.00     0.034 C 
ENDBRANCH   3  22
BRANCH   8  25
HETATM   25  N6  UNL     1      23.203   2.274  50.227  1.00  0.00    -0.383 N 
HETATM   26  H19 UNL     1      22.149   2.286  50.309  1.00  0.00     0.157 HD
HETATM   27  H20 UNL     1      23.892   2.616  49.529  1.00  0.00     0.157 HD
ENDBRANCH   8  25
TORSDOF 9
ENDMDL
MODEL 3
REMARK VINA RESULT:      -6.8      3.042      6.237
REMARK  9 active torsions:
REMARK  status: ('A' for Active; 'I' for Inactive)
REMARK    1  A    between atoms: C2_2  and  O1_3 
REMARK    2  A    between atoms: O1_3  and  C3_4 
REMARK    3  A    between atoms: C3_4  and  C4_5 
REMARK    4  A    between atoms: C5_6  and  N1_7 
REMARK    5  A    between atoms: C6_8  and  C7_9 
REMARK    6  A    between atoms: C7_9  and  C8_10 
REMARK    7  A    between atoms: C8_10  and  C9_11 
REMARK    8  A    between atoms: N3_13  and  C10_14 
REMARK    9  A    between atoms: C15_21  and  N6_22 
ROOT
HETATM    1  C9  UNL     1      25.134   1.075  52.242  1.00  0.00     0.102 A 
HETATM    2  N2  UNL     1      23.867   1.090  51.739  1.00  0.00    -0.169 NA
HETATM    3  N3  UNL     1      23.066   0.388  52.496  1.00  0.00    -0.247 N 
HETATM    4  C13 UNL     1      23.756  -0.131  53.544  1.00  0.00     0.164 A 
HETATM    5  N4  UNL     1      23.357  -0.906  54.565  1.00  0.00    -0.222 NA
HETATM    6  C14 UNL     1      24.278  -1.291  55.497  1.00  0.00     0.237 A 
HETATM    7  N5  UNL     1      25.558  -0.893  55.381  1.00  0.00    -0.224 NA
HETATM    8  C15 UNL     1      25.997  -0.109  54.362  1.00  0.00     0.139 A 
HETATM    9  C16 UNL     1      25.071   0.294  53.401  1.00  0.00     0.088 A 
ENDROOT
BRANCH   1  10
HETATM   10  C8  UNL     1      26.402   1.664  51.833  1.00  0.00     0.091 C 
BRANCH  10  11
HETATM   11  C7  UNL     1      26.442   2.524  50.860  1.00  0.00    -0.111 C 
BRANCH  11  12
HETATM   12  C6  UNL     1      26.306   3.544  50.031  1.00  0.00     0.047 A 
HETATM   13  C4  UNL     1      26.707   4.577  49.203  1.00  0.00     0.013 A 
HETATM   14  C5  UNL     1      25.365   4.356  49.359  1.00  0.00     0.054 A 
BRANCH  13  15
HETATM   15  C3  UNL     1      27.685   5.454  48.512  1.00  0.00     0.210 C 
BRANCH  15  16
HETATM   16  O1  UNL     1      28.876   4.807  48.324  1.00  0.00    -0.387 OA
BRANCH  16  17
HETATM   17  C2  UNL     1      29.878   5.741  48.098  1.00  0.00     0.163 C 
HETATM   18  C1  UNL     1      29.298   6.989  47.444  1.00  0.00     0.033 C 
ENDBRANCH  16  17
ENDBRANCH  15  16
ENDBRANCH  13  15
BRANCH  14  19
HETATM   19  N1  UNL     1      24.003   4.716  49.047  1.00  0.00    -0.397 N 
HETATM   20  H8  UNL     1      23.273   4.943  49.783  1.00  0.00     0.156 HD
HETATM   21  H9  UNL     1      23.908   4.702  48.008  1.00  0.00     0.156 HD
ENDBRANCH  14  19
ENDBRANCH  11  12
ENDBRANCH  10  11
ENDBRANCH   1  10
BRANCH   3  22
HETATM   22  C10 UNL     1      21.647   0.182  52.269  1.00  0.00     0.104 C 
HETATM   23  C11 UNL     1      20.891   1.186  53.093  1.00  0.00     0.034 C 
HETATM   24  C12 UNL     1      21.312   0.422  50.809  1.00  0.00     0.034 C 
ENDBRANCH   3  22
BRANCH   8  25
HETATM   25  N6  UNL     1      27.351   0.316  54.234  1.00  0.00    -0.383 N 
HETATM   26  H19 UNL     1      27.628   0.284  53.214  1.00  0.00     0.157 HD
HETATM   27  H20 UNL     1      27.828   0.577  55.119  1.00  0.00     0.157 HD
ENDBRANCH   8  25
TORSDOF 9
ENDMDL
MODEL 4
REMARK VINA RESULT:      -6.7      2.991      6.426
REMARK  9 active torsions:
REMARK  status: ('A' for Active; 'I' for Inactive)
REMARK    1  A    between atoms: C2_2  and  O1_3 
REMARK    2  A    between atoms: O1_3  and  C3_4 
REMARK    3  A    between atoms: C3_4  and  C4_5 
REMARK    4  A    between atoms: C5_6  and  N1_7 
REMARK    5  A    between atoms: C6_8  and  C7_9 
REMARK    6  A    between atoms: C7_9  and  C8_10 
REMARK    7  A    between atoms: C8_10  and  C9_11 
REMARK    8  A    between atoms: N3_13  and  C10_14 
REMARK    9  A    between atoms: C15_21  and  N6_22 
ROOT
HETATM    1  C9  UNL     1      23.701   1.322  51.833  1.00  0.00     0.102 A 
HETATM    2  N2  UNL     1      24.924   0.790  52.112  1.00  0.00    -0.169 NA
HETATM    3  N3  UNL     1      24.841  -0.050  53.109  1.00  0.00    -0.247 N 
HETATM    4  C13 UNL     1      23.558  -0.124  53.546  1.00  0.00     0.164 A 
HETATM    5  N4  UNL     1      23.003  -0.846  54.534  1.00  0.00    -0.222 NA
HETATM    6  C14 UNL     1      21.662  -0.725  54.761  1.00  0.00     0.237 A 
HETATM    7  N5  UNL     1      20.923   0.105  54.002  1.00  0.00    -0.224 NA
HETATM    8  C15 UNL     1      21.450   0.849  52.997  1.00  0.00     0.139 A 
HETATM    9  C16 UNL     1      22.818   0.740  52.748  1.00  0.00     0.088 A 
ENDROOT
BRANCH   1  10
HETATM   10  C8  UNL     1      23.204   2.282  50.857  1.00  0.00     0.091 C 
BRANCH  10  11
HETATM   11  C7  UNL     1      23.950   3.275  50.474  1.00  0.00    -0.111 C 
BRANCH  11  12
HETATM   12  C6  UNL     1      24.600   4.413  50.309  1.00  0.00     0.047 A 
HETATM   13  C4  UNL     1      25.501   5.297  49.743  1.00  0.00     0.013 A 
HETATM   14  C5  UNL     1      24.745   5.731  50.799  1.00  0.00     0.054 A 
BRANCH  13  15
HETATM   15  C3  UNL     1      26.551   5.730  48.788  1.00  0.00     0.210 C 
BRANCH  15  16
HETATM   16  O1  UNL     1      27.552   4.801  48.704  1.00  0.00    -0.387 OA
BRANCH  16  17
HETATM   17  C2  UNL     1      28.728   5.422  48.306  1.00  0.00     0.163 C 
HETATM   18  C1  UNL     1      28.438   6.835  47.818  1.00  0.00     0.033 C 
ENDBRANCH  16  17
ENDBRANCH  15  16
ENDBRANCH  13  15
BRANCH  14  19
HETATM   19  N1  UNL     1      24.387   6.782  51.719  1.00  0.00    -0.397 N 
HETATM   20  H8  UNL     1      24.336   7.807  51.449  1.00  0.00     0.156 HD
HETATM   21  H9  UNL     1      24.202   6.336  52.645  1.00  0.00     0.156 HD
ENDBRANCH  14  19
ENDBRANCH  11  12
ENDBRANCH  10  11
ENDBRANCH   1  10
BRANCH   3  22
HETATM   22  C10 UNL     1      25.943  -0.804  53.679  1.00  0.00     0.104 C 
HETATM   23  C11 UNL     1      26.809  -1.293  52.553  1.00  0.00     0.034 C 
HETATM   24  C12 UNL     1      26.786   0.094  54.565  1.00  0.00     0.034 C 
ENDBRANCH   3  22
BRANCH   8  25
HETATM   25  N6  UNL     1      20.674   1.730  52.189  1.00  0.00    -0.383 N 
HETATM   26  H19 UNL     1      20.003   2.265  52.807  1.00  0.00     0.157 HD
HETATM   27  H20 UNL     1      20.879   1.708  51.171  1.00  0.00     0.157 HD
ENDBRANCH   8  25
TORSDOF 9
ENDMDL
MODEL 5
REMARK VINA RESULT:      -6.7      2.163      5.514
REMARK  9 active torsions:
REMARK  status: ('A' for Active; 'I' for Inactive)
REMARK    1  A    between atoms: C2_2  and  O1_3 
REMARK    2  A    between atoms: O1_3  and  C3_4 
REMARK    3  A    between atoms: C3_4  and  C4_5 
REMARK    4  A    between atoms: C5_6  and  N1_7 
REMARK    5  A    between atoms: C6_8  and  C7_9 
REMARK    6  A    between atoms: C7_9  and  C8_10 
REMARK    7  A    between atoms: C8_10  and  C9_11 
REMARK    8  A    between atoms: N3_13  and  C10_14 
REMARK    9  A    between atoms: C15_21  and  N6_22 
ROOT
HETATM    1  C9  UNL     1      25.066   1.166  52.133  1.00  0.00     0.102 A 
HETATM    2  N2  UNL     1      23.772   1.154  51.705  1.00  0.00    -0.169 NA
HETATM    3  N3  UNL     1      23.033   0.431  52.503  1.00  0.00    -0.247 N 
HETATM    4  C13 UNL     1      23.794  -0.076  53.507  1.00  0.00     0.164 A 
HETATM    5  N4  UNL     1      23.473  -0.864  54.545  1.00  0.00    -0.222 NA
HETATM    6  C14 UNL     1      24.455  -1.230  55.421  1.00  0.00     0.237 A 
HETATM    7  N5  UNL     1      25.717  -0.802  55.232  1.00  0.00    -0.224 NA
HETATM    8  C15 UNL     1      26.078  -0.005  54.194  1.00  0.00     0.139 A 
HETATM    9  C16 UNL     1      25.089   0.380  53.290  1.00  0.00     0.088 A 
ENDROOT
BRANCH   1  10
HETATM   10  C8  UNL     1      26.294   1.786  51.654  1.00  0.00     0.091 C 
BRANCH  10  11
HETATM   11  C7  UNL     1      26.253   2.682  50.713  1.00  0.00    -0.111 C 
BRANCH  11  12
HETATM   12  C6  UNL     1      26.164   3.769  49.969  1.00  0.00     0.047 A 
HETATM   13  C4  UNL     1      25.545   4.800  49.284  1.00  0.00     0.013 A 
HETATM   14  C5  UNL     1      26.912   4.740  49.265  1.00  0.00     0.054 A 
BRANCH  13  15
HETATM   15  C3  UNL     1      24.392   5.591  48.787  1.00  0.00     0.210 C 
BRANCH  15  16
HETATM   16  O1  UNL     1      23.207   4.987  49.109  1.00  0.00    -0.387 OA
BRANCH  16  17
HETATM   17  C2  UNL     1      22.791   4.191  48.051  1.00  0.00     0.163 C 
HETATM   18  C1  UNL     1      22.735   2.730  48.481  1.00  0.00     0.033 C 
ENDBRANCH  16  17
ENDBRANCH  15  16
ENDBRANCH  13  15
BRANCH  14  19
HETATM   19  N1  UNL     1      28.172   5.290  48.829  1.00  0.00    -0.397 N 
HETATM   20  H8  UNL     1      28.270   6.245  48.376  1.00  0.00     0.156 HD
HETATM   21  H9  UNL     1      28.911   4.585  49.045  1.00  0.00     0.156 HD
ENDBRANCH  14  19
ENDBRANCH  11  12
ENDBRANCH  10  11
ENDBRANCH   1  10
BRANCH   3  22
HETATM   22  C10 UNL     1      21.608   0.192  52.358  1.00  0.00     0.104 C 
HETATM   23  C11 UNL     1      20.875   1.234  53.155  1.00  0.00     0.034 C 
HETATM   24  C12 UNL     1      21.200   0.338  50.904  1.00  0.00     0.034 C 
ENDBRANCH   3  22
BRANCH   8  25
HETATM   25  N6  UNL     1      27.412   0.453  53.989  1.00  0.00    -0.383 N 
HETATM   26  H19 UNL     1      27.701   0.241  52.995  1.00  0.00     0.157 HD
HETATM   27  H20 UNL     1      27.866   0.900  54.810  1.00  0.00     0.157 HD
ENDBRANCH   8  25
TORSDOF 9
ENDMDL
MODEL 6
REMARK VINA RESULT:      -6.6      1.975      2.811
REMARK  9 active torsions:
REMARK  status: ('A' for Active; 'I' for Inactive)
REMARK    1  A    between atoms: C2_2  and  O1_3 
REMARK    2  A    between atoms: O1_3  and  C3_4 
REMARK    3  A    between atoms: C3_4  and  C4_5 
REMARK    4  A    between atoms: C5_6  and  N1_7 
REMARK    5  A    between atoms: C6_8  and  C7_9 
REMARK    6  A    between atoms: C7_9  and  C8_10 
REMARK    7  A    between atoms: C8_10  and  C9_11 
REMARK    8  A    between atoms: N3_13  and  C10_14 
REMARK    9  A    between atoms: C15_21  and  N6_22 
ROOT
HETATM    1  C9  UNL     1      24.771   1.141  52.643  1.00  0.00     0.102 A 
HETATM    2  N2  UNL     1      24.783   2.046  51.625  1.00  0.00    -0.169 NA
HETATM    3  N3  UNL     1      25.954   2.619  51.536  1.00  0.00    -0.247 N 
HETATM    4  C13 UNL     1      26.784   2.125  52.491  1.00  0.00     0.164 A 
HETATM    5  N4  UNL     1      28.064   2.410  52.779  1.00  0.00    -0.222 NA
HETATM    6  C14 UNL     1      28.667   1.751  53.812  1.00  0.00     0.237 A 
HETATM    7  N5  UNL     1      27.979   0.836  54.519  1.00  0.00    -0.224 NA
HETATM    8  C15 UNL     1      26.685   0.523  54.255  1.00  0.00     0.139 A 
HETATM    9  C16 UNL     1      26.051   1.184  53.204  1.00  0.00     0.088 A 
ENDROOT
BRANCH   1  10
HETATM   10  C8  UNL     1      23.771   0.234  53.191  1.00  0.00     0.091 C 
BRANCH  10  11
HETATM   11  C7  UNL     1      22.575   0.191  52.683  1.00  0.00    -0.111 C 
BRANCH  11  12
HETATM   12  C6  UNL     1      21.488   0.239  51.935  1.00  0.00     0.047 A 
HETATM   13  C4  UNL     1      20.145   0.117  51.626  1.00  0.00     0.013 A 
HETATM   14  C5  UNL     1      20.999   0.539  50.643  1.00  0.00     0.054 A 
BRANCH  13  15
HETATM   15  C3  UNL     1      18.718  -0.189  51.897  1.00  0.00     0.210 C 
BRANCH  15  16
HETATM   16  O1  UNL     1      18.547  -0.633  53.180  1.00  0.00    -0.387 OA
BRANCH  16  17
HETATM   17  C2  UNL     1      17.414  -1.432  53.245  1.00  0.00     0.163 C 
HETATM   18  C1  UNL     1      17.785  -2.837  53.704  1.00  0.00     0.033 C 
ENDBRANCH  16  17
ENDBRANCH  15  16
ENDBRANCH  13  15
BRANCH  14  19
HETATM   19  N1  UNL     1      21.209   0.968  49.282  1.00  0.00    -0.397 N 
HETATM   20  H8  UNL     1      21.649   0.356  48.535  1.00  0.00     0.156 HD
HETATM   21  H9  UNL     1      20.855   1.947  49.206  1.00  0.00     0.156 HD
ENDBRANCH  14  19
ENDBRANCH  11  12
ENDBRANCH  10  11
ENDBRANCH   1  10
BRANCH   3  22
HETATM   22  C10 UNL     1      26.333   3.633  50.569  1.00  0.00     0.104 C 
HETATM   23  C11 UNL     1      26.719   2.942  49.292  1.00  0.00     0.034 C 
HETATM   24  C12 UNL     1      25.153   4.541  50.276  1.00  0.00     0.034 C 
ENDBRANCH   3  22
BRANCH   8  25
HETATM   25  N6  UNL     1      25.950  -0.446  54.999  1.00  0.00    -0.383 N 
HETATM   26  H19 UNL     1      26.207  -0.365  56.022  1.00  0.00     0.157 HD
HETATM   27  H20 UNL     1      25.310  -1.049  54.446  1.00  0.00     0.157 HD
ENDBRANCH   8  25
TORSDOF 9
ENDMDL
MODEL 7
REMARK VINA RESULT:      -6.6      3.459      7.228
REMARK  9 active torsions:
REMARK  status: ('A' for Active; 'I' for Inactive)
REMARK    1  A    between atoms: C2_2  and  O1_3 
REMARK    2  A    between atoms: O1_3  and  C3_4 
REMARK    3  A    between atoms: C3_4  and  C4_5 
REMARK    4  A    between atoms: C5_6  and  N1_7 
REMARK    5  A    between atoms: C6_8  and  C7_9 
REMARK    6  A    between atoms: C7_9  and  C8_10 
REMARK    7  A    between atoms: C8_10  and  C9_11 
REMARK    8  A    between atoms: N3_13  and  C10_14 
REMARK    9  A    between atoms: C15_21  and  N6_22 
ROOT
HETATM    1  C9  UNL     1      20.947   0.256  51.896  1.00  0.00     0.102 A 
HETATM    2  N2  UNL     1      21.451   0.917  50.816  1.00  0.00    -0.169 NA
HETATM    3  N3  UNL     1      20.498   1.206  49.971  1.00  0.00    -0.247 N 
HETATM    4  C13 UNL     1      19.308   0.753  50.443  1.00  0.00     0.164 A 
HETATM    5  N4  UNL     1      18.071   0.820  49.924  1.00  0.00    -0.222 NA
HETATM    6  C14 UNL     1      17.035   0.272  50.625  1.00  0.00     0.237 A 
HETATM    7  N5  UNL     1      17.265  -0.321  51.811  1.00  0.00    -0.224 NA
HETATM    8  C15 UNL     1      18.501  -0.407  52.365  1.00  0.00     0.139 A 
HETATM    9  C16 UNL     1      19.572   0.147  51.665  1.00  0.00     0.088 A 
ENDROOT
BRANCH   1  10
HETATM   10  C8  UNL     1      21.523  -0.296  53.115  1.00  0.00     0.091 C 
BRANCH  10  11
HETATM   11  C7  UNL     1      22.812  -0.330  53.275  1.00  0.00    -0.111 C 
BRANCH  11  12
HETATM   12  C6  UNL     1      24.063  -0.555  53.634  1.00  0.00     0.047 A 
HETATM   13  C4  UNL     1      25.434  -0.666  53.483  1.00  0.00     0.013 A 
HETATM   14  C5  UNL     1      24.897  -0.919  54.716  1.00  0.00     0.054 A 
BRANCH  13  15
HETATM   15  C3  UNL     1      26.720  -0.621  52.743  1.00  0.00     0.210 C 
BRANCH  15  16
HETATM   16  O1  UNL     1      27.644  -1.453  53.314  1.00  0.00    -0.387 OA
BRANCH  16  17
HETATM   17  C2  UNL     1      28.831  -0.760  53.511  1.00  0.00     0.163 C 
HETATM   18  C1  UNL     1      28.728   0.119  54.751  1.00  0.00     0.033 C 
ENDBRANCH  16  17
ENDBRANCH  15  16
ENDBRANCH  13  15
BRANCH  14  19
HETATM   19  N1  UNL     1      25.082  -1.289  56.098  1.00  0.00    -0.397 N 
HETATM   20  H8  UNL     1      25.927  -1.006  56.673  1.00  0.00     0.156 HD
HETATM   21  H9  UNL     1      24.253  -1.857  56.382  1.00  0.00     0.156 HD
ENDBRANCH  14  19
ENDBRANCH  11  12
ENDBRANCH  10  11
ENDBRANCH   1  10
BRANCH   3  22
HETATM   22  C10 UNL     1      20.664   1.906  48.710  1.00  0.00     0.104 C 
HETATM   23  C11 UNL     1      20.562   3.381  48.976  1.00  0.00     0.034 C 
HETATM   24  C12 UNL     1      22.039   1.624  48.134  1.00  0.00     0.034 C 
ENDBRANCH   3  22
BRANCH   8  25
HETATM   25  N6  UNL     1      18.751  -1.033  53.621  1.00  0.00    -0.383 N 
HETATM   26  H19 UNL     1      17.975  -1.722  53.825  1.00  0.00     0.157 HD
HETATM   27  H20 UNL     1      19.614  -0.728  54.113  1.00  0.00     0.157 HD
ENDBRANCH   8  25
TORSDOF 9
ENDMDL
MODEL 8
REMARK VINA RESULT:      -6.5      2.677      6.565
REMARK  9 active torsions:
REMARK  status: ('A' for Active; 'I' for Inactive)
REMARK    1  A    between atoms: C2_2  and  O1_3 
REMARK    2  A    between atoms: O1_3  and  C3_4 
REMARK    3  A    between atoms: C3_4  and  C4_5 
REMARK    4  A    between atoms: C5_6  and  N1_7 
REMARK    5  A    between atoms: C6_8  and  C7_9 
REMARK    6  A    between atoms: C7_9  and  C8_10 
REMARK    7  A    between atoms: C8_10  and  C9_11 
REMARK    8  A    between atoms: N3_13  and  C10_14 
REMARK    9  A    between atoms: C15_21  and  N6_22 
ROOT
HETATM    1  C9  UNL     1      24.381   3.293  50.658  1.00  0.00     0.102 A 
HETATM    2  N2  UNL     1      23.416   2.340  50.791  1.00  0.00    -0.169 NA
HETATM    3  N3  UNL     1      22.249   2.896  50.983  1.00  0.00    -0.247 N 
HETATM    4  C13 UNL     1      22.374   4.248  50.986  1.00  0.00     0.164 A 
HETATM    5  N4  UNL     1      21.460   5.218  51.145  1.00  0.00    -0.222 NA
HETATM    6  C14 UNL     1      21.869   6.520  51.103  1.00  0.00     0.237 A 
HETATM    7  N5  UNL     1      23.168   6.810  50.906  1.00  0.00    -0.224 NA
HETATM    8  C15 UNL     1      24.120   5.856  50.742  1.00  0.00     0.139 A 
HETATM    9  C16 UNL     1      23.722   4.520  50.781  1.00  0.00     0.088 A 
ENDROOT
BRANCH   1  10
HETATM   10  C8  UNL     1      25.820   3.263  50.433  1.00  0.00     0.091 C 
BRANCH  10  11
HETATM   11  C7  UNL     1      26.588   2.539  51.192  1.00  0.00    -0.111 C 
BRANCH  11  12
HETATM   12  C6  UNL     1      27.139   1.778  52.120  1.00  0.00     0.047 A 
HETATM   13  C4  UNL     1      27.366   0.633  52.862  1.00  0.00     0.013 A 
HETATM   14  C5  UNL     1      28.086   1.756  53.169  1.00  0.00     0.054 A 
BRANCH  13  15
HETATM   15  C3  UNL     1      27.167  -0.784  53.255  1.00  0.00     0.210 C 
BRANCH  15  16
HETATM   16  O1  UNL     1      25.872  -1.175  53.047  1.00  0.00    -0.387 OA
BRANCH  16  17
HETATM   17  C2  UNL     1      25.052  -0.585  53.999  1.00  0.00     0.163 C 
HETATM   18  C1  UNL     1      23.638  -0.431  53.454  1.00  0.00     0.033 C 
ENDBRANCH  16  17
ENDBRANCH  15  16
ENDBRANCH  13  15
BRANCH  14  19
HETATM   19  N1  UNL     1      29.082   2.407  53.984  1.00  0.00    -0.397 N 
HETATM   20  H8  UNL     1      29.591   1.929  54.784  1.00  0.00     0.156 HD
HETATM   21  H9  UNL     1      29.181   3.385  53.633  1.00  0.00     0.156 HD
ENDBRANCH  14  19
ENDBRANCH  11  12
ENDBRANCH  10  11
ENDBRANCH   1  10
BRANCH   3  22
HETATM   22  C10 UNL     1      20.992   2.191  51.166  1.00  0.00     0.104 C 
HETATM   23  C11 UNL     1      21.147   0.804  50.610  1.00  0.00     0.034 C 
HETATM   24  C12 UNL     1      20.672   2.073  52.644  1.00  0.00     0.034 C 
ENDBRANCH   3  22
BRANCH   8  25
HETATM   25  N6  UNL     1      25.497   6.156  50.532  1.00  0.00    -0.383 N 
HETATM   26  H19 UNL     1      25.610   6.625  49.591  1.00  0.00     0.157 HD
HETATM   27  H20 UNL     1      26.141   5.879  51.299  1.00  0.00     0.157 HD
ENDBRANCH   8  25
TORSDOF 9
ENDMDL
MODEL 9
REMARK VINA RESULT:      -6.5      1.967      4.668
REMARK  9 active torsions:
REMARK  status: ('A' for Active; 'I' for Inactive)
REMARK    1  A    between atoms: C2_2  and  O1_3 
REMARK    2  A    between atoms: O1_3  and  C3_4 
REMARK    3  A    between atoms: C3_4  and  C4_5 
REMARK    4  A    between atoms: C5_6  and  N1_7 
REMARK    5  A    between atoms: C6_8  and  C7_9 
REMARK    6  A    between atoms: C7_9  and  C8_10 
REMARK    7  A    between atoms: C8_10  and  C9_11 
REMARK    8  A    between atoms: N3_13  and  C10_14 
REMARK    9  A    between atoms: C15_21  and  N6_22 
ROOT
HETATM    1  C9  UNL     1      25.427   1.195  52.425  1.00  0.00     0.102 A 
HETATM    2  N2  UNL     1      26.751   1.253  52.744  1.00  0.00    -0.169 NA
HETATM    3  N3  UNL     1      27.002   0.515  53.793  1.00  0.00    -0.247 N 
HETATM    4  C13 UNL     1      25.859  -0.075  54.228  1.00  0.00     0.164 A 
HETATM    5  N4  UNL     1      25.632  -0.908  55.257  1.00  0.00    -0.222 NA
HETATM    6  C14 UNL     1      24.361  -1.358  55.469  1.00  0.00     0.237 A 
HETATM    7  N5  UNL     1      23.364  -0.967  54.655  1.00  0.00    -0.224 NA
HETATM    8  C15 UNL     1      23.556  -0.127  53.606  1.00  0.00     0.139 A 
HETATM    9  C16 UNL     1      24.847   0.344  53.372  1.00  0.00     0.088 A 
ENDROOT
BRANCH   1  10
HETATM   10  C8  UNL     1      24.600   1.794  51.387  1.00  0.00     0.091 C 
BRANCH  10  11
HETATM   11  C7  UNL     1      24.172   3.015  51.513  1.00  0.00    -0.111 C 
BRANCH  11  12
HETATM   12  C6  UNL     1      23.529   4.168  51.476  1.00  0.00     0.047 A 
HETATM   13  C4  UNL     1      22.464   5.030  51.282  1.00  0.00     0.013 A 
HETATM   14  C5  UNL     1      23.659   5.560  51.687  1.00  0.00     0.054 A 
BRANCH  13  15
HETATM   15  C3  UNL     1      21.070   5.397  50.930  1.00  0.00     0.210 C 
BRANCH  15  16
HETATM   16  O1  UNL     1      20.223   4.337  51.108  1.00  0.00    -0.387 OA
BRANCH  16  17
HETATM   17  C2  UNL     1      20.237   3.538  49.972  1.00  0.00     0.163 C 
HETATM   18  C1  UNL     1      20.321   2.068  50.362  1.00  0.00     0.033 C 
ENDBRANCH  16  17
ENDBRANCH  15  16
ENDBRANCH  13  15
BRANCH  14  19
HETATM   19  N1  UNL     1      24.445   6.713  52.053  1.00  0.00    -0.397 N 
HETATM   20  H8  UNL     1      24.719   7.477  51.370  1.00  0.00     0.156 HD
HETATM   21  H9  UNL     1      24.666   6.628  53.070  1.00  0.00     0.156 HD
ENDBRANCH  14  19
ENDBRANCH  11  12
ENDBRANCH  10  11
ENDBRANCH   1  10
BRANCH   3  22
HETATM   22  C10 UNL     1      28.301   0.337  54.416  1.00  0.00     0.104 C 
HETATM   23  C11 UNL     1      29.009  -0.785  53.710  1.00  0.00     0.034 C 
HETATM   24  C12 UNL     1      29.133   1.595  54.255  1.00  0.00     0.034 C 
ENDBRANCH   3  22
BRANCH   8  25
HETATM   25  N6  UNL     1      22.505   0.291  52.739  1.00  0.00    -0.383 N 
HETATM   26  H19 UNL     1      21.793  -0.487  52.658  1.00  0.00     0.157 HD
HETATM   27  H20 UNL     1      22.600   1.247  52.342  1.00  0.00     0.157 HD
ENDBRANCH   8  25
TORSDOF 9
ENDMDL
