MODEL 1
REMARK VINA RESULT:      -7.7      0.000      0.000
REMARK  8 active torsions:
REMARK  status: ('A' for Active; 'I' for Inactive)
REMARK    1  A    between atoms: C2_2  and  O1_3 
REMARK    2  A    between atoms: O1_3  and  C3_4 
REMARK    3  A    between atoms: C5_6  and  C6_7 
REMARK    4  A    between atoms: C6_7  and  S1_8 
REMARK    5  A    between atoms: S1_8  and  C7_9 
REMARK    6  A    between atoms: C11_13  and  O2_14 
REMARK    7  A    between atoms: C15_18  and  C16_19 
REMARK    8  A    between atoms: C16_19  and  C18_22 
REMARK       I    between atoms: C18_22  and  N2_23 
ROOT
HETATM    1  C16 UNL     1      22.789  -1.042  53.697  1.00  0.00     0.217 C 
HETATM    2  C17 UNL     1      24.013  -1.011  54.481  1.00  0.00     0.078 C 
HETATM    3  N1  UNL     1      24.991  -0.968  55.116  1.00  0.00    -0.196 NA
ENDROOT
BRANCH   1   4
HETATM    4  C15 UNL     1      22.811   0.108  52.734  1.00  0.00    -0.028 A 
HETATM    5  C14 UNL     1      23.813   1.042  52.891  1.00  0.00     0.017 A 
HETATM    6  C5  UNL     1      23.808   2.078  52.006  1.00  0.00    -0.045 A 
HETATM    7  C4  UNL     1      22.872   2.202  51.012  1.00  0.00     0.044 A 
HETATM    8  C3  UNL     1      21.868   1.273  50.848  1.00  0.00     0.069 A 
HETATM    9  C19 UNL     1      21.854   0.206  51.742  1.00  0.00     0.045 A 
BRANCH   6  10
HETATM   10  C6  UNL     1      24.821   3.160  52.047  1.00  0.00     0.118 C 
BRANCH  10  11
HETATM   11  S1  UNL     1      26.366   2.696  51.219  1.00  0.00    -0.125 SA
BRANCH  11  12
HETATM   12  C7  UNL     1      27.382   1.826  52.413  1.00  0.00     0.003 A 
HETATM   13  C8  UNL     1      28.255   2.456  53.307  1.00  0.00     0.018 A 
HETATM   14  C9  UNL     1      28.978   1.660  54.172  1.00  0.00     0.004 A 
HETATM   15  C10 UNL     1      28.843   0.275  54.154  1.00  0.00     0.037 A 
HETATM   16  C11 UNL     1      27.967  -0.335  53.254  1.00  0.00     0.069 A 
HETATM   17  C13 UNL     1      27.243   0.454  52.388  1.00  0.00     0.055 A 
BRANCH  16  18
HETATM   18  O2  UNL     1      27.988  -1.710  53.404  1.00  0.00    -0.356 OA
HETATM   19  C12 UNL     1      27.194  -2.489  52.534  1.00  0.00     0.210 C 
ENDBRANCH  16  18
ENDBRANCH  11  12
ENDBRANCH  10  11
ENDBRANCH   6  10
BRANCH   8  20
HETATM   20  O1  UNL     1      20.839   1.197  49.936  1.00  0.00    -0.351 OA
BRANCH  20  21
HETATM   21  C2  UNL     1      19.540   0.890  50.360  1.00  0.00     0.171 C 
HETATM   22  C1  UNL     1      18.848   2.179  50.742  1.00  0.00     0.034 C 
ENDBRANCH  20  21
ENDBRANCH   8  20
ENDBRANCH   1   4
BRANCH   1  23
HETATM   23  C18 UNL     1      21.609  -0.787  54.576  1.00  0.00     0.237 C 
HETATM   24  N2  UNL     1      20.778   0.267  55.024  1.00  0.00    -0.369 N 
HETATM   25  H18 UNL     1      19.746   0.190  54.815  1.00  0.00     0.159 HD
HETATM   26  H19 UNL     1      21.562   0.829  55.460  1.00  0.00     0.159 HD
HETATM   27  O3  UNL     1      21.241  -1.893  55.083  1.00  0.00    -0.272 OA
ENDBRANCH   1  23
TORSDOF 8
ENDMDL
MODEL 2
REMARK VINA RESULT:      -7.6      3.429      6.009
REMARK  8 active torsions:
REMARK  status: ('A' for Active; 'I' for Inactive)
REMARK    1  A    between atoms: C2_2  and  O1_3 
REMARK    2  A    between atoms: O1_3  and  C3_4 
REMARK    3  A    between atoms: C5_6  and  C6_7 
REMARK    4  A    between atoms: C6_7  and  S1_8 
REMARK    5  A    between atoms: S1_8  and  C7_9 
REMARK    6  A    between atoms: C11_13  and  O2_14 
REMARK    7  A    between atoms: C15_18  and  C16_19 
REMARK    8  A    between atoms: C16_19  and  C18_22 
REMARK       I    between atoms: C18_22  and  N2_23 
ROOT
HETATM    1  C16 UNL     1      27.616   0.574  52.739  1.00  0.00     0.217 C 
HETATM    2  C17 UNL     1      28.215   1.650  53.512  1.00  0.00     0.078 C 
HETATM    3  N1  UNL     1      28.685   2.507  54.148  1.00  0.00    -0.196 NA
ENDROOT
BRANCH   1   4
HETATM    4  C15 UNL     1      26.130   0.771  52.721  1.00  0.00    -0.028 A 
HETATM    5  C14 UNL     1      25.658   1.959  52.204  1.00  0.00     0.017 A 
HETATM    6  C5  UNL     1      24.304   2.114  52.202  1.00  0.00    -0.045 A 
HETATM    7  C4  UNL     1      23.446   1.158  52.679  1.00  0.00     0.044 A 
HETATM    8  C3  UNL     1      23.909  -0.031  53.198  1.00  0.00     0.069 A 
HETATM    9  C19 UNL     1      25.289  -0.211  53.209  1.00  0.00     0.045 A 
BRANCH   6  10
HETATM   10  C6  UNL     1      23.648   3.336  51.678  1.00  0.00     0.118 C 
BRANCH  10  11
HETATM   11  S1  UNL     1      23.649   3.402  49.866  1.00  0.00    -0.125 SA
BRANCH  11  12
HETATM   12  C7  UNL     1      25.095   4.332  49.357  1.00  0.00     0.003 A 
HETATM   13  C8  UNL     1      26.391   3.808  49.318  1.00  0.00     0.018 A 
HETATM   14  C9  UNL     1      27.413   4.639  48.905  1.00  0.00     0.004 A 
HETATM   15  C10 UNL     1      27.159   5.958  48.539  1.00  0.00     0.037 A 
HETATM   16  C11 UNL     1      25.858   6.463  48.584  1.00  0.00     0.069 A 
HETATM   17  C13 UNL     1      24.835   5.638  48.996  1.00  0.00     0.055 A 
BRANCH  16  18
HETATM   18  O2  UNL     1      25.832   7.787  48.183  1.00  0.00    -0.356 OA
HETATM   19  C12 UNL     1      24.755   8.218  47.377  1.00  0.00     0.210 C 
ENDBRANCH  16  18
ENDBRANCH  11  12
ENDBRANCH  10  11
ENDBRANCH   6  10
BRANCH   8  20
HETATM   20  O1  UNL     1      23.242  -1.115  53.724  1.00  0.00    -0.351 OA
BRANCH  20  21
HETATM   21  C2  UNL     1      22.308  -0.938  54.754  1.00  0.00     0.171 C 
HETATM   22  C1  UNL     1      20.947  -1.345  54.235  1.00  0.00     0.034 C 
ENDBRANCH  20  21
ENDBRANCH   8  20
ENDBRANCH   1   4
BRANCH   1  23
HETATM   23  C18 UNL     1      27.823  -0.734  53.431  1.00  0.00     0.237 C 
HETATM   24  N2  UNL     1      27.819  -2.125  53.179  1.00  0.00    -0.369 N 
HETATM   25  H18 UNL     1      28.711  -2.655  53.378  1.00  0.00     0.159 HD
HETATM   26  H19 UNL     1      26.817  -2.159  52.840  1.00  0.00     0.159 HD
HETATM   27  O3  UNL     1      28.090  -0.502  54.652  1.00  0.00    -0.272 OA
ENDBRANCH   1  23
TORSDOF 8
ENDMDL
MODEL 3
REMARK VINA RESULT:      -7.3      2.733      6.426
REMARK  8 active torsions:
REMARK  status: ('A' for Active; 'I' for Inactive)
REMARK    1  A    between atoms: C2_2  and  O1_3 
REMARK    2  A    between atoms: O1_3  and  C3_4 
REMARK    3  A    between atoms: C5_6  and  C6_7 
REMARK    4  A    between atoms: C6_7  and  S1_8 
REMARK    5  A    between atoms: S1_8  and  C7_9 
REMARK    6  A    between atoms: C11_13  and  O2_14 
REMARK    7  A    between atoms: C15_18  and  C16_19 
REMARK    8  A    between atoms: C16_19  and  C18_22 
REMARK       I    between atoms: C18_22  and  N2_23 
ROOT
HETATM    1  C16 UNL     1      26.632   1.450  53.966  1.00  0.00     0.217 C 
HETATM    2  C17 UNL     1      26.289   0.038  53.998  1.00  0.00     0.078 C 
HETATM    3  N1  UNL     1      26.022  -1.097  54.007  1.00  0.00    -0.196 NA
ENDROOT
BRANCH   1   4
HETATM    4  C15 UNL     1      25.977   2.072  52.768  1.00  0.00    -0.028 A 
HETATM    5  C14 UNL     1      24.602   2.178  52.786  1.00  0.00     0.017 A 
HETATM    6  C5  UNL     1      24.032   2.744  51.684  1.00  0.00    -0.045 A 
HETATM    7  C4  UNL     1      24.764   3.186  50.613  1.00  0.00     0.044 A 
HETATM    8  C3  UNL     1      26.137   3.082  50.587  1.00  0.00     0.069 A 
HETATM    9  C19 UNL     1      26.741   2.508  51.702  1.00  0.00     0.045 A 
BRANCH   6  10
HETATM   10  C6  UNL     1      22.567   2.927  51.557  1.00  0.00     0.118 C 
BRANCH  10  11
HETATM   11  S1  UNL     1      21.784   1.615  50.581  1.00  0.00    -0.125 SA
BRANCH  11  12
HETATM   12  C7  UNL     1      20.772   0.640  51.693  1.00  0.00     0.003 A 
HETATM   13  C8  UNL     1      19.432   0.314  51.453  1.00  0.00     0.018 A 
HETATM   14  C9  UNL     1      18.772  -0.445  52.398  1.00  0.00     0.004 A 
HETATM   15  C10 UNL     1      19.421  -0.872  53.554  1.00  0.00     0.037 A 
HETATM   16  C11 UNL     1      20.758  -0.537  53.776  1.00  0.00     0.069 A 
HETATM   17  C13 UNL     1      21.421   0.221  52.836  1.00  0.00     0.055 A 
BRANCH  16  18
HETATM   18  O2  UNL     1      21.202  -1.059  54.977  1.00  0.00    -0.356 OA
HETATM   19  C12 UNL     1      22.541  -1.500  55.059  1.00  0.00     0.210 C 
ENDBRANCH  16  18
ENDBRANCH  11  12
ENDBRANCH  10  11
ENDBRANCH   6  10
BRANCH   8  20
HETATM   20  O1  UNL     1      27.059   3.453  49.633  1.00  0.00    -0.351 OA
BRANCH  20  21
HETATM   21  C2  UNL     1      26.902   4.652  48.926  1.00  0.00     0.171 C 
HETATM   22  C1  UNL     1      28.270   5.133  48.498  1.00  0.00     0.034 C 
ENDBRANCH  20  21
ENDBRANCH   8  20
ENDBRANCH   1   4
BRANCH   1  23
HETATM   23  C18 UNL     1      28.098   1.618  53.733  1.00  0.00     0.237 C 
HETATM   24  N2  UNL     1      29.138   2.562  53.900  1.00  0.00    -0.369 N 
HETATM   25  H18 UNL     1      29.958   2.275  54.501  1.00  0.00     0.159 HD
HETATM   26  H19 UNL     1      28.686   3.309  53.303  1.00  0.00     0.159 HD
HETATM   27  O3  UNL     1      28.545   0.548  53.211  1.00  0.00    -0.272 OA
ENDBRANCH   1  23
TORSDOF 8
ENDMDL
MODEL 4
REMARK VINA RESULT:      -7.1      3.919      5.735
REMARK  8 active torsions:
REMARK  status: ('A' for Active; 'I' for Inactive)
REMARK    1  A    between atoms: C2_2  and  O1_3 
REMARK    2  A    between atoms: O1_3  and  C3_4 
REMARK    3  A    between atoms: C5_6  and  C6_7 
REMARK    4  A    between atoms: C6_7  and  S1_8 
REMARK    5  A    between atoms: S1_8  and  C7_9 
REMARK    6  A    between atoms: C11_13  and  O2_14 
REMARK    7  A    between atoms: C15_18  and  C16_19 
REMARK    8  A    between atoms: C16_19  and  C18_22 
REMARK       I    between atoms: C18_22  and  N2_23 
ROOT
HETATM    1  C16 UNL     1      26.489   0.173  53.932  1.00  0.00     0.217 C 
HETATM    2  C17 UNL     1      25.929  -0.411  55.140  1.00  0.00     0.078 C 
HETATM    3  N1  UNL     1      25.469  -0.892  56.098  1.00  0.00    -0.196 NA
ENDROOT
BRANCH   1   4
HETATM    4  C15 UNL     1      25.362   0.685  53.084  1.00  0.00    -0.028 A 
HETATM    5  C14 UNL     1      25.662   1.663  52.160  1.00  0.00     0.017 A 
HETATM    6  C5  UNL     1      24.620   2.112  51.405  1.00  0.00    -0.045 A 
HETATM    7  C4  UNL     1      23.343   1.633  51.541  1.00  0.00     0.044 A 
HETATM    8  C3  UNL     1      23.034   0.656  52.462  1.00  0.00     0.069 A 
HETATM    9  C19 UNL     1      24.085   0.182  53.243  1.00  0.00     0.045 A 
BRANCH   6  10
HETATM   10  C6  UNL     1      24.786   3.160  50.370  1.00  0.00     0.118 C 
BRANCH  10  11
HETATM   11  S1  UNL     1      26.469   3.210  49.696  1.00  0.00    -0.125 SA
BRANCH  11  12
HETATM   12  C7  UNL     1      26.731   4.845  49.008  1.00  0.00     0.003 A 
HETATM   13  C8  UNL     1      25.736   5.823  48.908  1.00  0.00     0.018 A 
HETATM   14  C9  UNL     1      26.079   7.040  48.356  1.00  0.00     0.004 A 
HETATM   15  C10 UNL     1      27.377   7.285  47.912  1.00  0.00     0.037 A 
HETATM   16  C11 UNL     1      28.356   6.296  48.020  1.00  0.00     0.069 A 
HETATM   17  C13 UNL     1      28.018   5.079  48.570  1.00  0.00     0.055 A 
BRANCH  16  18
HETATM   18  O2  UNL     1      29.565   6.746  47.521  1.00  0.00    -0.356 OA
HETATM   19  C12 UNL     1      30.205   7.815  48.186  1.00  0.00     0.210 C 
ENDBRANCH  16  18
ENDBRANCH  11  12
ENDBRANCH  10  11
ENDBRANCH   6  10
BRANCH   8  20
HETATM   20  O1  UNL     1      21.843   0.037  52.766  1.00  0.00    -0.351 OA
BRANCH  20  21
HETATM   21  C2  UNL     1      21.417  -0.062  54.097  1.00  0.00     0.171 C 
HETATM   22  C1  UNL     1      21.277  -1.528  54.442  1.00  0.00     0.034 C 
ENDBRANCH  20  21
ENDBRANCH   8  20
ENDBRANCH   1   4
BRANCH   1  23
HETATM   23  C18 UNL     1      27.143  -0.886  53.105  1.00  0.00     0.237 C 
HETATM   24  N2  UNL     1      26.838  -2.062  52.382  1.00  0.00    -0.369 N 
HETATM   25  H18 UNL     1      27.073  -2.072  51.353  1.00  0.00     0.159 HD
HETATM   26  H19 UNL     1      26.436  -2.583  53.212  1.00  0.00     0.159 HD
HETATM   27  O3  UNL     1      28.386  -0.629  53.037  1.00  0.00    -0.272 OA
ENDBRANCH   1  23
TORSDOF 8
ENDMDL
MODEL 5
REMARK VINA RESULT:      -7.1      2.982      7.208
REMARK  8 active torsions:
REMARK  status: ('A' for Active; 'I' for Inactive)
REMARK    1  A    between atoms: C2_2  and  O1_3 
REMARK    2  A    between atoms: O1_3  and  C3_4 
REMARK    3  A    between atoms: C5_6  and  C6_7 
REMARK    4  A    between atoms: C6_7  and  S1_8 
REMARK    5  A    between atoms: S1_8  and  C7_9 
REMARK    6  A    between atoms: C11_13  and  O2_14 
REMARK    7  A    between atoms: C15_18  and  C16_19 
REMARK    8  A    between atoms: C16_19  and  C18_22 
REMARK       I    between atoms: C18_22  and  N2_23 
ROOT
HETATM    1  C16 UNL     1      26.524  -0.454  53.601  1.00  0.00     0.217 C 
HETATM    2  C17 UNL     1      26.802  -1.609  52.762  1.00  0.00     0.078 C 
HETATM    3  N1  UNL     1      27.036  -2.524  52.078  1.00  0.00    -0.196 NA
ENDROOT
BRANCH   1   4
HETATM    4  C15 UNL     1      25.840   0.587  52.766  1.00  0.00    -0.028 A 
HETATM    5  C14 UNL     1      24.473   0.709  52.905  1.00  0.00     0.017 A 
HETATM    6  C5  UNL     1      23.877   1.660  52.133  1.00  0.00    -0.045 A 
HETATM    7  C4  UNL     1      24.575   2.458  51.264  1.00  0.00     0.044 A 
HETATM    8  C3  UNL     1      25.940   2.342  51.119  1.00  0.00     0.069 A 
HETATM    9  C19 UNL     1      26.571   1.377  51.899  1.00  0.00     0.045 A 
BRANCH   6  10
HETATM   10  C6  UNL     1      22.416   1.910  52.172  1.00  0.00     0.118 C 
BRANCH  10  11
HETATM   11  S1  UNL     1      21.529   0.690  53.178  1.00  0.00    -0.125 SA
BRANCH  11  12
HETATM   12  C7  UNL     1      19.985   0.319  52.347  1.00  0.00     0.003 A 
HETATM   13  C8  UNL     1      19.620   0.839  51.100  1.00  0.00     0.018 A 
HETATM   14  C9  UNL     1      18.398   0.468  50.578  1.00  0.00     0.004 A 
HETATM   15  C10 UNL     1      17.555  -0.396  51.272  1.00  0.00     0.037 A 
HETATM   16  C11 UNL     1      17.936  -0.904  52.515  1.00  0.00     0.069 A 
HETATM   17  C13 UNL     1      19.155  -0.537  53.041  1.00  0.00     0.055 A 
BRANCH  16  18
HETATM   18  O2  UNL     1      16.956  -1.736  53.026  1.00  0.00    -0.356 OA
HETATM   19  C12 UNL     1      15.738  -1.845  52.320  1.00  0.00     0.210 C 
ENDBRANCH  16  18
ENDBRANCH  11  12
ENDBRANCH  10  11
ENDBRANCH   6  10
BRANCH   8  20
HETATM   20  O1  UNL     1      26.831   3.025  50.320  1.00  0.00    -0.351 OA
BRANCH  20  21
HETATM   21  C2  UNL     1      26.403   4.121  49.561  1.00  0.00     0.171 C 
HETATM   22  C1  UNL     1      27.582   4.639  48.769  1.00  0.00     0.034 C 
ENDBRANCH  20  21
ENDBRANCH   8  20
ENDBRANCH   1   4
BRANCH   1  23
HETATM   23  C18 UNL     1      27.802   0.182  54.040  1.00  0.00     0.237 C 
HETATM   24  N2  UNL     1      28.290   1.352  54.667  1.00  0.00    -0.369 N 
HETATM   25  H18 UNL     1      28.839   1.228  55.560  1.00  0.00     0.159 HD
HETATM   26  H19 UNL     1      27.893   2.019  53.948  1.00  0.00     0.159 HD
HETATM   27  O3  UNL     1      28.760  -0.600  53.744  1.00  0.00    -0.272 OA
ENDBRANCH   1  23
TORSDOF 8
ENDMDL
MODEL 6
REMARK VINA RESULT:      -7.0      3.185      5.876
REMARK  8 active torsions:
REMARK  status: ('A' for Active; 'I' for Inactive)
REMARK    1  A    between atoms: C2_2  and  O1_3 
REMARK    2  A    between atoms: O1_3  and  C3_4 
REMARK    3  A    between atoms: C5_6  and  C6_7 
REMARK    4  A    between atoms: C6_7  and  S1_8 
REMARK    5  A    between atoms: S1_8  and  C7_9 
REMARK    6  A    between atoms: C11_13  and  O2_14 
REMARK    7  A    between atoms: C15_18  and  C16_19 
REMARK    8  A    between atoms: C16_19  and  C18_22 
REMARK       I    between atoms: C18_22  and  N2_23 
ROOT
HETATM    1  C16 UNL     1      22.390  -0.695  52.832  1.00  0.00     0.217 C 
HETATM    2  C17 UNL     1      22.144  -1.211  54.169  1.00  0.00     0.078 C 
HETATM    3  N1  UNL     1      21.944  -1.607  55.247  1.00  0.00    -0.196 NA
ENDROOT
BRANCH   1   4
HETATM    4  C15 UNL     1      23.501   0.310  52.906  1.00  0.00    -0.028 A 
HETATM    5  C14 UNL     1      23.156   1.641  52.807  1.00  0.00     0.017 A 
HETATM    6  C5  UNL     1      24.184   2.532  52.875  1.00  0.00    -0.045 A 
HETATM    7  C4  UNL     1      25.491   2.149  53.033  1.00  0.00     0.044 A 
HETATM    8  C3  UNL     1      25.845   0.821  53.132  1.00  0.00     0.069 A 
HETATM    9  C19 UNL     1      24.809  -0.107  53.066  1.00  0.00     0.045 A 
BRANCH   6  10
HETATM   10  C6  UNL     1      23.970   3.996  52.785  1.00  0.00     0.118 C 
BRANCH  10  11
HETATM   11  S1  UNL     1      23.469   4.524  51.124  1.00  0.00    -0.125 SA
BRANCH  11  12
HETATM   12  C7  UNL     1      24.959   4.860  50.187  1.00  0.00     0.003 A 
HETATM   13  C8  UNL     1      25.888   3.883  49.812  1.00  0.00     0.018 A 
HETATM   14  C9  UNL     1      26.994   4.285  49.090  1.00  0.00     0.004 A 
HETATM   15  C10 UNL     1      27.178   5.622  48.748  1.00  0.00     0.037 A 
HETATM   16  C11 UNL     1      26.241   6.583  49.131  1.00  0.00     0.069 A 
HETATM   17  C13 UNL     1      25.135   6.186  49.852  1.00  0.00     0.055 A 
BRANCH  16  18
HETATM   18  O2  UNL     1      26.617   7.839  48.691  1.00  0.00    -0.356 OA
HETATM   19  C12 UNL     1      27.402   8.639  49.551  1.00  0.00     0.210 C 
ENDBRANCH  16  18
ENDBRANCH  11  12
ENDBRANCH  10  11
ENDBRANCH   6  10
BRANCH   8  20
HETATM   20  O1  UNL     1      27.072   0.217  53.291  1.00  0.00    -0.351 OA
BRANCH  20  21
HETATM   21  C2  UNL     1      27.899   0.568  54.366  1.00  0.00     0.171 C 
HETATM   22  C1  UNL     1      29.152  -0.276  54.296  1.00  0.00     0.034 C 
ENDBRANCH  20  21
ENDBRANCH   8  20
ENDBRANCH   1   4
BRANCH   1  23
HETATM   23  C18 UNL     1      21.204   0.077  52.353  1.00  0.00     0.237 C 
HETATM   24  N2  UNL     1      20.103   0.818  52.842  1.00  0.00    -0.369 N 
HETATM   25  H18 UNL     1      20.027   1.827  52.539  1.00  0.00     0.159 HD
HETATM   26  H19 UNL     1      19.693   0.021  53.404  1.00  0.00     0.159 HD
HETATM   27  O3  UNL     1      21.196   0.050  51.082  1.00  0.00    -0.272 OA
ENDBRANCH   1  23
TORSDOF 8
ENDMDL
MODEL 7
REMARK VINA RESULT:      -7.0      3.706      6.496
REMARK  8 active torsions:
REMARK  status: ('A' for Active; 'I' for Inactive)
REMARK    1  A    between atoms: C2_2  and  O1_3 
REMARK    2  A    between atoms: O1_3  and  C3_4 
REMARK    3  A    between atoms: C5_6  and  C6_7 
REMARK    4  A    between atoms: C6_7  and  S1_8 
REMARK    5  A    between atoms: S1_8  and  C7_9 
REMARK    6  A    between atoms: C11_13  and  O2_14 
REMARK    7  A    between atoms: C15_18  and  C16_19 
REMARK    8  A    between atoms: C16_19  and  C18_22 
REMARK       I    between atoms: C18_22  and  N2_23 
ROOT
HETATM    1  C16 UNL     1      28.213   0.559  52.828  1.00  0.00     0.217 C 
HETATM    2  C17 UNL     1      28.717   1.568  53.745  1.00  0.00     0.078 C 
HETATM    3  N1  UNL     1      29.108   2.373  54.493  1.00  0.00    -0.196 NA
ENDROOT
BRANCH   1   4
HETATM    4  C15 UNL     1      26.782   0.876  52.512  1.00  0.00    -0.028 A 
HETATM    5  C14 UNL     1      26.545   1.910  51.631  1.00  0.00     0.017 A 
HETATM    6  C5  UNL     1      25.236   2.179  51.363  1.00  0.00    -0.045 A 
HETATM    7  C4  UNL     1      24.203   1.475  51.925  1.00  0.00     0.044 A 
HETATM    8  C3  UNL     1      24.430   0.440  52.806  1.00  0.00     0.069 A 
HETATM    9  C19 UNL     1      25.761   0.148  53.093  1.00  0.00     0.045 A 
BRANCH   6  10
HETATM   10  C6  UNL     1      24.823   3.260  50.437  1.00  0.00     0.118 C 
BRANCH  10  11
HETATM   11  S1  UNL     1      23.558   4.343  51.153  1.00  0.00    -0.125 SA
BRANCH  11  12
HETATM   12  C7  UNL     1      23.914   6.019  50.625  1.00  0.00     0.003 A 
HETATM   13  C8  UNL     1      22.945   7.016  50.472  1.00  0.00     0.018 A 
HETATM   14  C9  UNL     1      23.362   8.265  50.057  1.00  0.00     0.004 A 
HETATM   15  C10 UNL     1      24.706   8.522  49.798  1.00  0.00     0.037 A 
HETATM   16  C11 UNL     1      25.658   7.513  49.956  1.00  0.00     0.069 A 
HETATM   17  C13 UNL     1      25.247   6.265  50.370  1.00  0.00     0.055 A 
BRANCH  16  18
HETATM   18  O2  UNL     1      26.923   7.980  49.647  1.00  0.00    -0.356 OA
HETATM   19  C12 UNL     1      27.338   9.206  50.212  1.00  0.00     0.210 C 
ENDBRANCH  16  18
ENDBRANCH  11  12
ENDBRANCH  10  11
ENDBRANCH   6  10
BRANCH   8  20
HETATM   20  O1  UNL     1      23.561  -0.389  53.479  1.00  0.00    -0.351 OA
BRANCH  20  21
HETATM   21  C2  UNL     1      22.264   0.042  53.781  1.00  0.00     0.171 C 
HETATM   22  C1  UNL     1      21.654  -0.936  54.759  1.00  0.00     0.034 C 
ENDBRANCH  20  21
ENDBRANCH   8  20
ENDBRANCH   1   4
BRANCH   1  23
HETATM   23  C18 UNL     1      28.173  -0.774  53.502  1.00  0.00     0.237 C 
HETATM   24  N2  UNL     1      27.977  -2.145  53.218  1.00  0.00    -0.369 N 
HETATM   25  H18 UNL     1      28.763  -2.807  53.463  1.00  0.00     0.159 HD
HETATM   26  H19 UNL     1      27.007  -2.022  52.813  1.00  0.00     0.159 HD
HETATM   27  O3  UNL     1      28.388  -0.601  54.743  1.00  0.00    -0.272 OA
ENDBRANCH   1  23
TORSDOF 8
ENDMDL
MODEL 8
REMARK VINA RESULT:      -7.0      5.863      8.046
REMARK  8 active torsions:
REMARK  status: ('A' for Active; 'I' for Inactive)
REMARK    1  A    between atoms: C2_2  and  O1_3 
REMARK    2  A    between atoms: O1_3  and  C3_4 
REMARK    3  A    between atoms: C5_6  and  C6_7 
REMARK    4  A    between atoms: C6_7  and  S1_8 
REMARK    5  A    between atoms: S1_8  and  C7_9 
REMARK    6  A    between atoms: C11_13  and  O2_14 
REMARK    7  A    between atoms: C15_18  and  C16_19 
REMARK    8  A    between atoms: C16_19  and  C18_22 
REMARK       I    between atoms: C18_22  and  N2_23 
ROOT
HETATM    1  C16 UNL     1      29.468   6.450  47.581  1.00  0.00     0.217 C 
HETATM    2  C17 UNL     1      29.299   7.657  46.788  1.00  0.00     0.078 C 
HETATM    3  N1  UNL     1      29.158   8.635  46.168  1.00  0.00    -0.196 NA
ENDROOT
BRANCH   1   4
HETATM    4  C15 UNL     1      28.152   6.112  48.218  1.00  0.00    -0.028 A 
HETATM    5  C14 UNL     1      27.950   4.798  48.587  1.00  0.00     0.017 A 
HETATM    6  C5  UNL     1      26.746   4.518  49.161  1.00  0.00    -0.045 A 
HETATM    7  C4  UNL     1      25.782   5.470  49.368  1.00  0.00     0.044 A 
HETATM    8  C3  UNL     1      25.976   6.784  49.002  1.00  0.00     0.069 A 
HETATM    9  C19 UNL     1      27.199   7.093  48.415  1.00  0.00     0.045 A 
BRANCH   6  10
HETATM   10  C6  UNL     1      26.382   3.153  49.610  1.00  0.00     0.118 C 
BRANCH  10  11
HETATM   11  S1  UNL     1      25.013   3.155  50.798  1.00  0.00    -0.125 SA
BRANCH  11  12
HETATM   12  C7  UNL     1      25.159   1.675  51.800  1.00  0.00     0.003 A 
HETATM   13  C8  UNL     1      24.096   1.090  52.496  1.00  0.00     0.018 A 
HETATM   14  C9  UNL     1      24.353  -0.050  53.229  1.00  0.00     0.004 A 
HETATM   15  C10 UNL     1      25.632  -0.600  53.274  1.00  0.00     0.037 A 
HETATM   16  C11 UNL     1      26.681  -0.001  52.573  1.00  0.00     0.069 A 
HETATM   17  C13 UNL     1      26.429   1.137  51.840  1.00  0.00     0.055 A 
BRANCH  16  18
HETATM   18  O2  UNL     1      27.857  -0.705  52.755  1.00  0.00    -0.356 OA
HETATM   19  C12 UNL     1      28.627  -0.431  53.908  1.00  0.00     0.210 C 
ENDBRANCH  16  18
ENDBRANCH  11  12
ENDBRANCH  10  11
ENDBRANCH   6  10
BRANCH   8  20
HETATM   20  O1  UNL     1      25.161   7.888  49.113  1.00  0.00    -0.351 OA
BRANCH  20  21
HETATM   21  C2  UNL     1      23.770   7.736  49.185  1.00  0.00     0.171 C 
HETATM   22  C1  UNL     1      23.361   7.801  50.640  1.00  0.00     0.034 C 
ENDBRANCH  20  21
ENDBRANCH   8  20
ENDBRANCH   1   4
BRANCH   1  23
HETATM   23  C18 UNL     1      30.394   6.711  48.724  1.00  0.00     0.237 C 
HETATM   24  N2  UNL     1      30.781   7.741  49.613  1.00  0.00    -0.369 N 
HETATM   25  H18 UNL     1      30.653   7.562  50.645  1.00  0.00     0.159 HD
HETATM   26  H19 UNL     1      31.100   8.407  48.854  1.00  0.00     0.159 HD
HETATM   27  O3  UNL     1      31.040   5.644  48.967  1.00  0.00    -0.272 OA
ENDBRANCH   1  23
TORSDOF 8
ENDMDL
MODEL 9
REMARK VINA RESULT:      -6.9      2.393      6.110
REMARK  8 active torsions:
REMARK  status: ('A' for Active; 'I' for Inactive)
REMARK    1  A    between atoms: C2_2  and  O1_3 
REMARK    2  A    between atoms: O1_3  and  C3_4 
REMARK    3  A    between atoms: C5_6  and  C6_7 
REMARK    4  A    between atoms: C6_7  and  S1_8 
REMARK    5  A    between atoms: S1_8  and  C7_9 
REMARK    6  A    between atoms: C11_13  and  O2_14 
REMARK    7  A    between atoms: C15_18  and  C16_19 
REMARK    8  A    between atoms: C16_19  and  C18_22 
REMARK       I    between atoms: C18_22  and  N2_23 
ROOT
HETATM    1  C16 UNL     1      26.732   0.533  52.629  1.00  0.00     0.217 C 
HETATM    2  C17 UNL     1      27.666   1.637  52.783  1.00  0.00     0.078 C 
HETATM    3  N1  UNL     1      28.406   2.527  52.924  1.00  0.00    -0.196 NA
ENDROOT
BRANCH   1   4
HETATM    4  C15 UNL     1      25.338   1.088  52.611  1.00  0.00    -0.028 A 
HETATM    5  C14 UNL     1      25.207   2.461  52.588  1.00  0.00     0.017 A 
HETATM    6  C5  UNL     1      23.930   2.938  52.574  1.00  0.00    -0.045 A 
HETATM    7  C4  UNL     1      22.831   2.120  52.582  1.00  0.00     0.044 A 
HETATM    8  C3  UNL     1      22.953   0.748  52.605  1.00  0.00     0.069 A 
HETATM    9  C19 UNL     1      24.249   0.239  52.619  1.00  0.00     0.045 A 
BRANCH   6  10
HETATM   10  C6  UNL     1      23.628   4.389  52.549  1.00  0.00     0.118 C 
BRANCH  10  11
HETATM   11  S1  UNL     1      23.929   5.133  50.922  1.00  0.00    -0.125 SA
BRANCH  11  12
HETATM   12  C7  UNL     1      23.001   4.189  49.713  1.00  0.00     0.003 A 
HETATM   13  C8  UNL     1      23.519   3.103  48.999  1.00  0.00     0.018 A 
HETATM   14  C9  UNL     1      22.690   2.468  48.097  1.00  0.00     0.004 A 
HETATM   15  C10 UNL     1      21.379   2.895  47.905  1.00  0.00     0.037 A 
HETATM   16  C11 UNL     1      20.879   3.981  48.627  1.00  0.00     0.069 A 
HETATM   17  C13 UNL     1      21.703   4.618  49.528  1.00  0.00     0.055 A 
BRANCH  16  18
HETATM   18  O2  UNL     1      19.564   4.235  48.283  1.00  0.00    -0.356 OA
HETATM   19  C12 UNL     1      18.822   3.200  47.672  1.00  0.00     0.210 C 
ENDBRANCH  16  18
ENDBRANCH  11  12
ENDBRANCH  10  11
ENDBRANCH   6  10
BRANCH   8  20
HETATM   20  O1  UNL     1      22.004  -0.250  52.617  1.00  0.00    -0.351 OA
BRANCH  20  21
HETATM   21  C2  UNL     1      22.069  -1.275  53.568  1.00  0.00     0.171 C 
HETATM   22  C1  UNL     1      21.544  -0.739  54.881  1.00  0.00     0.034 C 
ENDBRANCH  20  21
ENDBRANCH   8  20
ENDBRANCH   1   4
BRANCH   1  23
HETATM   23  C18 UNL     1      26.778  -0.351  53.832  1.00  0.00     0.237 C 
HETATM   24  N2  UNL     1      26.533  -0.328  55.225  1.00  0.00    -0.369 N 
HETATM   25  H18 UNL     1      25.813  -1.004  55.599  1.00  0.00     0.159 HD
HETATM   26  H19 UNL     1      27.230   0.441  55.432  1.00  0.00     0.159 HD
HETATM   27  O3  UNL     1      27.170  -1.504  53.466  1.00  0.00    -0.272 OA
ENDBRANCH   1  23
TORSDOF 8
ENDMDL
