MODEL 1
REMARK VINA RESULT:      -8.0      0.000      0.000
REMARK  5 active torsions:
REMARK  status: ('A' for Active; 'I' for Inactive)
REMARK    1  A    between atoms: C2_2  and  C3_3 
REMARK    2  A    between atoms: C2_2  and  O1_21 
REMARK    3  A    between atoms: C3_3  and  C4_4 
REMARK    4  A    between atoms: C5_5  and  C6_6 
REMARK    5  A    between atoms: C9_11  and  N3_12 
ROOT
HETATM    1  C6  UNL     1      23.849   0.248  53.323  1.00  0.00     0.027 A 
HETATM    2  C7  UNL     1      23.690  -0.808  54.192  1.00  0.00     0.133 A 
HETATM    3  N1  UNL     1      22.584  -1.154  54.839  1.00  0.00    -0.253 NA
HETATM    4  C8  UNL     1      21.484  -0.399  54.636  1.00  0.00     0.234 A 
HETATM    5  N2  UNL     1      21.575   0.637  53.806  1.00  0.00    -0.223 NA
HETATM    6  C9  UNL     1      22.698   0.987  53.151  1.00  0.00     0.143 A 
ENDROOT
BRANCH   6   7
HETATM    7  N3  UNL     1      22.737   2.113  52.257  1.00  0.00    -0.330 N 
HETATM    8  C10 UNL     1      23.004   3.565  52.239  1.00  0.00     0.135 C 
HETATM    9  C11 UNL     1      23.987   3.575  51.056  1.00  0.00     0.061 C 
HETATM   10  C12 UNL     1      23.173   2.788  50.059  1.00  0.00    -0.030 A 
HETATM   11  C13 UNL     1      23.029   2.755  48.691  1.00  0.00     0.009 A 
HETATM   12  C17 UNL     1      22.433   1.901  50.858  1.00  0.00     0.042 A 
HETATM   13  C14 UNL     1      22.167   1.862  48.090  1.00  0.00     0.001 A 
HETATM   14  C15 UNL     1      21.421   0.973  48.833  1.00  0.00     0.002 A 
HETATM   15  C16 UNL     1      21.568   1.010  50.202  1.00  0.00     0.030 A 
ENDBRANCH   6   7
BRANCH   1  16
HETATM   16  C5  UNL     1      25.074   0.588  52.642  1.00  0.00     0.013 C 
HETATM   17  C4  UNL     1      26.230  -0.021  52.463  1.00  0.00    -0.019 C 
BRANCH  17  18
HETATM   18  C3  UNL     1      27.052  -1.215  52.714  1.00  0.00     0.090 C 
BRANCH  18  19
HETATM   19  C2  UNL     1      28.267  -0.849  53.500  1.00  0.00     0.040 C 
HETATM   20  C1  UNL     1      29.427  -1.465  53.392  1.00  0.00     0.046 C 
BRANCH  19  21
HETATM   21  O1  UNL     1      28.208   0.198  54.411  1.00  0.00    -0.361 OA
HETATM   22  C18 UNL     1      29.150   1.232  54.329  1.00  0.00     0.209 C 
ENDBRANCH  19  21
ENDBRANCH  18  19
ENDBRANCH  17  18
ENDBRANCH   1  16
TORSDOF 5
ENDMDL
MODEL 2
REMARK VINA RESULT:      -7.2      2.631      6.058
REMARK  5 active torsions:
REMARK  status: ('A' for Active; 'I' for Inactive)
REMARK    1  A    between atoms: C2_2  and  C3_3 
REMARK    2  A    between atoms: C2_2  and  O1_21 
REMARK    3  A    between atoms: C3_3  and  C4_4 
REMARK    4  A    between atoms: C5_5  and  C6_6 
REMARK    5  A    between atoms: C9_11  and  N3_12 
ROOT
HETATM    1  C6  UNL     1      23.633   0.191  53.113  1.00  0.00     0.027 A 
HETATM    2  C7  UNL     1      22.573  -0.493  53.664  1.00  0.00     0.133 A 
HETATM    3  N1  UNL     1      22.591  -1.260  54.747  1.00  0.00    -0.253 NA
HETATM    4  C8  UNL     1      23.768  -1.398  55.393  1.00  0.00     0.234 A 
HETATM    5  N2  UNL     1      24.830  -0.760  54.907  1.00  0.00    -0.223 NA
HETATM    6  C9  UNL     1      24.811   0.017  53.808  1.00  0.00     0.143 A 
ENDROOT
BRANCH   6   7
HETATM    7  N3  UNL     1      25.990   0.691  53.333  1.00  0.00    -0.330 N 
HETATM    8  C10 UNL     1      26.441   1.992  52.801  1.00  0.00     0.135 C 
HETATM    9  C11 UNL     1      27.647   2.185  53.737  1.00  0.00     0.061 C 
HETATM   10  C12 UNL     1      28.315   0.845  53.550  1.00  0.00    -0.030 A 
HETATM   11  C13 UNL     1      29.602   0.358  53.570  1.00  0.00     0.009 A 
HETATM   12  C17 UNL     1      27.243  -0.031  53.314  1.00  0.00     0.042 A 
HETATM   13  C14 UNL     1      29.857  -0.980  53.361  1.00  0.00     0.001 A 
HETATM   14  C15 UNL     1      28.838  -1.878  53.126  1.00  0.00     0.002 A 
HETATM   15  C16 UNL     1      27.552  -1.386  53.107  1.00  0.00     0.030 A 
ENDBRANCH   6   7
BRANCH   1  16
HETATM   16  C5  UNL     1      23.568   1.012  51.930  1.00  0.00     0.013 C 
HETATM   17  C4  UNL     1      22.878   2.083  51.587  1.00  0.00    -0.019 C 
BRANCH  17  18
HETATM   18  C3  UNL     1      21.874   3.086  51.975  1.00  0.00     0.090 C 
BRANCH  18  19
HETATM   19  C2  UNL     1      22.529   4.406  52.216  1.00  0.00     0.040 C 
HETATM   20  C1  UNL     1      23.640   4.561  52.907  1.00  0.00     0.046 C 
BRANCH  19  21
HETATM   21  O1  UNL     1      21.961   5.562  51.695  1.00  0.00    -0.361 OA
HETATM   22  C18 UNL     1      22.628   6.254  50.676  1.00  0.00     0.209 C 
ENDBRANCH  19  21
ENDBRANCH  18  19
ENDBRANCH  17  18
ENDBRANCH   1  16
TORSDOF 5
ENDMDL
MODEL 3
REMARK VINA RESULT:      -7.1      2.398      6.377
REMARK  5 active torsions:
REMARK  status: ('A' for Active; 'I' for Inactive)
REMARK    1  A    between atoms: C2_2  and  C3_3 
REMARK    2  A    between atoms: C2_2  and  O1_21 
REMARK    3  A    between atoms: C3_3  and  C4_4 
REMARK    4  A    between atoms: C5_5  and  C6_6 
REMARK    5  A    between atoms: C9_11  and  N3_12 
ROOT
HETATM    1  C6  UNL     1      24.096   0.922  52.537  1.00  0.00     0.027 A 
HETATM    2  C7  UNL     1      22.825   0.530  52.891  1.00  0.00     0.133 A 
HETATM    3  N1  UNL     1      22.487  -0.328  53.845  1.00  0.00    -0.253 NA
HETATM    4  C8  UNL     1      23.486  -0.890  54.557  1.00  0.00     0.234 A 
HETATM    5  N2  UNL     1      24.738  -0.551  54.262  1.00  0.00    -0.223 NA
HETATM    6  C9  UNL     1      25.079   0.320  53.293  1.00  0.00     0.143 A 
ENDROOT
BRANCH   6   7
HETATM    7  N3  UNL     1      26.451   0.657  53.022  1.00  0.00    -0.330 N 
HETATM    8  C10 UNL     1      27.310   1.803  52.666  1.00  0.00     0.135 C 
HETATM    9  C11 UNL     1      28.381   1.599  53.752  1.00  0.00     0.061 C 
HETATM   10  C12 UNL     1      28.676   0.137  53.527  1.00  0.00    -0.030 A 
HETATM   11  C13 UNL     1      29.766  -0.694  53.656  1.00  0.00     0.009 A 
HETATM   12  C17 UNL     1      27.449  -0.388  53.089  1.00  0.00     0.042 A 
HETATM   13  C14 UNL     1      29.672  -2.037  53.361  1.00  0.00     0.001 A 
HETATM   14  C15 UNL     1      28.490  -2.597  52.928  1.00  0.00     0.002 A 
HETATM   15  C16 UNL     1      27.402  -1.762  52.800  1.00  0.00     0.030 A 
ENDBRANCH   6   7
BRANCH   1  16
HETATM   16  C5  UNL     1      24.416   1.859  51.488  1.00  0.00     0.013 C 
HETATM   17  C4  UNL     1      23.705   2.538  50.609  1.00  0.00    -0.019 C 
BRANCH  17  18
HETATM   18  C3  UNL     1      22.372   2.853  50.073  1.00  0.00     0.090 C 
BRANCH  18  19
HETATM   19  C2  UNL     1      21.896   1.746  49.190  1.00  0.00     0.040 C 
HETATM   20  C1  UNL     1      21.145   0.745  49.605  1.00  0.00     0.046 C 
BRANCH  19  21
HETATM   21  O1  UNL     1      22.247   1.737  47.846  1.00  0.00    -0.361 OA
HETATM   22  C18 UNL     1      22.220   2.936  47.123  1.00  0.00     0.209 C 
ENDBRANCH  19  21
ENDBRANCH  18  19
ENDBRANCH  17  18
ENDBRANCH   1  16
TORSDOF 5
ENDMDL
MODEL 4
REMARK VINA RESULT:      -7.1      2.764      6.757
REMARK  5 active torsions:
REMARK  status: ('A' for Active; 'I' for Inactive)
REMARK    1  A    between atoms: C2_2  and  C3_3 
REMARK    2  A    between atoms: C2_2  and  O1_21 
REMARK    3  A    between atoms: C3_3  and  C4_4 
REMARK    4  A    between atoms: C5_5  and  C6_6 
REMARK    5  A    between atoms: C9_11  and  N3_12 
ROOT
HETATM    1  C6  UNL     1      24.705   3.136  51.637  1.00  0.00     0.027 A 
HETATM    2  C7  UNL     1      24.562   4.213  50.791  1.00  0.00     0.133 A 
HETATM    3  N1  UNL     1      25.381   4.577  49.813  1.00  0.00    -0.253 NA
HETATM    4  C8  UNL     1      26.481   3.822  49.608  1.00  0.00     0.234 A 
HETATM    5  N2  UNL     1      26.674   2.767  50.395  1.00  0.00    -0.223 NA
HETATM    6  C9  UNL     1      25.842   2.399  51.388  1.00  0.00     0.143 A 
ENDROOT
BRANCH   6   7
HETATM    7  N3  UNL     1      26.097   1.241  52.203  1.00  0.00    -0.330 N 
HETATM    8  C10 UNL     1      25.488  -0.039  52.613  1.00  0.00     0.135 C 
HETATM    9  C11 UNL     1      26.695  -0.944  52.309  1.00  0.00     0.061 C 
HETATM   10  C12 UNL     1      27.766  -0.171  53.038  1.00  0.00    -0.030 A 
HETATM   11  C13 UNL     1      28.935  -0.467  53.701  1.00  0.00     0.009 A 
HETATM   12  C17 UNL     1      27.345   1.164  52.930  1.00  0.00     0.042 A 
HETATM   13  C14 UNL     1      29.703   0.530  54.263  1.00  0.00     0.001 A 
HETATM   14  C15 UNL     1      29.332   1.855  54.182  1.00  0.00     0.002 A 
HETATM   15  C16 UNL     1      28.160   2.146  53.518  1.00  0.00     0.030 A 
ENDBRANCH   6   7
BRANCH   1  16
HETATM   16  C5  UNL     1      23.788   2.780  52.691  1.00  0.00     0.013 C 
HETATM   17  C4  UNL     1      22.677   2.070  52.747  1.00  0.00    -0.019 C 
BRANCH  17  18
HETATM   18  C3  UNL     1      21.687   1.261  52.021  1.00  0.00     0.090 C 
BRANCH  18  19
HETATM   19  C2  UNL     1      20.894   0.434  52.978  1.00  0.00     0.040 C 
HETATM   20  C1  UNL     1      19.704  -0.066  52.709  1.00  0.00     0.046 C 
BRANCH  19  21
HETATM   21  O1  UNL     1      21.409   0.153  54.237  1.00  0.00    -0.361 OA
HETATM   22  C18 UNL     1      21.635  -1.179  54.604  1.00  0.00     0.209 C 
ENDBRANCH  19  21
ENDBRANCH  18  19
ENDBRANCH  17  18
ENDBRANCH   1  16
TORSDOF 5
ENDMDL
MODEL 5
REMARK VINA RESULT:      -7.0      1.342      1.587
REMARK  5 active torsions:
REMARK  status: ('A' for Active; 'I' for Inactive)
REMARK    1  A    between atoms: C2_2  and  C3_3 
REMARK    2  A    between atoms: C2_2  and  O1_21 
REMARK    3  A    between atoms: C3_3  and  C4_4 
REMARK    4  A    between atoms: C5_5  and  C6_6 
REMARK    5  A    between atoms: C9_11  and  N3_12 
ROOT
HETATM    1  C6  UNL     1      23.259   1.006  53.067  1.00  0.00     0.027 A 
HETATM    2  C7  UNL     1      23.505  -0.150  53.773  1.00  0.00     0.133 A 
HETATM    3  N1  UNL     1      22.629  -1.091  54.100  1.00  0.00    -0.253 NA
HETATM    4  C8  UNL     1      21.349  -0.912  53.708  1.00  0.00     0.234 A 
HETATM    5  N2  UNL     1      21.049   0.188  53.022  1.00  0.00    -0.223 NA
HETATM    6  C9  UNL     1      21.940   1.142  52.691  1.00  0.00     0.143 A 
ENDROOT
BRANCH   6   7
HETATM    7  N3  UNL     1      21.561   2.307  51.939  1.00  0.00    -0.330 N 
HETATM    8  C10 UNL     1      20.966   3.648  52.108  1.00  0.00     0.135 C 
HETATM    9  C11 UNL     1      22.030   4.440  51.328  1.00  0.00     0.061 C 
HETATM   10  C12 UNL     1      22.069   3.616  50.066  1.00  0.00    -0.030 A 
HETATM   11  C13 UNL     1      22.309   3.844  48.730  1.00  0.00     0.009 A 
HETATM   12  C17 UNL     1      21.782   2.314  50.509  1.00  0.00     0.042 A 
HETATM   13  C14 UNL     1      22.271   2.812  47.817  1.00  0.00     0.001 A 
HETATM   14  C15 UNL     1      21.994   1.519  48.204  1.00  0.00     0.002 A 
HETATM   15  C16 UNL     1      21.755   1.296  49.542  1.00  0.00     0.030 A 
ENDBRANCH   6   7
BRANCH   1  16
HETATM   16  C5  UNL     1      24.246   2.004  52.736  1.00  0.00     0.013 C 
HETATM   17  C4  UNL     1      25.436   1.972  52.169  1.00  0.00    -0.019 C 
BRANCH  17  18
HETATM   18  C3  UNL     1      26.495   1.154  51.558  1.00  0.00     0.090 C 
BRANCH  18  19
HETATM   19  C2  UNL     1      26.969   0.118  52.524  1.00  0.00     0.040 C 
HETATM   20  C1  UNL     1      26.789  -1.178  52.360  1.00  0.00     0.046 C 
BRANCH  19  21
HETATM   21  O1  UNL     1      27.643   0.506  53.675  1.00  0.00    -0.361 OA
HETATM   22  C18 UNL     1      27.126   0.147  54.925  1.00  0.00     0.209 C 
ENDBRANCH  19  21
ENDBRANCH  18  19
ENDBRANCH  17  18
ENDBRANCH   1  16
TORSDOF 5
ENDMDL
MODEL 6
REMARK VINA RESULT:      -7.0      2.918      7.014
REMARK  5 active torsions:
REMARK  status: ('A' for Active; 'I' for Inactive)
REMARK    1  A    between atoms: C2_2  and  C3_3 
REMARK    2  A    between atoms: C2_2  and  O1_21 
REMARK    3  A    between atoms: C3_3  and  C4_4 
REMARK    4  A    between atoms: C5_5  and  C6_6 
REMARK    5  A    between atoms: C9_11  and  N3_12 
ROOT
HETATM    1  C6  UNL     1      24.934   3.667  51.291  1.00  0.00     0.027 A 
HETATM    2  C7  UNL     1      24.932   4.732  50.420  1.00  0.00     0.133 A 
HETATM    3  N1  UNL     1      25.801   4.971  49.446  1.00  0.00    -0.253 NA
HETATM    4  C8  UNL     1      26.805   4.085  49.276  1.00  0.00     0.234 A 
HETATM    5  N2  UNL     1      26.860   3.034  50.090  1.00  0.00    -0.223 NA
HETATM    6  C9  UNL     1      25.978   2.792  51.078  1.00  0.00     0.143 A 
ENDROOT
BRANCH   6   7
HETATM    7  N3  UNL     1      26.081   1.633  51.922  1.00  0.00    -0.330 N 
HETATM    8  C10 UNL     1      25.345   0.410  52.301  1.00  0.00     0.135 C 
HETATM    9  C11 UNL     1      26.497  -0.590  52.097  1.00  0.00     0.061 C 
HETATM   10  C12 UNL     1      27.568   0.110  52.895  1.00  0.00    -0.030 A 
HETATM   11  C13 UNL     1      28.660  -0.264  53.646  1.00  0.00     0.009 A 
HETATM   12  C17 UNL     1      27.263   1.472  52.741  1.00  0.00     0.042 A 
HETATM   13  C14 UNL     1      29.461   0.681  54.251  1.00  0.00     0.001 A 
HETATM   14  C15 UNL     1      29.201   2.029  54.127  1.00  0.00     0.002 A 
HETATM   15  C16 UNL     1      28.108   2.398  53.375  1.00  0.00     0.030 A 
ENDBRANCH   6   7
BRANCH   1  16
HETATM   16  C5  UNL     1      23.967   3.448  52.339  1.00  0.00     0.013 C 
HETATM   17  C4  UNL     1      22.666   3.237  52.364  1.00  0.00    -0.019 C 
BRANCH  17  18
HETATM   18  C3  UNL     1      21.422   3.083  51.595  1.00  0.00     0.090 C 
BRANCH  18  19
HETATM   19  C2  UNL     1      21.629   2.130  50.464  1.00  0.00     0.040 C 
HETATM   20  C1  UNL     1      21.632   0.819  50.597  1.00  0.00     0.046 C 
BRANCH  19  21
HETATM   21  O1  UNL     1      21.833   2.620  49.180  1.00  0.00    -0.361 OA
HETATM   22  C18 UNL     1      22.042   1.719  48.128  1.00  0.00     0.209 C 
ENDBRANCH  19  21
ENDBRANCH  18  19
ENDBRANCH  17  18
ENDBRANCH   1  16
TORSDOF 5
ENDMDL
MODEL 7
REMARK VINA RESULT:      -6.8      2.586      6.382
REMARK  5 active torsions:
REMARK  status: ('A' for Active; 'I' for Inactive)
REMARK    1  A    between atoms: C2_2  and  C3_3 
REMARK    2  A    between atoms: C2_2  and  O1_21 
REMARK    3  A    between atoms: C3_3  and  C4_4 
REMARK    4  A    between atoms: C5_5  and  C6_6 
REMARK    5  A    between atoms: C9_11  and  N3_12 
ROOT
HETATM    1  C6  UNL     1      22.785   2.877  50.754  1.00  0.00     0.027 A 
HETATM    2  C7  UNL     1      22.608   4.089  50.125  1.00  0.00     0.133 A 
HETATM    3  N1  UNL     1      22.863   5.293  50.621  1.00  0.00    -0.253 NA
HETATM    4  C8  UNL     1      23.348   5.358  51.879  1.00  0.00     0.234 A 
HETATM    5  N2  UNL     1      23.540   4.219  52.538  1.00  0.00    -0.223 NA
HETATM    6  C9  UNL     1      23.281   2.997  52.034  1.00  0.00     0.143 A 
ENDROOT
BRANCH   6   7
HETATM    7  N3  UNL     1      23.516   1.797  52.790  1.00  0.00    -0.330 N 
HETATM    8  C10 UNL     1      22.823   0.822  53.655  1.00  0.00     0.135 C 
HETATM    9  C11 UNL     1      23.301  -0.455  52.942  1.00  0.00     0.061 C 
HETATM   10  C12 UNL     1      24.781  -0.169  52.900  1.00  0.00    -0.030 A 
HETATM   11  C13 UNL     1      25.943  -0.906  52.929  1.00  0.00     0.009 A 
HETATM   12  C17 UNL     1      24.847   1.230  52.798  1.00  0.00     0.042 A 
HETATM   13  C14 UNL     1      27.175  -0.291  52.858  1.00  0.00     0.001 A 
HETATM   14  C15 UNL     1      27.290   1.078  52.755  1.00  0.00     0.002 A 
HETATM   15  C16 UNL     1      26.124   1.812  52.728  1.00  0.00     0.030 A 
ENDBRANCH   6   7
BRANCH   1  16
HETATM   16  C5  UNL     1      22.491   1.589  50.174  1.00  0.00     0.013 C 
HETATM   17  C4  UNL     1      21.395   0.870  50.034  1.00  0.00    -0.019 C 
BRANCH  17  18
HETATM   18  C3  UNL     1      19.947   0.761  50.266  1.00  0.00     0.090 C 
BRANCH  18  19
HETATM   19  C2  UNL     1      19.644   0.914  51.720  1.00  0.00     0.040 C 
HETATM   20  C1  UNL     1      19.291  -0.082  52.507  1.00  0.00     0.046 C 
BRANCH  19  21
HETATM   21  O1  UNL     1      19.728   2.168  52.313  1.00  0.00    -0.361 OA
HETATM   22  C18 UNL     1      19.133   3.267  51.680  1.00  0.00     0.209 C 
ENDBRANCH  19  21
ENDBRANCH  18  19
ENDBRANCH  17  18
ENDBRANCH   1  16
TORSDOF 5
ENDMDL
MODEL 8
REMARK VINA RESULT:      -6.8      2.868      5.229
REMARK  5 active torsions:
REMARK  status: ('A' for Active; 'I' for Inactive)
REMARK    1  A    between atoms: C2_2  and  C3_3 
REMARK    2  A    between atoms: C2_2  and  O1_21 
REMARK    3  A    between atoms: C3_3  and  C4_4 
REMARK    4  A    between atoms: C5_5  and  C6_6 
REMARK    5  A    between atoms: C9_11  and  N3_12 
ROOT
HETATM    1  C6  UNL     1      24.050   1.285  52.318  1.00  0.00     0.027 A 
HETATM    2  C7  UNL     1      24.543   0.332  53.180  1.00  0.00     0.133 A 
HETATM    3  N1  UNL     1      25.618   0.430  53.953  1.00  0.00    -0.253 NA
HETATM    4  C8  UNL     1      26.318   1.583  53.901  1.00  0.00     0.234 A 
HETATM    5  N2  UNL     1      25.890   2.543  53.086  1.00  0.00    -0.223 NA
HETATM    6  C9  UNL     1      24.799   2.442  52.302  1.00  0.00     0.143 A 
ENDROOT
BRANCH   6   7
HETATM    7  N3  UNL     1      24.377   3.517  51.445  1.00  0.00    -0.330 N 
HETATM    8  C10 UNL     1      23.203   4.356  51.137  1.00  0.00     0.135 C 
HETATM    9  C11 UNL     1      23.905   5.723  51.215  1.00  0.00     0.061 C 
HETATM   10  C12 UNL     1      25.082   5.442  50.314  1.00  0.00    -0.030 A 
HETATM   11  C13 UNL     1      25.876   6.163  49.452  1.00  0.00     0.009 A 
HETATM   12  C17 UNL     1      25.329   4.073  50.507  1.00  0.00     0.042 A 
HETATM   13  C14 UNL     1      26.913   5.562  48.773  1.00  0.00     0.001 A 
HETATM   14  C15 UNL     1      27.195   4.222  48.930  1.00  0.00     0.002 A 
HETATM   15  C16 UNL     1      26.397   3.504  49.793  1.00  0.00     0.030 A 
ENDBRANCH   6   7
BRANCH   1  16
HETATM   16  C5  UNL     1      22.876   1.133  51.494  1.00  0.00     0.013 C 
HETATM   17  C4  UNL     1      21.578   1.174  51.721  1.00  0.00    -0.019 C 
BRANCH  17  18
HETATM   18  C3  UNL     1      20.498   1.351  52.703  1.00  0.00     0.090 C 
BRANCH  18  19
HETATM   19  C2  UNL     1      20.310   0.100  53.496  1.00  0.00     0.040 C 
HETATM   20  C1  UNL     1      19.307  -0.737  53.325  1.00  0.00     0.046 C 
BRANCH  19  21
HETATM   21  O1  UNL     1      21.229  -0.234  54.484  1.00  0.00    -0.361 OA
HETATM   22  C18 UNL     1      21.665  -1.560  54.594  1.00  0.00     0.209 C 
ENDBRANCH  19  21
ENDBRANCH  18  19
ENDBRANCH  17  18
ENDBRANCH   1  16
TORSDOF 5
ENDMDL
MODEL 9
REMARK VINA RESULT:      -6.7      3.251      5.335
REMARK  5 active torsions:
REMARK  status: ('A' for Active; 'I' for Inactive)
REMARK    1  A    between atoms: C2_2  and  C3_3 
REMARK    2  A    between atoms: C2_2  and  O1_21 
REMARK    3  A    between atoms: C3_3  and  C4_4 
REMARK    4  A    between atoms: C5_5  and  C6_6 
REMARK    5  A    between atoms: C9_11  and  N3_12 
ROOT
HETATM    1  C6  UNL     1      23.192   2.028  50.688  1.00  0.00     0.027 A 
HETATM    2  C7  UNL     1      22.079   1.303  50.328  1.00  0.00     0.133 A 
HETATM    3  N1  UNL     1      21.498   1.268  49.135  1.00  0.00    -0.253 NA
HETATM    4  C8  UNL     1      22.043   2.019  48.155  1.00  0.00     0.234 A 
HETATM    5  N2  UNL     1      23.121   2.743  48.444  1.00  0.00    -0.223 NA
HETATM    6  C9  UNL     1      23.710   2.778  49.654  1.00  0.00     0.143 A 
ENDROOT
BRANCH   6   7
HETATM    7  N3  UNL     1      24.881   3.573  49.907  1.00  0.00    -0.330 N 
HETATM    8  C10 UNL     1      26.349   3.465  50.015  1.00  0.00     0.135 C 
HETATM    9  C11 UNL     1      26.707   4.629  49.074  1.00  0.00     0.061 C 
HETATM   10  C12 UNL     1      25.829   5.700  49.669  1.00  0.00    -0.030 A 
HETATM   11  C13 UNL     1      25.877   7.069  49.809  1.00  0.00     0.009 A 
HETATM   12  C17 UNL     1      24.719   4.990  50.156  1.00  0.00     0.042 A 
HETATM   13  C14 UNL     1      24.850   7.755  50.421  1.00  0.00     0.001 A 
HETATM   14  C15 UNL     1      23.742   7.101  50.914  1.00  0.00     0.002 A 
HETATM   15  C16 UNL     1      23.698   5.732  50.772  1.00  0.00     0.030 A 
ENDBRANCH   6   7
BRANCH   1  16
HETATM   16  C5  UNL     1      23.789   2.038  52.001  1.00  0.00     0.013 C 
HETATM   17  C4  UNL     1      24.033   1.114  52.910  1.00  0.00    -0.019 C 
BRANCH  17  18
HETATM   18  C3  UNL     1      23.946  -0.305  53.288  1.00  0.00     0.090 C 
BRANCH  18  19
HETATM   19  C2  UNL     1      22.662  -0.571  54.003  1.00  0.00     0.040 C 
HETATM   20  C1  UNL     1      22.572  -1.263  55.121  1.00  0.00     0.046 C 
BRANCH  19  21
HETATM   21  O1  UNL     1      21.471  -0.076  53.487  1.00  0.00    -0.361 OA
HETATM   22  C18 UNL     1      20.276  -0.758  53.745  1.00  0.00     0.209 C 
ENDBRANCH  19  21
ENDBRANCH  18  19
ENDBRANCH  17  18
ENDBRANCH   1  16
TORSDOF 5
ENDMDL
