MODEL 1
REMARK VINA RESULT:      -9.5      0.000      0.000
REMARK  1 active torsions:
REMARK  status: ('A' for Active; 'I' for Inactive)
REMARK    1  A    between atoms: N1_2  and  C2_3 
ROOT
HETATM    1  C2  UNL     1      26.503  -0.651  53.794  1.00  0.00     0.248 C 
HETATM    2  C3  UNL     1      26.565   0.225  52.581  1.00  0.00     0.045 C 
HETATM    3  C4  UNL     1      26.743   1.432  52.205  1.00  0.00    -0.041 C 
HETATM    4  C5  UNL     1      27.572   2.458  52.840  1.00  0.00     0.008 C 
HETATM    5  C6  UNL     1      28.687   2.481  53.601  1.00  0.00     0.002 C 
HETATM    6  C7  UNL     1      29.293   1.336  54.323  1.00  0.00     0.017 C 
HETATM    7  C8  UNL     1      28.939   0.115  54.717  1.00  0.00     0.085 C 
HETATM    8  N2  UNL     1      27.689  -0.514  54.544  1.00  0.00    -0.362 N 
HETATM    9  C9  UNL     1      26.254   2.422  50.995  1.00  0.00     0.100 A 
HETATM   10  C10 UNL     1      25.305   2.667  51.154  1.00  0.00    -0.028 A 
HETATM   11  S1  UNL     1      24.430   2.867  51.304  1.00  0.00    -0.195 SA
HETATM   12  C11 UNL     1      23.267   3.104  51.506  1.00  0.00     0.040 A 
HETATM   13  C12 UNL     1      24.335   1.634  51.450  1.00  0.00     0.093 A 
HETATM   14  C13 UNL     1      22.314   1.965  51.714  1.00  0.00     0.065 C 
HETATM   15  C14 UNL     1      21.409   1.050  51.746  1.00  0.00     0.052 C 
HETATM   16 CL1  UNL     1      19.966   0.361  51.043  1.00  0.00    -0.086 Cl
HETATM   17  C15 UNL     1      21.714   0.201  52.873  1.00  0.00     0.102 A 
HETATM   18  F1  UNL     1      21.165  -1.040  53.233  1.00  0.00    -0.359 F 
HETATM   19  C16 UNL     1      22.340  -0.252  53.934  1.00  0.00     0.195 A 
HETATM   20  C17 UNL     1      22.961  -0.893  55.170  1.00  0.00     0.041 C 
HETATM   21  C18 UNL     1      24.375  -1.322  54.790  1.00  0.00     0.008 C 
HETATM   22  C19 UNL     1      25.262  -0.161  54.508  1.00  0.00     0.069 C 
HETATM   23  H10 UNL     1      27.516  -1.224  55.324  1.00  0.00     0.161 HD
ENDROOT
BRANCH   1  24
HETATM   24  N1  UNL     1      26.246  -1.983  53.302  1.00  0.00     0.112 N 
HETATM   25  C1  UNL     1      27.237  -2.460  52.380  1.00  0.00     0.310 C 
HETATM   26  H4  UNL     1      26.209  -2.624  54.097  1.00  0.00     0.319 HD
ENDBRANCH   1  24
TORSDOF 1
ENDMDL
MODEL 2
REMARK VINA RESULT:      -8.4      3.093      5.208
REMARK  1 active torsions:
REMARK  status: ('A' for Active; 'I' for Inactive)
REMARK    1  A    between atoms: N1_2  and  C2_3 
ROOT
HETATM    1  C2  UNL     1      23.110   3.835  50.531  1.00  0.00     0.248 C 
HETATM    2  C3  UNL     1      24.176   3.565  51.547  1.00  0.00     0.045 C 
HETATM    3  C4  UNL     1      25.350   3.084  51.688  1.00  0.00    -0.041 C 
HETATM    4  C5  UNL     1      26.447   3.093  50.718  1.00  0.00     0.008 C 
HETATM    5  C6  UNL     1      26.841   3.881  49.694  1.00  0.00     0.002 C 
HETATM    6  C7  UNL     1      26.030   4.915  49.008  1.00  0.00     0.017 C 
HETATM    7  C8  UNL     1      24.748   5.257  48.898  1.00  0.00     0.085 C 
HETATM    8  N2  UNL     1      23.636   4.617  49.482  1.00  0.00    -0.362 N 
HETATM    9  C9  UNL     1      26.223   2.302  52.831  1.00  0.00     0.100 A 
HETATM   10  C10 UNL     1      25.891   1.368  52.895  1.00  0.00    -0.028 A 
HETATM   11  S1  UNL     1      25.563   0.522  52.955  1.00  0.00    -0.195 SA
HETATM   12  C11 UNL     1      25.101  -0.588  53.036  1.00  0.00     0.040 A 
HETATM   13  C12 UNL     1      24.470   1.116  53.015  1.00  0.00     0.093 A 
HETATM   14  C13 UNL     1      23.627  -0.753  53.251  1.00  0.00     0.065 C 
HETATM   15  C14 UNL     1      22.406  -0.981  53.588  1.00  0.00     0.052 C 
HETATM   16 CL1  UNL     1      21.285  -1.670  54.737  1.00  0.00    -0.086 Cl
HETATM   17  C15 UNL     1      21.574  -0.415  52.552  1.00  0.00     0.102 A 
HETATM   18  F1  UNL     1      20.184  -0.215  52.530  1.00  0.00    -0.359 F 
HETATM   19  C16 UNL     1      21.248   0.199  51.439  1.00  0.00     0.195 A 
HETATM   20  C17 UNL     1      20.721   0.890  50.186  1.00  0.00     0.041 C 
HETATM   21  C18 UNL     1      21.202   2.337  50.236  1.00  0.00     0.008 C 
HETATM   22  C19 UNL     1      22.680   2.446  50.107  1.00  0.00     0.069 C 
HETATM   23  H10 UNL     1      22.762   4.766  48.884  1.00  0.00     0.161 HD
ENDROOT
BRANCH   1  24
HETATM   24  N1  UNL     1      22.022   4.444  51.256  1.00  0.00     0.112 N 
HETATM   25  C1  UNL     1      22.037   5.880  51.224  1.00  0.00     0.310 C 
HETATM   26  H4  UNL     1      21.140   4.122  50.855  1.00  0.00     0.319 HD
ENDBRANCH   1  24
TORSDOF 1
ENDMDL
MODEL 3
REMARK VINA RESULT:      -8.1      3.192      5.471
REMARK  1 active torsions:
REMARK  status: ('A' for Active; 'I' for Inactive)
REMARK    1  A    between atoms: N1_2  and  C2_3 
ROOT
HETATM    1  C2  UNL     1      23.341   2.151  51.381  1.00  0.00     0.248 C 
HETATM    2  C3  UNL     1      22.718   1.704  52.667  1.00  0.00     0.045 C 
HETATM    3  C4  UNL     1      22.537   0.681  53.409  1.00  0.00    -0.041 C 
HETATM    4  C5  UNL     1      23.419  -0.476  53.575  1.00  0.00     0.008 C 
HETATM    5  C6  UNL     1      24.745  -0.715  53.487  1.00  0.00     0.002 C 
HETATM    6  C7  UNL     1      25.763   0.156  52.852  1.00  0.00     0.017 C 
HETATM    7  C8  UNL     1      25.800   1.182  52.005  1.00  0.00     0.085 C 
HETATM    8  N2  UNL     1      24.709   1.808  51.368  1.00  0.00    -0.362 N 
HETATM    9  C9  UNL     1      21.416   0.115  54.460  1.00  0.00     0.100 A 
HETATM   10  C10 UNL     1      20.625  -0.188  53.942  1.00  0.00    -0.028 A 
HETATM   11  S1  UNL     1      19.900  -0.443  53.454  1.00  0.00    -0.195 SA
HETATM   12  C11 UNL     1      18.942  -0.755  52.795  1.00  0.00     0.040 A 
HETATM   13  C12 UNL     1      20.050   0.679  52.934  1.00  0.00     0.093 A 
HETATM   14  C13 UNL     1      18.356   0.240  51.839  1.00  0.00     0.065 C 
HETATM   15  C14 UNL     1      17.701   1.079  51.115  1.00  0.00     0.052 C 
HETATM   16 CL1  UNL     1      16.204   1.924  50.806  1.00  0.00    -0.086 Cl
HETATM   17  C15 UNL     1      18.603   1.535  50.084  1.00  0.00     0.102 A 
HETATM   18  F1  UNL     1      18.456   2.587  49.167  1.00  0.00    -0.359 F 
HETATM   19  C16 UNL     1      19.703   1.642  49.376  1.00  0.00     0.195 A 
HETATM   20  C17 UNL     1      20.905   1.872  48.467  1.00  0.00     0.041 C 
HETATM   21  C18 UNL     1      22.027   2.429  49.339  1.00  0.00     0.008 C 
HETATM   22  C19 UNL     1      22.517   1.435  50.332  1.00  0.00     0.069 C 
HETATM   23  H10 UNL     1      25.014   2.232  50.435  1.00  0.00     0.161 HD
ENDROOT
BRANCH   1  24
HETATM   24  N1  UNL     1      23.069   3.564  51.283  1.00  0.00     0.112 N 
HETATM   25  C1  UNL     1      23.453   4.309  52.449  1.00  0.00     0.310 C 
HETATM   26  H4  UNL     1      23.573   3.940  50.479  1.00  0.00     0.319 HD
ENDBRANCH   1  24
TORSDOF 1
ENDMDL
MODEL 4
REMARK VINA RESULT:      -8.1      3.429      5.926
REMARK  1 active torsions:
REMARK  status: ('A' for Active; 'I' for Inactive)
REMARK    1  A    between atoms: N1_2  and  C2_3 
ROOT
HETATM    1  C2  UNL     1      21.772   1.189  52.142  1.00  0.00     0.248 C 
HETATM    2  C3  UNL     1      22.964   0.283  52.106  1.00  0.00     0.045 C 
HETATM    3  C4  UNL     1      23.886  -0.215  52.834  1.00  0.00    -0.041 C 
HETATM    4  C5  UNL     1      23.824  -0.555  54.257  1.00  0.00     0.008 C 
HETATM    5  C6  UNL     1      22.865  -0.931  55.131  1.00  0.00     0.002 C 
HETATM    6  C7  UNL     1      21.399  -0.821  54.941  1.00  0.00     0.017 C 
HETATM    7  C8  UNL     1      20.549  -0.174  54.147  1.00  0.00     0.085 C 
HETATM    8  N2  UNL     1      20.860   0.740  53.120  1.00  0.00    -0.362 N 
HETATM    9  C9  UNL     1      25.440  -0.708  52.673  1.00  0.00     0.100 A 
HETATM   10  C10 UNL     1      26.017   0.095  52.586  1.00  0.00    -0.028 A 
HETATM   11  S1  UNL     1      26.529   0.841  52.488  1.00  0.00    -0.195 SA
HETATM   12  C11 UNL     1      27.189   1.837  52.337  1.00  0.00     0.040 A 
HETATM   13  C12 UNL     1      25.665   1.134  51.639  1.00  0.00     0.093 A 
HETATM   14  C13 UNL     1      26.802   2.816  51.270  1.00  0.00     0.065 C 
HETATM   15  C14 UNL     1      26.634   3.625  50.283  1.00  0.00     0.052 C 
HETATM   16 CL1  UNL     1      27.280   4.358  48.835  1.00  0.00    -0.086 Cl
HETATM   17  C15 UNL     1      25.314   4.193  50.428  1.00  0.00     0.102 A 
HETATM   18  F1  UNL     1      24.569   4.969  49.526  1.00  0.00    -0.359 F 
HETATM   19  C16 UNL     1      24.131   4.431  50.944  1.00  0.00     0.195 A 
HETATM   20  C17 UNL     1      22.732   4.802  51.423  1.00  0.00     0.041 C 
HETATM   21  C18 UNL     1      21.903   3.521  51.426  1.00  0.00     0.008 C 
HETATM   22  C19 UNL     1      22.379   2.543  52.441  1.00  0.00     0.069 C 
HETATM   23  H10 UNL     1      20.062   1.439  52.987  1.00  0.00     0.161 HD
ENDROOT
BRANCH   1  24
HETATM   24  N1  UNL     1      21.255   1.211  50.796  1.00  0.00     0.112 N 
HETATM   25  C1  UNL     1      19.940   0.649  50.671  1.00  0.00     0.310 C 
HETATM   26  H4  UNL     1      21.224   2.180  50.473  1.00  0.00     0.319 HD
ENDBRANCH   1  24
TORSDOF 1
ENDMDL
MODEL 5
REMARK VINA RESULT:      -7.9     10.257     12.472
REMARK  1 active torsions:
REMARK  status: ('A' for Active; 'I' for Inactive)
REMARK    1  A    between atoms: N1_2  and  C2_3 
ROOT
HETATM    1  C2  UNL     1      34.387   6.504  47.240  1.00  0.00     0.248 C 
HETATM    2  C3  UNL     1      33.206   6.173  48.099  1.00  0.00     0.045 C 
HETATM    3  C4  UNL     1      32.037   5.662  48.070  1.00  0.00    -0.041 C 
HETATM    4  C5  UNL     1      31.542   4.600  47.191  1.00  0.00     0.008 C 
HETATM    5  C6  UNL     1      32.072   3.541  46.542  1.00  0.00     0.002 C 
HETATM    6  C7  UNL     1      33.510   3.291  46.279  1.00  0.00     0.017 C 
HETATM    7  C8  UNL     1      34.651   3.976  46.284  1.00  0.00     0.085 C 
HETATM    8  N2  UNL     1      34.830   5.345  46.568  1.00  0.00    -0.362 N 
HETATM    9  C9  UNL     1      30.608   5.830  48.852  1.00  0.00     0.100 A 
HETATM   10  C10 UNL     1      30.187   6.679  48.557  1.00  0.00    -0.028 A 
HETATM   11  S1  UNL     1      29.823   7.470  48.290  1.00  0.00    -0.195 SA
HETATM   12  C11 UNL     1      29.367   8.529  47.943  1.00  0.00     0.040 A 
HETATM   13  C12 UNL     1      30.961   7.903  48.551  1.00  0.00     0.093 A 
HETATM   14  C13 UNL     1      30.212   9.762  48.057  1.00  0.00     0.065 C 
HETATM   15  C14 UNL     1      30.809  10.883  48.264  1.00  0.00     0.052 C 
HETATM   16 CL1  UNL     1      30.813  12.441  49.054  1.00  0.00    -0.086 Cl
HETATM   17  C15 UNL     1      32.034  10.851  47.501  1.00  0.00     0.102 A 
HETATM   18  F1  UNL     1      33.131  11.728  47.532  1.00  0.00    -0.359 F 
HETATM   19  C16 UNL     1      32.965  10.401  46.693  1.00  0.00     0.195 A 
HETATM   20  C17 UNL     1      34.122  10.011  45.781  1.00  0.00     0.041 C 
HETATM   21  C18 UNL     1      34.760   8.758  46.376  1.00  0.00     0.008 C 
HETATM   22  C19 UNL     1      33.852   7.581  46.321  1.00  0.00     0.069 C 
HETATM   23  H10 UNL     1      35.686   5.725  46.054  1.00  0.00     0.161 HD
ENDROOT
BRANCH   1  24
HETATM   24  N1  UNL     1      35.359   7.102  48.122  1.00  0.00     0.112 N 
HETATM   25  C1  UNL     1      35.903   6.190  49.088  1.00  0.00     0.310 C 
HETATM   26  H4  UNL     1      36.127   7.473  47.560  1.00  0.00     0.319 HD
ENDBRANCH   1  24
TORSDOF 1
ENDMDL
MODEL 6
REMARK VINA RESULT:      -7.5      3.157      5.849
REMARK  1 active torsions:
REMARK  status: ('A' for Active; 'I' for Inactive)
REMARK    1  A    between atoms: N1_2  and  C2_3 
ROOT
HETATM    1  C2  UNL     1      21.968   0.745  52.541  1.00  0.00     0.248 C 
HETATM    2  C3  UNL     1      22.287   2.067  51.916  1.00  0.00     0.045 C 
HETATM    3  C4  UNL     1      22.499   2.639  50.794  1.00  0.00    -0.041 C 
HETATM    4  C5  UNL     1      21.926   2.297  49.490  1.00  0.00     0.008 C 
HETATM    5  C6  UNL     1      20.786   1.731  49.040  1.00  0.00     0.002 C 
HETATM    6  C7  UNL     1      19.808   0.953  49.838  1.00  0.00     0.017 C 
HETATM    7  C8  UNL     1      19.759   0.333  51.015  1.00  0.00     0.085 C 
HETATM    8  N2  UNL     1      20.793   0.216  51.967  1.00  0.00    -0.362 N 
HETATM    9  C9  UNL     1      23.375   3.890  50.203  1.00  0.00     0.100 A 
HETATM   10  C10 UNL     1      24.331   3.622  50.187  1.00  0.00    -0.028 A 
HETATM   11  S1  UNL     1      25.205   3.369  50.195  1.00  0.00    -0.195 SA
HETATM   12  C11 UNL     1      26.359   3.025  50.235  1.00  0.00     0.040 A 
HETATM   13  C12 UNL     1      24.934   3.031  51.363  1.00  0.00     0.093 A 
HETATM   14  C13 UNL     1      26.924   2.508  51.523  1.00  0.00     0.065 C 
HETATM   15  C14 UNL     1      27.527   2.201  52.619  1.00  0.00     0.052 C 
HETATM   16 CL1  UNL     1      28.787   2.563  53.774  1.00  0.00    -0.086 Cl
HETATM   17  C15 UNL     1      26.874   1.023  53.139  1.00  0.00     0.102 A 
HETATM   18  F1  UNL     1      27.008   0.405  54.392  1.00  0.00    -0.359 F 
HETATM   19  C16 UNL     1      26.033   0.018  53.213  1.00  0.00     0.195 A 
HETATM   20  C17 UNL     1      25.125  -1.187  53.433  1.00  0.00     0.041 C 
HETATM   21  C18 UNL     1      23.698  -0.658  53.544  1.00  0.00     0.008 C 
HETATM   22  C19 UNL     1      23.210  -0.074  52.266  1.00  0.00     0.069 C 
HETATM   23  H10 UNL     1      20.672  -0.677  52.542  1.00  0.00     0.161 HD
ENDROOT
BRANCH   1  24
HETATM   24  N1  UNL     1      21.892   0.990  53.960  1.00  0.00     0.112 N 
HETATM   25  C1  UNL     1      20.710   0.457  54.577  1.00  0.00     0.310 C 
HETATM   26  H4  UNL     1      22.708   0.571  54.409  1.00  0.00     0.319 HD
ENDBRANCH   1  24
TORSDOF 1
ENDMDL
MODEL 7
REMARK VINA RESULT:      -7.1      3.771      6.125
REMARK  1 active torsions:
REMARK  status: ('A' for Active; 'I' for Inactive)
REMARK    1  A    between atoms: N1_2  and  C2_3 
ROOT
HETATM    1  C2  UNL     1      24.530   4.156  49.582  1.00  0.00     0.248 C 
HETATM    2  C3  UNL     1      23.638   3.311  48.726  1.00  0.00     0.045 C 
HETATM    3  C4  UNL     1      22.470   3.258  48.215  1.00  0.00    -0.041 C 
HETATM    4  C5  UNL     1      21.628   4.374  47.779  1.00  0.00     0.008 C 
HETATM    5  C6  UNL     1      21.827   5.624  47.311  1.00  0.00     0.002 C 
HETATM    6  C7  UNL     1      23.085   6.407  47.378  1.00  0.00     0.017 C 
HETATM    7  C8  UNL     1      24.236   6.375  48.045  1.00  0.00     0.085 C 
HETATM    8  N2  UNL     1      24.629   5.453  49.036  1.00  0.00    -0.362 N 
HETATM    9  C9  UNL     1      21.370   2.120  47.792  1.00  0.00     0.100 A 
HETATM   10  C10 UNL     1      20.967   1.750  48.621  1.00  0.00    -0.028 A 
HETATM   11  S1  UNL     1      20.620   1.409  49.390  1.00  0.00    -0.195 SA
HETATM   12  C11 UNL     1      20.189   0.953  50.418  1.00  0.00     0.040 A 
HETATM   13  C12 UNL     1      21.822   1.317  49.706  1.00  0.00     0.093 A 
HETATM   14  C13 UNL     1      21.149   0.443  51.451  1.00  0.00     0.065 C 
HETATM   15  C14 UNL     1      21.890  -0.155  52.317  1.00  0.00     0.052 C 
HETATM   16 CL1  UNL     1      22.290  -1.627  53.169  1.00  0.00    -0.086 Cl
HETATM   17  C15 UNL     1      22.817   0.830  52.824  1.00  0.00     0.102 A 
HETATM   18  F1  UNL     1      23.954   0.658  53.630  1.00  0.00    -0.359 F 
HETATM   19  C16 UNL     1      23.409   1.990  52.983  1.00  0.00     0.195 A 
HETATM   20  C17 UNL     1      24.190   3.268  53.269  1.00  0.00     0.041 C 
HETATM   21  C18 UNL     1      24.848   3.694  51.960  1.00  0.00     0.008 C 
HETATM   22  C19 UNL     1      23.853   4.108  50.935  1.00  0.00     0.069 C 
HETATM   23  H10 UNL     1      25.324   5.903  49.712  1.00  0.00     0.161 HD
ENDROOT
BRANCH   1  24
HETATM   24  N1  UNL     1      25.779   3.440  49.675  1.00  0.00     0.112 N 
HETATM   25  C1  UNL     1      26.904   4.169  49.161  1.00  0.00     0.310 C 
HETATM   26  H4  UNL     1      25.957   3.219  50.656  1.00  0.00     0.319 HD
ENDBRANCH   1  24
TORSDOF 1
ENDMDL
MODEL 8
REMARK VINA RESULT:      -7.1      4.436      6.258
REMARK  1 active torsions:
REMARK  status: ('A' for Active; 'I' for Inactive)
REMARK    1  A    between atoms: N1_2  and  C2_3 
ROOT
HETATM    1  C2  UNL     1      22.979   2.989  51.135  1.00  0.00     0.248 C 
HETATM    2  C3  UNL     1      24.222   2.897  50.306  1.00  0.00     0.045 C 
HETATM    3  C4  UNL     1      25.492   3.017  50.358  1.00  0.00    -0.041 C 
HETATM    4  C5  UNL     1      26.374   2.742  51.494  1.00  0.00     0.008 C 
HETATM    5  C6  UNL     1      26.360   1.924  52.568  1.00  0.00     0.002 C 
HETATM    6  C7  UNL     1      25.189   1.196  53.113  1.00  0.00     0.017 C 
HETATM    7  C8  UNL     1      23.862   1.238  53.013  1.00  0.00     0.085 C 
HETATM    8  N2  UNL     1      23.087   2.139  52.255  1.00  0.00    -0.362 N 
HETATM    9  C9  UNL     1      26.720   3.465  49.372  1.00  0.00     0.100 A 
HETATM   10  C10 UNL     1      26.685   4.450  49.255  1.00  0.00    -0.028 A 
HETATM   11  S1  UNL     1      26.629   5.351  49.143  1.00  0.00    -0.195 SA
HETATM   12  C11 UNL     1      26.525   6.541  48.989  1.00  0.00     0.040 A 
HETATM   13  C12 UNL     1      25.434   5.090  48.906  1.00  0.00     0.093 A 
HETATM   14  C13 UNL     1      25.213   7.108  48.536  1.00  0.00     0.065 C 
HETATM   15  C14 UNL     1      24.177   7.658  48.005  1.00  0.00     0.052 C 
HETATM   16 CL1  UNL     1      23.495   8.582  46.688  1.00  0.00    -0.086 Cl
HETATM   17  C15 UNL     1      23.067   7.401  48.891  1.00  0.00     0.102 A 
HETATM   18  F1  UNL     1      21.693   7.605  48.687  1.00  0.00    -0.359 F 
HETATM   19  C16 UNL     1      22.408   6.957  49.936  1.00  0.00     0.195 A 
HETATM   20  C17 UNL     1      21.516   6.504  51.086  1.00  0.00     0.041 C 
HETATM   21  C18 UNL     1      21.561   4.979  51.115  1.00  0.00     0.008 C 
HETATM   22  C19 UNL     1      22.906   4.461  51.483  1.00  0.00     0.069 C 
HETATM   23  H10 UNL     1      22.125   2.274  52.703  1.00  0.00     0.161 HD
ENDROOT
BRANCH   1  24
HETATM   24  N1  UNL     1      21.888   2.680  50.243  1.00  0.00     0.112 N 
HETATM   25  C1  UNL     1      21.754   1.280  49.955  1.00  0.00     0.310 C 
HETATM   26  H4  UNL     1      21.017   3.009  50.663  1.00  0.00     0.319 HD
ENDBRANCH   1  24
TORSDOF 1
ENDMDL
MODEL 9
REMARK VINA RESULT:      -7.0      3.106      5.347
REMARK  1 active torsions:
REMARK  status: ('A' for Active; 'I' for Inactive)
REMARK    1  A    between atoms: N1_2  and  C2_3 
ROOT
HETATM    1  C2  UNL     1      24.827   3.957  50.889  1.00  0.00     0.248 C 
HETATM    2  C3  UNL     1      23.395   3.858  50.464  1.00  0.00     0.045 C 
HETATM    3  C4  UNL     1      22.232   4.335  50.685  1.00  0.00    -0.041 C 
HETATM    4  C5  UNL     1      21.884   5.691  51.115  1.00  0.00     0.008 C 
HETATM    5  C6  UNL     1      22.418   6.924  50.987  1.00  0.00     0.002 C 
HETATM    6  C7  UNL     1      23.803   7.253  50.572  1.00  0.00     0.017 C 
HETATM    7  C8  UNL     1      24.976   6.634  50.459  1.00  0.00     0.085 C 
HETATM    8  N2  UNL     1      25.271   5.291  50.767  1.00  0.00    -0.362 N 
HETATM    9  C9  UNL     1      20.673   3.834  50.634  1.00  0.00     0.100 A 
HETATM   10  C10 UNL     1      20.513   3.228  51.405  1.00  0.00    -0.028 A 
HETATM   11  S1  UNL     1      20.388   2.661  52.105  1.00  0.00    -0.195 SA
HETATM   12  C11 UNL     1      20.246   1.895  53.023  1.00  0.00     0.040 A 
HETATM   13  C12 UNL     1      21.435   2.144  51.671  1.00  0.00     0.093 A 
HETATM   14  C13 UNL     1      21.196   0.745  53.170  1.00  0.00     0.065 C 
HETATM   15  C14 UNL     1      21.866  -0.349  53.280  1.00  0.00     0.052 C 
HETATM   16 CL1  UNL     1      21.865  -2.095  53.320  1.00  0.00    -0.086 Cl
HETATM   17  C15 UNL     1      23.250   0.025  53.449  1.00  0.00     0.102 A 
HETATM   18  F1  UNL     1      24.404  -0.775  53.415  1.00  0.00    -0.359 F 
HETATM   19  C16 UNL     1      24.307   0.792  53.576  1.00  0.00     0.195 A 
HETATM   20  C17 UNL     1      25.619   1.553  53.734  1.00  0.00     0.041 C 
HETATM   21  C18 UNL     1      25.819   2.371  52.461  1.00  0.00     0.008 C 
HETATM   22  C19 UNL     1      24.800   3.445  52.313  1.00  0.00     0.069 C 
HETATM   23  H10 UNL     1      26.297   5.188  51.047  1.00  0.00     0.161 HD
ENDROOT
BRANCH   1  24
HETATM   24  N1  UNL     1      25.544   3.003  50.078  1.00  0.00     0.112 N 
HETATM   25  C1  UNL     1      26.639   3.573  49.345  1.00  0.00     0.310 C 
HETATM   26  H4  UNL     1      25.909   2.267  50.684  1.00  0.00     0.319 HD
ENDBRANCH   1  24
TORSDOF 1
ENDMDL
