MODEL 1
REMARK VINA RESULT:      -8.0      0.000      0.000
REMARK  4 active torsions:
REMARK  status: ('A' for Active; 'I' for Inactive)
REMARK    1  A    between atoms: O1_3  and  C3_4 
REMARK    2  A    between atoms: C7_9  and  N2_10 
REMARK    3  A    between atoms: C10_13  and  C11_14 
REMARK    4  A    between atoms: C11_14  and  C12_15 
ROOT
HETATM    1  C1  UNL     1      27.620   5.774  48.504  1.00  0.00     0.044 C 
HETATM    2  C2  UNL     1      27.160   4.719  48.856  1.00  0.00     0.043 C 
HETATM    3  O1  UNL     1      26.616   3.529  49.250  1.00  0.00    -0.295 OA
ENDROOT
BRANCH   3   4
HETATM    4  C3  UNL     1      25.664   3.500  50.338  1.00  0.00     0.091 C 
HETATM    5  C4  UNL     1      26.607   2.584  50.763  1.00  0.00     0.165 C 
HETATM    6  C5  UNL     1      26.571   1.808  52.038  1.00  0.00     0.046 A 
HETATM    7  N1  UNL     1      27.790   1.818  52.392  1.00  0.00    -0.287 NA
HETATM    8  C8  UNL     1      25.796   1.062  53.028  1.00  0.00    -0.004 A 
HETATM    9  C6  UNL     1      28.063   1.120  53.629  1.00  0.00     0.206 A 
HETATM   10  C7  UNL     1      26.692   0.667  53.954  1.00  0.00     0.031 A 
HETATM   11  C9  UNL     1      24.354   0.889  52.877  1.00  0.00     0.041 C 
HETATM   12  C10 UNL     1      23.127   0.380  52.888  1.00  0.00    -0.024 C 
HETATM   13  C14 UNL     1      22.252   1.456  52.233  1.00  0.00     0.013 C 
HETATM   14  C15 UNL     1      23.297   2.475  51.793  1.00  0.00     0.027 C 
HETATM   15  C16 UNL     1      22.690   3.660  51.156  1.00  0.00     0.167 C 
HETATM   16  O2  UNL     1      23.580   4.622  50.832  1.00  0.00    -0.389 OA
HETATM   17  C17 UNL     1      24.569   4.480  49.977  1.00  0.00     0.202 C 
BRANCH  10  18
HETATM   18  N2  UNL     1      26.457  -0.077  55.114  1.00  0.00    -0.400 N 
HETATM   19  H5  UNL     1      26.266  -1.089  54.922  1.00  0.00     0.156 HD
HETATM   20  H6  UNL     1      26.471   0.325  56.058  1.00  0.00     0.156 HD
ENDBRANCH  10  18
BRANCH  12  21
HETATM   21  C11 UNL     1      22.342  -0.837  53.241  1.00  0.00     0.011 C 
BRANCH  21  22
HETATM   22  C12 UNL     1      22.062  -1.077  54.670  1.00  0.00    -0.004 C 
HETATM   23  C13 UNL     1      23.172  -1.486  55.567  1.00  0.00     0.005 C 
ENDBRANCH  21  22
ENDBRANCH  12  21
ENDBRANCH   3   4
TORSDOF 4
ENDMDL
MODEL 2
REMARK VINA RESULT:      -7.8      2.466      4.572
REMARK  4 active torsions:
REMARK  status: ('A' for Active; 'I' for Inactive)
REMARK    1  A    between atoms: O1_3  and  C3_4 
REMARK    2  A    between atoms: C7_9  and  N2_10 
REMARK    3  A    between atoms: C10_13  and  C11_14 
REMARK    4  A    between atoms: C11_14  and  C12_15 
ROOT
HETATM    1  C1  UNL     1      29.085  -0.163  54.292  1.00  0.00     0.044 C 
HETATM    2  C2  UNL     1      28.213  -0.288  53.472  1.00  0.00     0.043 C 
HETATM    3  O1  UNL     1      27.229  -0.410  52.532  1.00  0.00    -0.295 OA
ENDROOT
BRANCH   3   4
HETATM    4  C3  UNL     1      26.171   0.573  52.469  1.00  0.00     0.091 C 
HETATM    5  C4  UNL     1      25.546  -0.473  53.120  1.00  0.00     0.165 C 
HETATM    6  C5  UNL     1      24.133  -0.494  53.601  1.00  0.00     0.046 A 
HETATM    7  N1  UNL     1      24.238  -1.098  54.713  1.00  0.00    -0.287 NA
HETATM    8  C8  UNL     1      22.730  -0.151  53.380  1.00  0.00    -0.004 A 
HETATM    9  C6  UNL     1      22.991  -1.270  55.424  1.00  0.00     0.206 A 
HETATM   10  C7  UNL     1      22.077  -0.616  54.463  1.00  0.00     0.031 A 
HETATM   11  C9  UNL     1      22.312   0.556  52.172  1.00  0.00     0.041 C 
HETATM   12  C10 UNL     1      21.623   0.962  51.111  1.00  0.00    -0.024 C 
HETATM   13  C14 UNL     1      22.534   1.988  50.425  1.00  0.00     0.013 C 
HETATM   14  C15 UNL     1      23.804   1.880  51.261  1.00  0.00     0.027 C 
HETATM   15  C16 UNL     1      24.849   2.823  50.817  1.00  0.00     0.167 C 
HETATM   16  O2  UNL     1      25.955   2.816  51.590  1.00  0.00    -0.389 OA
HETATM   17  C17 UNL     1      26.748   1.781  51.764  1.00  0.00     0.202 C 
BRANCH  10  18
HETATM   18  N2  UNL     1      20.708  -0.538  54.740  1.00  0.00    -0.400 N 
HETATM   19  H5  UNL     1      20.426   0.377  55.166  1.00  0.00     0.156 HD
HETATM   20  H6  UNL     1      20.045  -1.297  54.545  1.00  0.00     0.156 HD
ENDBRANCH  10  18
BRANCH  12  21
HETATM   21  C11 UNL     1      20.361   0.742  50.350  1.00  0.00     0.011 C 
BRANCH  21  22
HETATM   22  C12 UNL     1      19.088   0.892  51.082  1.00  0.00    -0.004 C 
HETATM   23  C13 UNL     1      18.564  -0.253  51.867  1.00  0.00     0.005 C 
ENDBRANCH  21  22
ENDBRANCH  12  21
ENDBRANCH   3   4
TORSDOF 4
ENDMDL
MODEL 3
REMARK VINA RESULT:      -7.6      2.942      6.056
REMARK  4 active torsions:
REMARK  status: ('A' for Active; 'I' for Inactive)
REMARK    1  A    between atoms: O1_3  and  C3_4 
REMARK    2  A    between atoms: C7_9  and  N2_10 
REMARK    3  A    between atoms: C10_13  and  C11_14 
REMARK    4  A    between atoms: C11_14  and  C12_15 
ROOT
HETATM    1  C1  UNL     1      17.951  -0.470  52.234  1.00  0.00     0.044 C 
HETATM    2  C2  UNL     1      19.066  -0.211  51.862  1.00  0.00     0.043 C 
HETATM    3  O1  UNL     1      20.339   0.065  51.450  1.00  0.00    -0.295 OA
ENDROOT
BRANCH   3   4
HETATM    4  C3  UNL     1      21.382   0.269  52.430  1.00  0.00     0.091 C 
HETATM    5  C4  UNL     1      21.887   0.944  51.336  1.00  0.00     0.165 C 
HETATM    6  C5  UNL     1      23.190   1.671  51.272  1.00  0.00     0.046 A 
HETATM    7  N1  UNL     1      22.890   2.697  50.587  1.00  0.00    -0.287 NA
HETATM    8  C8  UNL     1      24.607   1.734  51.624  1.00  0.00    -0.004 A 
HETATM    9  C6  UNL     1      23.989   3.608  50.356  1.00  0.00     0.206 A 
HETATM   10  C7  UNL     1      25.057   2.880  51.076  1.00  0.00     0.031 A 
HETATM   11  C9  UNL     1      25.231   0.679  52.417  1.00  0.00     0.041 C 
HETATM   12  C10 UNL     1      26.098  -0.206  52.898  1.00  0.00    -0.024 C 
HETATM   13  C14 UNL     1      25.318  -0.969  53.977  1.00  0.00     0.013 C 
HETATM   14  C15 UNL     1      23.918  -0.388  53.813  1.00  0.00     0.027 C 
HETATM   15  C16 UNL     1      22.963  -0.943  54.791  1.00  0.00     0.167 C 
HETATM   16  O2  UNL     1      21.734  -0.386  54.732  1.00  0.00    -0.389 OA
HETATM   17  C17 UNL     1      20.932  -0.437  53.690  1.00  0.00     0.202 C 
BRANCH  10  18
HETATM   18  N2  UNL     1      26.352   3.407  51.127  1.00  0.00    -0.400 N 
HETATM   19  H5  UNL     1      26.372   4.423  51.380  1.00  0.00     0.156 HD
HETATM   20  H6  UNL     1      27.196   2.855  50.937  1.00  0.00     0.156 HD
ENDBRANCH  10  18
BRANCH  12  21
HETATM   21  C11 UNL     1      27.479  -0.739  52.729  1.00  0.00     0.011 C 
BRANCH  21  22
HETATM   22  C12 UNL     1      28.468  -0.413  53.774  1.00  0.00    -0.004 C 
HETATM   23  C13 UNL     1      29.888  -0.798  53.573  1.00  0.00     0.005 C 
ENDBRANCH  21  22
ENDBRANCH  12  21
ENDBRANCH   3   4
TORSDOF 4
ENDMDL
MODEL 4
REMARK VINA RESULT:      -7.4      3.424      6.888
REMARK  4 active torsions:
REMARK  status: ('A' for Active; 'I' for Inactive)
REMARK    1  A    between atoms: O1_3  and  C3_4 
REMARK    2  A    between atoms: C7_9  and  N2_10 
REMARK    3  A    between atoms: C10_13  and  C11_14 
REMARK    4  A    between atoms: C11_14  and  C12_15 
ROOT
HETATM    1  C1  UNL     1      17.070  -1.458  53.086  1.00  0.00     0.044 C 
HETATM    2  C2  UNL     1      18.041  -0.893  52.655  1.00  0.00     0.043 C 
HETATM    3  O1  UNL     1      19.156  -0.268  52.171  1.00  0.00    -0.295 OA
ENDROOT
BRANCH   3   4
HETATM    4  C3  UNL     1      20.300  -0.073  53.034  1.00  0.00     0.091 C 
HETATM    5  C4  UNL     1      20.386   1.023  52.198  1.00  0.00     0.165 C 
HETATM    6  C5  UNL     1      21.430   2.089  52.245  1.00  0.00     0.046 A 
HETATM    7  N1  UNL     1      20.754   3.137  52.006  1.00  0.00    -0.287 NA
HETATM    8  C8  UNL     1      22.831   2.462  52.431  1.00  0.00    -0.004 A 
HETATM    9  C6  UNL     1      21.526   4.360  51.988  1.00  0.00     0.206 A 
HETATM   10  C7  UNL     1      22.865   3.800  52.276  1.00  0.00     0.031 A 
HETATM   11  C9  UNL     1      23.844   1.451  52.723  1.00  0.00     0.041 C 
HETATM   12  C10 UNL     1      24.980   0.763  52.757  1.00  0.00    -0.024 C 
HETATM   13  C14 UNL     1      24.652  -0.490  53.579  1.00  0.00     0.013 C 
HETATM   14  C15 UNL     1      23.151  -0.333  53.793  1.00  0.00     0.027 C 
HETATM   15  C16 UNL     1      22.586  -1.420  54.615  1.00  0.00     0.167 C 
HETATM   16  O2  UNL     1      21.275  -1.267  54.898  1.00  0.00    -0.389 OA
HETATM   17  C17 UNL     1      20.309  -1.233  54.005  1.00  0.00     0.202 C 
BRANCH  10  18
HETATM   18  N2  UNL     1      23.975   4.647  52.360  1.00  0.00    -0.400 N 
HETATM   19  H5  UNL     1      24.768   4.348  51.746  1.00  0.00     0.156 HD
HETATM   20  H6  UNL     1      24.010   5.478  52.962  1.00  0.00     0.156 HD
ENDBRANCH  10  18
BRANCH  12  21
HETATM   21  C11 UNL     1      26.383   0.747  52.253  1.00  0.00     0.011 C 
BRANCH  21  22
HETATM   22  C12 UNL     1      26.990   2.040  51.884  1.00  0.00    -0.004 C 
HETATM   23  C13 UNL     1      26.540   2.726  50.647  1.00  0.00     0.005 C 
ENDBRANCH  21  22
ENDBRANCH  12  21
ENDBRANCH   3   4
TORSDOF 4
ENDMDL
MODEL 5
REMARK VINA RESULT:      -7.4      3.100      4.924
REMARK  4 active torsions:
REMARK  status: ('A' for Active; 'I' for Inactive)
REMARK    1  A    between atoms: O1_3  and  C3_4 
REMARK    2  A    between atoms: C7_9  and  N2_10 
REMARK    3  A    between atoms: C10_13  and  C11_14 
REMARK    4  A    between atoms: C11_14  and  C12_15 
ROOT
HETATM    1  C1  UNL     1      29.133   2.367  53.724  1.00  0.00     0.044 C 
HETATM    2  C2  UNL     1      27.941   2.392  53.889  1.00  0.00     0.043 C 
HETATM    3  O1  UNL     1      26.589   2.404  54.093  1.00  0.00    -0.295 OA
ENDROOT
BRANCH   3   4
HETATM    4  C3  UNL     1      25.814   1.212  53.830  1.00  0.00     0.091 C 
HETATM    5  C4  UNL     1      25.246   2.117  52.955  1.00  0.00     0.165 C 
HETATM    6  C5  UNL     1      24.120   1.847  52.013  1.00  0.00     0.046 A 
HETATM    7  N1  UNL     1      24.472   2.495  50.981  1.00  0.00    -0.287 NA
HETATM    8  C8  UNL     1      22.836   1.199  51.750  1.00  0.00    -0.004 A 
HETATM    9  C6  UNL     1      23.545   2.415  49.874  1.00  0.00     0.206 A 
HETATM   10  C7  UNL     1      22.517   1.546  50.487  1.00  0.00     0.031 A 
HETATM   11  C9  UNL     1      22.187   0.378  52.768  1.00  0.00     0.041 C 
HETATM   12  C10 UNL     1      21.276  -0.203  53.542  1.00  0.00    -0.024 C 
HETATM   13  C14 UNL     1      22.089  -1.028  54.548  1.00  0.00     0.013 C 
HETATM   14  C15 UNL     1      23.515  -0.619  54.200  1.00  0.00     0.027 C 
HETATM   15  C16 UNL     1      24.518  -1.326  55.021  1.00  0.00     0.167 C 
HETATM   16  O2  UNL     1      25.795  -1.052  54.680  1.00  0.00    -0.389 OA
HETATM   17  C17 UNL     1      26.355   0.135  54.746  1.00  0.00     0.202 C 
BRANCH  10  18
HETATM   18  N2  UNL     1      21.382   1.181  49.757  1.00  0.00    -0.400 N 
HETATM   19  H5  UNL     1      20.647   0.718  50.343  1.00  0.00     0.156 HD
HETATM   20  H6  UNL     1      21.277   1.348  48.750  1.00  0.00     0.156 HD
ENDBRANCH  10  18
BRANCH  12  21
HETATM   21  C11 UNL     1      19.812  -0.288  53.807  1.00  0.00     0.011 C 
BRANCH  21  22
HETATM   22  C12 UNL     1      18.920  -0.493  52.649  1.00  0.00    -0.004 C 
HETATM   23  C13 UNL     1      17.651  -1.240  52.835  1.00  0.00     0.005 C 
ENDBRANCH  21  22
ENDBRANCH  12  21
ENDBRANCH   3   4
TORSDOF 4
ENDMDL
MODEL 6
REMARK VINA RESULT:      -7.2      3.087      5.679
REMARK  4 active torsions:
REMARK  status: ('A' for Active; 'I' for Inactive)
REMARK    1  A    between atoms: O1_3  and  C3_4 
REMARK    2  A    between atoms: C7_9  and  N2_10 
REMARK    3  A    between atoms: C10_13  and  C11_14 
REMARK    4  A    between atoms: C11_14  and  C12_15 
ROOT
HETATM    1  C1  UNL     1      28.554  -1.040  53.202  1.00  0.00     0.044 C 
HETATM    2  C2  UNL     1      27.461  -0.895  53.685  1.00  0.00     0.043 C 
HETATM    3  O1  UNL     1      26.211  -0.734  54.213  1.00  0.00    -0.295 OA
ENDROOT
BRANCH   3   4
HETATM    4  C3  UNL     1      25.374   0.353  53.756  1.00  0.00     0.091 C 
HETATM    5  C4  UNL     1      24.460  -0.676  53.875  1.00  0.00     0.165 C 
HETATM    6  C5  UNL     1      22.998  -0.597  53.583  1.00  0.00     0.046 A 
HETATM    7  N1  UNL     1      22.500  -1.300  54.514  1.00  0.00    -0.287 NA
HETATM    8  C8  UNL     1      21.916  -0.096  52.737  1.00  0.00    -0.004 A 
HETATM    9  C6  UNL     1      21.059  -1.406  54.484  1.00  0.00     0.206 A 
HETATM   10  C7  UNL     1      20.785  -0.584  53.285  1.00  0.00     0.031 A 
HETATM   11  C9  UNL     1      22.197   0.749  51.580  1.00  0.00     0.041 C 
HETATM   12  C10 UNL     1      22.157   1.311  50.377  1.00  0.00    -0.024 C 
HETATM   13  C14 UNL     1      23.334   2.295  50.367  1.00  0.00     0.013 C 
HETATM   14  C15 UNL     1      24.001   1.989  51.703  1.00  0.00     0.027 C 
HETATM   15  C16 UNL     1      25.168   2.857  51.959  1.00  0.00     0.167 C 
HETATM   16  O2  UNL     1      25.730   2.673  53.172  1.00  0.00    -0.389 OA
HETATM   17  C17 UNL     1      26.281   1.553  53.587  1.00  0.00     0.202 C 
BRANCH  10  18
HETATM   18  N2  UNL     1      19.469  -0.392  52.852  1.00  0.00    -0.400 N 
HETATM   19  H5  UNL     1      18.763  -0.867  53.462  1.00  0.00     0.156 HD
HETATM   20  H6  UNL     1      19.219   0.157  52.022  1.00  0.00     0.156 HD
ENDBRANCH  10  18
BRANCH  12  21
HETATM   21  C11 UNL     1      21.444   1.284  49.069  1.00  0.00     0.011 C 
BRANCH  21  22
HETATM   22  C12 UNL     1      22.149   1.835  47.896  1.00  0.00    -0.004 C 
HETATM   23  C13 UNL     1      21.560   2.990  47.173  1.00  0.00     0.005 C 
ENDBRANCH  21  22
ENDBRANCH  12  21
ENDBRANCH   3   4
TORSDOF 4
ENDMDL
MODEL 7
REMARK VINA RESULT:      -7.1      2.256      4.529
REMARK  4 active torsions:
REMARK  status: ('A' for Active; 'I' for Inactive)
REMARK    1  A    between atoms: O1_3  and  C3_4 
REMARK    2  A    between atoms: C7_9  and  N2_10 
REMARK    3  A    between atoms: C10_13  and  C11_14 
REMARK    4  A    between atoms: C11_14  and  C12_15 
ROOT
HETATM    1  C1  UNL     1      21.635   6.912  50.450  1.00  0.00     0.044 C 
HETATM    2  C2  UNL     1      22.347   6.228  51.139  1.00  0.00     0.043 C 
HETATM    3  O1  UNL     1      23.173   5.456  51.907  1.00  0.00    -0.295 OA
ENDROOT
BRANCH   3   4
HETATM    4  C3  UNL     1      23.818   4.299  51.326  1.00  0.00     0.091 C 
HETATM    5  C4  UNL     1      22.953   3.716  52.232  1.00  0.00     0.165 C 
HETATM    6  C5  UNL     1      22.791   2.253  52.482  1.00  0.00     0.046 A 
HETATM    7  N1  UNL     1      21.536   2.145  52.638  1.00  0.00    -0.287 NA
HETATM    8  C8  UNL     1      23.402   0.933  52.627  1.00  0.00    -0.004 A 
HETATM    9  C6  UNL     1      21.076   0.800  52.903  1.00  0.00     0.206 A 
HETATM   10  C7  UNL     1      22.376   0.094  52.875  1.00  0.00     0.031 A 
HETATM   11  C9  UNL     1      24.845   0.755  52.495  1.00  0.00     0.041 C 
HETATM   12  C10 UNL     1      26.094   0.335  52.661  1.00  0.00    -0.024 C 
HETATM   13  C14 UNL     1      26.927   1.200  51.707  1.00  0.00     0.013 C 
HETATM   14  C15 UNL     1      25.879   2.177  51.185  1.00  0.00     0.027 C 
HETATM   15  C16 UNL     1      26.434   3.115  50.189  1.00  0.00     0.167 C 
HETATM   16  O2  UNL     1      25.515   3.937  49.641  1.00  0.00    -0.389 OA
HETATM   17  C17 UNL     1      24.803   4.823  50.304  1.00  0.00     0.202 C 
BRANCH  10  18
HETATM   18  N2  UNL     1      22.428  -1.287  53.088  1.00  0.00    -0.400 N 
HETATM   19  H5  UNL     1      23.364  -1.616  53.425  1.00  0.00     0.156 HD
HETATM   20  H6  UNL     1      21.632  -1.915  52.932  1.00  0.00     0.156 HD
ENDBRANCH  10  18
BRANCH  12  21
HETATM   21  C11 UNL     1      26.946  -0.597  53.454  1.00  0.00     0.011 C 
BRANCH  21  22
HETATM   22  C12 UNL     1      28.174  -0.048  54.062  1.00  0.00    -0.004 C 
HETATM   23  C13 UNL     1      29.481  -0.678  53.750  1.00  0.00     0.005 C 
ENDBRANCH  21  22
ENDBRANCH  12  21
ENDBRANCH   3   4
TORSDOF 4
ENDMDL
MODEL 8
REMARK VINA RESULT:      -7.0      2.572      5.197
REMARK  4 active torsions:
REMARK  status: ('A' for Active; 'I' for Inactive)
REMARK    1  A    between atoms: O1_3  and  C3_4 
REMARK    2  A    between atoms: C7_9  and  N2_10 
REMARK    3  A    between atoms: C10_13  and  C11_14 
REMARK    4  A    between atoms: C11_14  and  C12_15 
ROOT
HETATM    1  C1  UNL     1      29.357  -0.142  54.074  1.00  0.00     0.044 C 
HETATM    2  C2  UNL     1      28.323   0.440  54.273  1.00  0.00     0.043 C 
HETATM    3  O1  UNL     1      27.138   1.082  54.504  1.00  0.00    -0.295 OA
ENDROOT
BRANCH   3   4
HETATM    4  C3  UNL     1      25.966   0.721  53.738  1.00  0.00     0.091 C 
HETATM    5  C4  UNL     1      26.418   1.835  53.057  1.00  0.00     0.165 C 
HETATM    6  C5  UNL     1      25.791   2.443  51.846  1.00  0.00     0.046 A 
HETATM    7  N1  UNL     1      26.804   2.767  51.154  1.00  0.00    -0.287 NA
HETATM    8  C8  UNL     1      24.581   2.825  51.120  1.00  0.00    -0.004 A 
HETATM    9  C6  UNL     1      26.494   3.397  49.890  1.00  0.00     0.206 A 
HETATM   10  C7  UNL     1      25.017   3.383  49.974  1.00  0.00     0.031 A 
HETATM   11  C9  UNL     1      23.257   2.569  51.682  1.00  0.00     0.041 C 
HETATM   12  C10 UNL     1      21.979   2.682  52.025  1.00  0.00    -0.024 C 
HETATM   13  C14 UNL     1      21.702   1.458  52.907  1.00  0.00     0.013 C 
HETATM   14  C15 UNL     1      23.093   0.846  53.028  1.00  0.00     0.027 C 
HETATM   15  C16 UNL     1      23.090  -0.402  53.816  1.00  0.00     0.167 C 
HETATM   16  O2  UNL     1      24.290  -1.017  53.870  1.00  0.00    -0.389 OA
HETATM   17  C17 UNL     1      25.378  -0.505  54.402  1.00  0.00     0.202 C 
BRANCH  10  18
HETATM   18  N2  UNL     1      24.250   3.912  48.930  1.00  0.00    -0.400 N 
HETATM   19  H5  UNL     1      23.341   3.411  48.794  1.00  0.00     0.156 HD
HETATM   20  H6  UNL     1      24.548   4.708  48.355  1.00  0.00     0.156 HD
ENDBRANCH  10  18
BRANCH  12  21
HETATM   21  C11 UNL     1      20.785   3.568  51.912  1.00  0.00     0.011 C 
BRANCH  21  22
HETATM   22  C12 UNL     1      20.932   4.815  51.137  1.00  0.00    -0.004 C 
HETATM   23  C13 UNL     1      22.048   5.740  51.457  1.00  0.00     0.005 C 
ENDBRANCH  21  22
ENDBRANCH  12  21
ENDBRANCH   3   4
TORSDOF 4
ENDMDL
MODEL 9
REMARK VINA RESULT:      -6.8      1.652      1.931
REMARK  4 active torsions:
REMARK  status: ('A' for Active; 'I' for Inactive)
REMARK    1  A    between atoms: O1_3  and  C3_4 
REMARK    2  A    between atoms: C7_9  and  N2_10 
REMARK    3  A    between atoms: C10_13  and  C11_14 
REMARK    4  A    between atoms: C11_14  and  C12_15 
ROOT
HETATM    1  C1  UNL     1      24.429   6.737  48.341  1.00  0.00     0.044 C 
HETATM    2  C2  UNL     1      24.150   5.601  48.626  1.00  0.00     0.043 C 
HETATM    3  O1  UNL     1      23.812   4.318  48.954  1.00  0.00    -0.295 OA
ENDROOT
BRANCH   3   4
HETATM    4  C3  UNL     1      23.346   4.019  50.290  1.00  0.00     0.091 C 
HETATM    5  C4  UNL     1      24.502   3.266  50.219  1.00  0.00     0.165 C 
HETATM    6  C5  UNL     1      25.055   2.394  51.297  1.00  0.00     0.046 A 
HETATM    7  N1  UNL     1      26.303   2.606  51.200  1.00  0.00    -0.287 NA
HETATM    8  C8  UNL     1      24.820   1.435  52.376  1.00  0.00    -0.004 A 
HETATM    9  C6  UNL     1      27.113   1.872  52.147  1.00  0.00     0.206 A 
HETATM   10  C7  UNL     1      26.042   1.142  52.861  1.00  0.00     0.031 A 
HETATM   11  C9  UNL     1      23.466   1.004  52.714  1.00  0.00     0.041 C 
HETATM   12  C10 UNL     1      22.420   0.272  53.080  1.00  0.00    -0.024 C 
HETATM   13  C14 UNL     1      21.217   1.213  52.937  1.00  0.00     0.013 C 
HETATM   14  C15 UNL     1      21.863   2.445  52.314  1.00  0.00     0.027 C 
HETATM   15  C16 UNL     1      20.896   3.542  52.110  1.00  0.00     0.167 C 
HETATM   16  O2  UNL     1      21.452   4.679  51.641  1.00  0.00    -0.389 OA
HETATM   17  C17 UNL     1      22.064   4.799  50.483  1.00  0.00     0.202 C 
BRANCH  10  18
HETATM   18  N2  UNL     1      26.365   0.272  53.907  1.00  0.00    -0.400 N 
HETATM   19  H5  UNL     1      27.258   0.527  54.393  1.00  0.00     0.156 HD
HETATM   20  H6  UNL     1      25.788  -0.533  54.174  1.00  0.00     0.156 HD
ENDBRANCH  10  18
BRANCH  12  21
HETATM   21  C11 UNL     1      22.008  -1.097  53.502  1.00  0.00     0.011 C 
BRANCH  21  22
HETATM   22  C12 UNL     1      22.120  -1.430  54.935  1.00  0.00    -0.004 C 
HETATM   23  C13 UNL     1      23.443  -1.328  55.602  1.00  0.00     0.005 C 
ENDBRANCH  21  22
ENDBRANCH  12  21
ENDBRANCH   3   4
TORSDOF 4
ENDMDL
