MODEL 1
REMARK VINA RESULT:      -8.8      0.000      0.000
REMARK  7 active torsions:
REMARK  status: ('A' for Active; 'I' for Inactive)
REMARK    1  A    between atoms: C2_2  and  C3_3 
REMARK    2  A    between atoms: C3_3  and  C4_4 
REMARK    3  A    between atoms: C5_5  and  N1_6 
REMARK    4  A    between atoms: N1_6  and  C6_7 
REMARK    5  A    between atoms: C13_16  and  O1_17 
REMARK    6  A    between atoms: O1_17  and  C14_18 
REMARK    7  A    between atoms: C14_18  and  C15_19 
ROOT
HETATM    1  C6  UNL     1      20.755  -0.744  53.891  1.00  0.00     0.128 A 
HETATM    2  C7  UNL     1      21.127  -0.046  52.829  1.00  0.00     0.051 A 
HETATM    3  C8  UNL     1      22.407   0.459  52.329  1.00  0.00     0.014 A 
HETATM    4  C9  UNL     1      23.655   0.308  52.721  1.00  0.00    -0.020 A 
HETATM    5  C10 UNL     1      24.266  -0.430  53.821  1.00  0.00     0.067 A 
HETATM    6  N2  UNL     1      23.930  -1.107  54.847  1.00  0.00    -0.241 NA
HETATM    7  C11 UNL     1      22.658  -1.468  55.410  1.00  0.00     0.235 A 
HETATM    8  N3  UNL     1      21.439  -1.318  55.025  1.00  0.00    -0.225 NA
HETATM    9  C12 UNL     1      25.729  -0.467  53.851  1.00  0.00     0.066 C 
HETATM   10  C13 UNL     1      26.385   0.165  52.890  1.00  0.00     0.083 C 
HETATM   11  C16 UNL     1      25.860   0.939  51.732  1.00  0.00     0.290 C 
HETATM   12  C17 UNL     1      24.388   1.120  51.717  1.00  0.00     0.096 C 
HETATM   13  C18 UNL     1      24.657   2.549  52.146  1.00  0.00     0.258 C 
HETATM   14  C19 UNL     1      24.029   3.550  51.219  1.00  0.00     0.204 C 
HETATM   15  O3  UNL     1      24.584   3.570  49.968  1.00  0.00    -0.387 OA
HETATM   16  C20 UNL     1      25.916   3.893  50.037  1.00  0.00     0.198 C 
HETATM   17  C21 UNL     1      26.730   3.116  51.008  1.00  0.00     0.300 C 
HETATM   18  N4  UNL     1      26.040   2.335  51.960  1.00  0.00     0.109 N 
ENDROOT
BRANCH   1  19
HETATM   19  N1  UNL     1      19.366  -1.026  53.992  1.00  0.00    -0.351 N 
HETATM   20  H8  UNL     1      19.035  -0.713  54.952  1.00  0.00     0.166 HD
BRANCH  19  21
HETATM   21  C5  UNL     1      18.210  -1.540  53.386  1.00  0.00     0.086 C 
HETATM   22  C4  UNL     1      17.805  -2.763  53.727  1.00  0.00    -0.006 C 
BRANCH  22  23
HETATM   23  C3  UNL     1      16.603  -3.433  53.167  1.00  0.00     0.054 C 
BRANCH  23  24
HETATM   24  C2  UNL     1      16.610  -4.820  53.737  1.00  0.00    -0.033 C 
HETATM   25  C1  UNL     1      15.775  -5.529  54.492  1.00  0.00     0.007 C 
ENDBRANCH  23  24
ENDBRANCH  22  23
ENDBRANCH  19  21
ENDBRANCH   1  19
BRANCH  10  26
HETATM   26  O1  UNL     1      27.776   0.140  52.903  1.00  0.00    -0.346 OA
BRANCH  26  27
HETATM   27  C14 UNL     1      28.530  -0.307  53.992  1.00  0.00     0.244 C 
BRANCH  27  28
HETATM   28  C15 UNL     1      29.736  -1.004  53.411  1.00  0.00     0.257 C 
HETATM   29  O2  UNL     1      29.080  -1.995  53.608  1.00  0.00    -0.305 OA
ENDBRANCH  27  28
ENDBRANCH  26  27
ENDBRANCH  10  26
TORSDOF 7
ENDMDL
MODEL 2
REMARK VINA RESULT:      -8.2      3.429      8.840
REMARK  7 active torsions:
REMARK  status: ('A' for Active; 'I' for Inactive)
REMARK    1  A    between atoms: C2_2  and  C3_3 
REMARK    2  A    between atoms: C3_3  and  C4_4 
REMARK    3  A    between atoms: C5_5  and  N1_6 
REMARK    4  A    between atoms: N1_6  and  C6_7 
REMARK    5  A    between atoms: C13_16  and  O1_17 
REMARK    6  A    between atoms: O1_17  and  C14_18 
REMARK    7  A    between atoms: C14_18  and  C15_19 
ROOT
HETATM    1  C6  UNL     1      25.107   5.054  49.501  1.00  0.00     0.128 A 
HETATM    2  C7  UNL     1      26.150   4.313  49.847  1.00  0.00     0.051 A 
HETATM    3  C8  UNL     1      26.355   3.199  50.773  1.00  0.00     0.014 A 
HETATM    4  C9  UNL     1      25.543   2.480  51.519  1.00  0.00    -0.020 A 
HETATM    5  C10 UNL     1      24.098   2.508  51.723  1.00  0.00     0.067 A 
HETATM    6  N2  UNL     1      23.081   3.206  51.401  1.00  0.00    -0.241 NA
HETATM    7  C11 UNL     1      22.918   4.393  50.608  1.00  0.00     0.235 A 
HETATM    8  N3  UNL     1      23.715   5.095  49.879  1.00  0.00    -0.225 NA
HETATM    9  C12 UNL     1      23.533   1.439  52.547  1.00  0.00     0.066 C 
HETATM   10  C13 UNL     1      24.362   0.534  53.042  1.00  0.00     0.083 C 
HETATM   11  C16 UNL     1      25.838   0.415  52.893  1.00  0.00     0.290 C 
HETATM   12  C17 UNL     1      26.485   1.540  52.176  1.00  0.00     0.096 C 
HETATM   13  C18 UNL     1      26.976   1.997  53.536  1.00  0.00     0.258 C 
HETATM   14  C19 UNL     1      28.469   2.159  53.578  1.00  0.00     0.204 C 
HETATM   15  O3  UNL     1      29.158   0.982  53.462  1.00  0.00    -0.387 OA
HETATM   16  C20 UNL     1      28.834   0.132  54.489  1.00  0.00     0.198 C 
HETATM   17  C21 UNL     1      27.384  -0.080  54.734  1.00  0.00     0.300 C 
HETATM   18  N4  UNL     1      26.480   0.804  54.106  1.00  0.00     0.109 N 
ENDROOT
BRANCH   1  19
HETATM   19  N1  UNL     1      25.358   6.063  48.533  1.00  0.00    -0.351 N 
HETATM   20  H8  UNL     1      24.456   6.240  48.000  1.00  0.00     0.166 HD
BRANCH  19  21
HETATM   21  C5  UNL     1      26.275   6.949  47.950  1.00  0.00     0.086 C 
HETATM   22  C4  UNL     1      27.575   6.749  48.161  1.00  0.00    -0.006 C 
BRANCH  22  23
HETATM   23  C3  UNL     1      28.655   7.605  47.609  1.00  0.00     0.054 C 
BRANCH  23  24
HETATM   24  C2  UNL     1      29.875   6.734  47.555  1.00  0.00    -0.033 C 
HETATM   25  C1  UNL     1      30.162   5.495  47.943  1.00  0.00     0.007 C 
ENDBRANCH  23  24
ENDBRANCH  22  23
ENDBRANCH  19  21
ENDBRANCH   1  19
BRANCH  10  26
HETATM   26  O1  UNL     1      23.841  -0.491  53.827  1.00  0.00    -0.346 OA
BRANCH  26  27
HETATM   27  C14 UNL     1      22.584  -1.063  53.613  1.00  0.00     0.244 C 
BRANCH  27  28
HETATM   28  C15 UNL     1      21.778  -0.786  54.859  1.00  0.00     0.257 C 
HETATM   29  O2  UNL     1      22.278  -1.814  55.238  1.00  0.00    -0.305 OA
ENDBRANCH  27  28
ENDBRANCH  26  27
ENDBRANCH  10  26
TORSDOF 7
ENDMDL
MODEL 3
REMARK VINA RESULT:      -7.6      3.678      9.255
REMARK  7 active torsions:
REMARK  status: ('A' for Active; 'I' for Inactive)
REMARK    1  A    between atoms: C2_2  and  C3_3 
REMARK    2  A    between atoms: C3_3  and  C4_4 
REMARK    3  A    between atoms: C5_5  and  N1_6 
REMARK    4  A    between atoms: N1_6  and  C6_7 
REMARK    5  A    between atoms: C13_16  and  O1_17 
REMARK    6  A    between atoms: O1_17  and  C14_18 
REMARK    7  A    between atoms: C14_18  and  C15_19 
ROOT
HETATM    1  C6  UNL     1      26.291   3.608  49.795  1.00  0.00     0.128 A 
HETATM    2  C7  UNL     1      25.034   3.876  49.472  1.00  0.00     0.051 A 
HETATM    3  C8  UNL     1      23.733   3.351  49.887  1.00  0.00     0.014 A 
HETATM    4  C9  UNL     1      23.357   2.487  50.806  1.00  0.00    -0.020 A 
HETATM    5  C10 UNL     1      24.095   1.698  51.787  1.00  0.00     0.067 A 
HETATM    6  N2  UNL     1      25.296   1.428  52.116  1.00  0.00    -0.241 NA
HETATM    7  C11 UNL     1      26.572   1.838  51.597  1.00  0.00     0.235 A 
HETATM    8  N3  UNL     1      26.936   2.684  50.696  1.00  0.00    -0.225 NA
HETATM    9  C12 UNL     1      23.297   0.935  52.747  1.00  0.00     0.066 C 
HETATM   10  C13 UNL     1      21.979   1.013  52.658  1.00  0.00     0.083 C 
HETATM   11  C16 UNL     1      21.135   1.782  51.703  1.00  0.00     0.290 C 
HETATM   12  C17 UNL     1      21.883   2.475  50.626  1.00  0.00     0.096 C 
HETATM   13  C18 UNL     1      21.376   1.383  49.705  1.00  0.00     0.258 C 
HETATM   14  C19 UNL     1      20.646   1.937  48.514  1.00  0.00     0.204 C 
HETATM   15  O3  UNL     1      19.463   2.551  48.825  1.00  0.00    -0.387 OA
HETATM   16  C20 UNL     1      18.604   1.666  49.426  1.00  0.00     0.198 C 
HETATM   17  C21 UNL     1      19.155   0.884  50.563  1.00  0.00     0.300 C 
HETATM   18  N4  UNL     1      20.555   0.898  50.746  1.00  0.00     0.109 N 
ENDROOT
BRANCH   1  19
HETATM   19  N1  UNL     1      27.281   4.380  49.130  1.00  0.00    -0.351 N 
HETATM   20  H8  UNL     1      28.180   3.817  49.110  1.00  0.00     0.166 HD
BRANCH  19  21
HETATM   21  C5  UNL     1      27.614   5.574  48.474  1.00  0.00     0.086 C 
HETATM   22  C4  UNL     1      28.894   5.805  48.185  1.00  0.00    -0.006 C 
BRANCH  22  23
HETATM   23  C3  UNL     1      29.391   7.023  47.497  1.00  0.00     0.054 C 
BRANCH  23  24
HETATM   24  C2  UNL     1      30.798   7.216  47.981  1.00  0.00    -0.033 C 
HETATM   25  C1  UNL     1      31.360   7.853  49.005  1.00  0.00     0.007 C 
ENDBRANCH  23  24
ENDBRANCH  22  23
ENDBRANCH  19  21
ENDBRANCH   1  19
BRANCH  10  26
HETATM   26  O1  UNL     1      21.204   0.294  53.563  1.00  0.00    -0.346 OA
BRANCH  26  27
HETATM   27  C14 UNL     1      21.726  -0.329  54.700  1.00  0.00     0.244 C 
BRANCH  27  28
HETATM   28  C15 UNL     1      21.532  -1.812  54.494  1.00  0.00     0.257 C 
HETATM   29  O2  UNL     1      22.318  -1.896  55.402  1.00  0.00    -0.305 OA
ENDBRANCH  27  28
ENDBRANCH  26  27
ENDBRANCH  10  26
TORSDOF 7
ENDMDL
MODEL 4
REMARK VINA RESULT:      -7.6      3.359      8.319
REMARK  7 active torsions:
REMARK  status: ('A' for Active; 'I' for Inactive)
REMARK    1  A    between atoms: C2_2  and  C3_3 
REMARK    2  A    between atoms: C3_3  and  C4_4 
REMARK    3  A    between atoms: C5_5  and  N1_6 
REMARK    4  A    between atoms: N1_6  and  C6_7 
REMARK    5  A    between atoms: C13_16  and  O1_17 
REMARK    6  A    between atoms: O1_17  and  C14_18 
REMARK    7  A    between atoms: C14_18  and  C15_19 
ROOT
HETATM    1  C6  UNL     1      25.108   4.949  49.327  1.00  0.00     0.128 A 
HETATM    2  C7  UNL     1      26.173   4.268  49.723  1.00  0.00     0.051 A 
HETATM    3  C8  UNL     1      26.396   3.164  50.657  1.00  0.00     0.014 A 
HETATM    4  C9  UNL     1      25.590   2.398  51.363  1.00  0.00    -0.020 A 
HETATM    5  C10 UNL     1      24.139   2.345  51.497  1.00  0.00     0.067 A 
HETATM    6  N2  UNL     1      23.100   2.984  51.125  1.00  0.00    -0.241 NA
HETATM    7  C11 UNL     1      22.909   4.163  50.325  1.00  0.00     0.235 A 
HETATM    8  N3  UNL     1      23.699   4.910  49.637  1.00  0.00    -0.225 NA
HETATM    9  C12 UNL     1      23.595   1.242  52.292  1.00  0.00     0.066 C 
HETATM   10  C13 UNL     1      24.449   0.384  52.826  1.00  0.00     0.083 C 
HETATM   11  C16 UNL     1      25.935   0.350  52.750  1.00  0.00     0.290 C 
HETATM   12  C17 UNL     1      26.552   1.512  52.065  1.00  0.00     0.096 C 
HETATM   13  C18 UNL     1      26.949   1.992  53.447  1.00  0.00     0.258 C 
HETATM   14  C19 UNL     1      28.427   2.238  53.562  1.00  0.00     0.204 C 
HETATM   15  O3  UNL     1      29.185   1.102  53.480  1.00  0.00    -0.387 OA
HETATM   16  C20 UNL     1      28.861   0.232  54.489  1.00  0.00     0.198 C 
HETATM   17  C21 UNL     1      27.415  -0.062  54.664  1.00  0.00     0.300 C 
HETATM   18  N4  UNL     1      26.495   0.771  53.992  1.00  0.00     0.109 N 
ENDROOT
BRANCH   1  19
HETATM   19  N1  UNL     1      25.348   5.974  48.372  1.00  0.00    -0.351 N 
HETATM   20  H8  UNL     1      26.227   5.722  47.832  1.00  0.00     0.166 HD
BRANCH  19  21
HETATM   21  C5  UNL     1      24.941   7.193  47.809  1.00  0.00     0.086 C 
HETATM   22  C4  UNL     1      24.651   8.205  48.626  1.00  0.00    -0.006 C 
BRANCH  22  23
HETATM   23  C3  UNL     1      24.208   9.547  48.170  1.00  0.00     0.054 C 
BRANCH  23  24
HETATM   24  C2  UNL     1      22.713   9.543  48.293  1.00  0.00    -0.033 C 
HETATM   25  C1  UNL     1      21.846   9.087  49.194  1.00  0.00     0.007 C 
ENDBRANCH  23  24
ENDBRANCH  22  23
ENDBRANCH  19  21
ENDBRANCH   1  19
BRANCH  10  26
HETATM   26  O1  UNL     1      23.949  -0.670  53.585  1.00  0.00    -0.346 OA
BRANCH  26  27
HETATM   27  C14 UNL     1      22.800  -0.576  54.375  1.00  0.00     0.244 C 
BRANCH  27  28
HETATM   28  C15 UNL     1      21.914  -1.727  53.968  1.00  0.00     0.257 C 
HETATM   29  O2  UNL     1      21.579  -1.691  55.124  1.00  0.00    -0.305 OA
ENDBRANCH  27  28
ENDBRANCH  26  27
ENDBRANCH  10  26
TORSDOF 7
ENDMDL
MODEL 5
REMARK VINA RESULT:      -7.3      3.255      8.715
REMARK  7 active torsions:
REMARK  status: ('A' for Active; 'I' for Inactive)
REMARK    1  A    between atoms: C2_2  and  C3_3 
REMARK    2  A    between atoms: C3_3  and  C4_4 
REMARK    3  A    between atoms: C5_5  and  N1_6 
REMARK    4  A    between atoms: N1_6  and  C6_7 
REMARK    5  A    between atoms: C13_16  and  O1_17 
REMARK    6  A    between atoms: O1_17  and  C14_18 
REMARK    7  A    between atoms: C14_18  and  C15_19 
ROOT
HETATM    1  C6  UNL     1      24.704   5.508  49.482  1.00  0.00     0.128 A 
HETATM    2  C7  UNL     1      23.847   5.058  50.387  1.00  0.00     0.051 A 
HETATM    3  C8  UNL     1      23.824   3.916  51.302  1.00  0.00     0.014 A 
HETATM    4  C9  UNL     1      24.703   2.985  51.609  1.00  0.00    -0.020 A 
HETATM    5  C10 UNL     1      26.063   2.717  51.156  1.00  0.00     0.067 A 
HETATM    6  N2  UNL     1      26.904   3.136  50.294  1.00  0.00    -0.241 NA
HETATM    7  C11 UNL     1      26.854   4.167  49.295  1.00  0.00     0.235 A 
HETATM    8  N3  UNL     1      25.992   5.076  48.996  1.00  0.00    -0.225 NA
HETATM    9  C12 UNL     1      26.783   1.645  51.844  1.00  0.00     0.066 C 
HETATM   10  C13 UNL     1      26.156   1.002  52.816  1.00  0.00     0.083 C 
HETATM   11  C16 UNL     1      24.781   1.196  53.351  1.00  0.00     0.290 C 
HETATM   12  C17 UNL     1      23.957   2.183  52.611  1.00  0.00     0.096 C 
HETATM   13  C18 UNL     1      23.222   0.989  52.033  1.00  0.00     0.258 C 
HETATM   14  C19 UNL     1      21.740   1.063  52.269  1.00  0.00     0.204 C 
HETATM   15  O3  UNL     1      21.383   0.945  53.585  1.00  0.00    -0.387 OA
HETATM   16  C20 UNL     1      21.793  -0.263  54.089  1.00  0.00     0.198 C 
HETATM   17  C21 UNL     1      23.214  -0.625  53.852  1.00  0.00     0.300 C 
HETATM   18  N4  UNL     1      23.933   0.139  52.907  1.00  0.00     0.109 N 
ENDROOT
BRANCH   1  19
HETATM   19  N1  UNL     1      24.318   6.691  48.797  1.00  0.00    -0.351 N 
HETATM   20  H8  UNL     1      23.347   6.538  48.395  1.00  0.00     0.166 HD
BRANCH  19  21
HETATM   21  C5  UNL     1      24.646   7.996  48.402  1.00  0.00     0.086 C 
HETATM   22  C4  UNL     1      25.503   8.690  49.149  1.00  0.00    -0.006 C 
BRANCH  22  23
HETATM   23  C3  UNL     1      25.939  10.079  48.852  1.00  0.00     0.054 C 
BRANCH  23  24
HETATM   24  C2  UNL     1      27.413  10.108  49.128  1.00  0.00    -0.033 C 
HETATM   25  C1  UNL     1      28.497   9.679  48.488  1.00  0.00     0.007 C 
ENDBRANCH  23  24
ENDBRANCH  22  23
ENDBRANCH  19  21
ENDBRANCH   1  19
BRANCH  10  26
HETATM   26  O1  UNL     1      26.825  -0.021  53.481  1.00  0.00    -0.346 OA
BRANCH  26  27
HETATM   27  C14 UNL     1      27.363   0.116  54.764  1.00  0.00     0.244 C 
BRANCH  27  28
HETATM   28  C15 UNL     1      28.862   0.064  54.601  1.00  0.00     0.257 C 
HETATM   29  O2  UNL     1      28.817   1.128  55.162  1.00  0.00    -0.305 OA
ENDBRANCH  27  28
ENDBRANCH  26  27
ENDBRANCH  10  26
TORSDOF 7
ENDMDL
MODEL 6
REMARK VINA RESULT:      -7.3      3.432      9.806
REMARK  7 active torsions:
REMARK  status: ('A' for Active; 'I' for Inactive)
REMARK    1  A    between atoms: C2_2  and  C3_3 
REMARK    2  A    between atoms: C3_3  and  C4_4 
REMARK    3  A    between atoms: C5_5  and  N1_6 
REMARK    4  A    between atoms: N1_6  and  C6_7 
REMARK    5  A    between atoms: C13_16  and  O1_17 
REMARK    6  A    between atoms: O1_17  and  C14_18 
REMARK    7  A    between atoms: C14_18  and  C15_19 
ROOT
HETATM    1  C6  UNL     1      26.367   5.508  49.212  1.00  0.00     0.128 A 
HETATM    2  C7  UNL     1      26.703   4.235  49.361  1.00  0.00     0.051 A 
HETATM    3  C8  UNL     1      26.190   3.126  50.166  1.00  0.00     0.014 A 
HETATM    4  C9  UNL     1      25.146   2.987  50.955  1.00  0.00    -0.020 A 
HETATM    5  C10 UNL     1      24.072   3.894  51.348  1.00  0.00     0.067 A 
HETATM    6  N2  UNL     1      23.729   5.114  51.215  1.00  0.00    -0.241 NA
HETATM    7  C11 UNL     1      24.327   6.234  50.542  1.00  0.00     0.235 A 
HETATM    8  N3  UNL     1      25.350   6.366  49.771  1.00  0.00    -0.225 NA
HETATM    9  C12 UNL     1      22.994   3.321  52.156  1.00  0.00     0.066 C 
HETATM   10  C13 UNL     1      23.069   2.037  52.468  1.00  0.00     0.083 C 
HETATM   11  C16 UNL     1      24.112   1.034  52.120  1.00  0.00     0.290 C 
HETATM   12  C17 UNL     1      25.294   1.582  51.411  1.00  0.00     0.096 C 
HETATM   13  C18 UNL     1      26.033   1.426  52.725  1.00  0.00     0.258 C 
HETATM   14  C19 UNL     1      27.279   0.599  52.584  1.00  0.00     0.204 C 
HETATM   15  O3  UNL     1      27.040  -0.716  52.291  1.00  0.00    -0.387 OA
HETATM   16  C20 UNL     1      26.298  -1.304  53.284  1.00  0.00     0.198 C 
HETATM   17  C21 UNL     1      25.068  -0.582  53.700  1.00  0.00     0.300 C 
HETATM   18  N4  UNL     1      24.916   0.751  53.264  1.00  0.00     0.109 N 
ENDROOT
BRANCH   1  19
HETATM   19  N1  UNL     1      27.158   6.255  48.298  1.00  0.00    -0.351 N 
HETATM   20  H8  UNL     1      26.619   6.338  47.387  1.00  0.00     0.166 HD
BRANCH  19  21
HETATM   21  C5  UNL     1      28.353   6.945  48.049  1.00  0.00     0.086 C 
HETATM   22  C4  UNL     1      29.470   6.240  47.873  1.00  0.00    -0.006 C 
BRANCH  22  23
HETATM   23  C3  UNL     1      30.803   6.837  47.604  1.00  0.00     0.054 C 
BRANCH  23  24
HETATM   24  C2  UNL     1      31.430   7.049  48.950  1.00  0.00    -0.033 C 
HETATM   25  C1  UNL     1      31.969   8.088  49.582  1.00  0.00     0.007 C 
ENDBRANCH  23  24
ENDBRANCH  22  23
ENDBRANCH  19  21
ENDBRANCH   1  19
BRANCH  10  26
HETATM   26  O1  UNL     1      22.053   1.476  53.235  1.00  0.00    -0.346 OA
BRANCH  26  27
HETATM   27  C14 UNL     1      21.318   0.354  52.840  1.00  0.00     0.244 C 
BRANCH  27  28
HETATM   28  C15 UNL     1      19.983   0.873  52.363  1.00  0.00     0.257 C 
HETATM   29  O2  UNL     1      20.231   0.207  51.392  1.00  0.00    -0.305 OA
ENDBRANCH  27  28
ENDBRANCH  26  27
ENDBRANCH  10  26
TORSDOF 7
ENDMDL
MODEL 7
REMARK VINA RESULT:      -7.2      4.020     10.473
REMARK  7 active torsions:
REMARK  status: ('A' for Active; 'I' for Inactive)
REMARK    1  A    between atoms: C2_2  and  C3_3 
REMARK    2  A    between atoms: C3_3  and  C4_4 
REMARK    3  A    between atoms: C5_5  and  N1_6 
REMARK    4  A    between atoms: N1_6  and  C6_7 
REMARK    5  A    between atoms: C13_16  and  O1_17 
REMARK    6  A    between atoms: O1_17  and  C14_18 
REMARK    7  A    between atoms: C14_18  and  C15_19 
ROOT
HETATM    1  C6  UNL     1      27.456   5.997  48.558  1.00  0.00     0.128 A 
HETATM    2  C7  UNL     1      27.509   4.700  48.818  1.00  0.00     0.051 A 
HETATM    3  C8  UNL     1      26.686   3.774  49.598  1.00  0.00     0.014 A 
HETATM    4  C9  UNL     1      25.543   3.900  50.239  1.00  0.00    -0.020 A 
HETATM    5  C10 UNL     1      24.632   5.023  50.432  1.00  0.00     0.067 A 
HETATM    6  N2  UNL     1      24.559   6.272  50.190  1.00  0.00    -0.241 NA
HETATM    7  C11 UNL     1      25.451   7.201  49.551  1.00  0.00     0.235 A 
HETATM    8  N3  UNL     1      26.569   7.075  48.925  1.00  0.00    -0.225 NA
HETATM    9  C12 UNL     1      23.367   4.731  51.108  1.00  0.00     0.066 C 
HETATM   10  C13 UNL     1      23.143   3.485  51.493  1.00  0.00     0.083 C 
HETATM   11  C16 UNL     1      23.999   2.277  51.345  1.00  0.00     0.290 C 
HETATM   12  C17 UNL     1      25.347   2.532  50.782  1.00  0.00     0.096 C 
HETATM   13  C18 UNL     1      25.867   2.340  52.193  1.00  0.00     0.258 C 
HETATM   14  C19 UNL     1      26.930   1.281  52.270  1.00  0.00     0.204 C 
HETATM   15  O3  UNL     1      26.471   0.017  52.014  1.00  0.00    -0.387 OA
HETATM   16  C20 UNL     1      25.507  -0.340  52.921  1.00  0.00     0.198 C 
HETATM   17  C21 UNL     1      24.403   0.635  53.124  1.00  0.00     0.300 C 
HETATM   18  N4  UNL     1      24.578   1.935  52.603  1.00  0.00     0.109 N 
ENDROOT
BRANCH   1  19
HETATM   19  N1  UNL     1      28.490   6.506  47.728  1.00  0.00    -0.351 N 
HETATM   20  H8  UNL     1      28.092   6.645  46.753  1.00  0.00     0.166 HD
BRANCH  19  21
HETATM   21  C5  UNL     1      29.827   6.915  47.610  1.00  0.00     0.086 C 
HETATM   22  C4  UNL     1      30.748   6.000  47.312  1.00  0.00    -0.006 C 
BRANCH  22  23
HETATM   23  C3  UNL     1      32.196   6.290  47.158  1.00  0.00     0.054 C 
BRANCH  23  24
HETATM   24  C2  UNL     1      32.910   5.167  47.849  1.00  0.00    -0.033 C 
HETATM   25  C1  UNL     1      33.024   3.857  47.642  1.00  0.00     0.007 C 
ENDBRANCH  23  24
ENDBRANCH  22  23
ENDBRANCH  19  21
ENDBRANCH   1  19
BRANCH  10  26
HETATM   26  O1  UNL     1      21.945   3.190  52.137  1.00  0.00    -0.346 OA
BRANCH  26  27
HETATM   27  C14 UNL     1      20.721   3.771  51.794  1.00  0.00     0.244 C 
BRANCH  27  28
HETATM   28  C15 UNL     1      19.685   2.682  51.932  1.00  0.00     0.257 C 
HETATM   29  O2  UNL     1      18.957   3.605  52.191  1.00  0.00    -0.305 OA
ENDBRANCH  27  28
ENDBRANCH  26  27
ENDBRANCH  10  26
TORSDOF 7
ENDMDL
MODEL 8
REMARK VINA RESULT:      -7.2      3.546      7.900
REMARK  7 active torsions:
REMARK  status: ('A' for Active; 'I' for Inactive)
REMARK    1  A    between atoms: C2_2  and  C3_3 
REMARK    2  A    between atoms: C3_3  and  C4_4 
REMARK    3  A    between atoms: C5_5  and  N1_6 
REMARK    4  A    between atoms: N1_6  and  C6_7 
REMARK    5  A    between atoms: C13_16  and  O1_17 
REMARK    6  A    between atoms: O1_17  and  C14_18 
REMARK    7  A    between atoms: C14_18  and  C15_19 
ROOT
HETATM    1  C6  UNL     1      24.385   5.684  49.721  1.00  0.00     0.128 A 
HETATM    2  C7  UNL     1      23.623   5.146  50.662  1.00  0.00     0.051 A 
HETATM    3  C8  UNL     1      23.729   3.962  51.516  1.00  0.00     0.014 A 
HETATM    4  C9  UNL     1      24.674   3.066  51.709  1.00  0.00    -0.020 A 
HETATM    5  C10 UNL     1      26.008   2.894  51.142  1.00  0.00     0.067 A 
HETATM    6  N2  UNL     1      26.758   3.398  50.243  1.00  0.00    -0.241 NA
HETATM    7  C11 UNL     1      26.579   4.472  49.305  1.00  0.00     0.235 A 
HETATM    8  N3  UNL     1      25.652   5.346  49.118  1.00  0.00    -0.225 NA
HETATM    9  C12 UNL     1      26.831   1.830  51.718  1.00  0.00     0.066 C 
HETATM   10  C13 UNL     1      26.314   1.109  52.699  1.00  0.00     0.083 C 
HETATM   11  C16 UNL     1      24.976   1.203  53.344  1.00  0.00     0.290 C 
HETATM   12  C17 UNL     1      24.049   2.177  52.720  1.00  0.00     0.096 C 
HETATM   13  C18 UNL     1      23.333   0.975  52.137  1.00  0.00     0.258 C 
HETATM   14  C19 UNL     1      21.872   0.957  52.486  1.00  0.00     0.204 C 
HETATM   15  O3  UNL     1      21.623   0.757  53.817  1.00  0.00    -0.387 OA
HETATM   16  C20 UNL     1      22.131  -0.450  54.226  1.00  0.00     0.198 C 
HETATM   17  C21 UNL     1      23.546  -0.723  53.865  1.00  0.00     0.300 C 
HETATM   18  N4  UNL     1      24.151   0.123  52.911  1.00  0.00     0.109 N 
ENDROOT
BRANCH   1  19
HETATM   19  N1  UNL     1      23.888   6.876  49.128  1.00  0.00    -0.351 N 
HETATM   20  H8  UNL     1      24.717   7.440  48.778  1.00  0.00     0.166 HD
BRANCH  19  21
HETATM   21  C5  UNL     1      22.777   7.661  48.789  1.00  0.00     0.086 C 
HETATM   22  C4  UNL     1      21.982   8.094  49.768  1.00  0.00    -0.006 C 
BRANCH  22  23
HETATM   23  C3  UNL     1      20.773   8.929  49.556  1.00  0.00     0.054 C 
BRANCH  23  24
HETATM   24  C2  UNL     1      21.268  10.213  48.958  1.00  0.00    -0.033 C 
HETATM   25  C1  UNL     1      20.786  11.086  48.077  1.00  0.00     0.007 C 
ENDBRANCH  23  24
ENDBRANCH  22  23
ENDBRANCH  19  21
ENDBRANCH   1  19
BRANCH  10  26
HETATM   26  O1  UNL     1      27.083   0.093  53.259  1.00  0.00    -0.346 OA
BRANCH  26  27
HETATM   27  C14 UNL     1      27.475   0.072  54.601  1.00  0.00     0.244 C 
BRANCH  27  28
HETATM   28  C15 UNL     1      28.983   0.126  54.600  1.00  0.00     0.257 C 
HETATM   29  O2  UNL     1      28.804   1.181  55.151  1.00  0.00    -0.305 OA
ENDBRANCH  27  28
ENDBRANCH  26  27
ENDBRANCH  10  26
TORSDOF 7
ENDMDL
MODEL 9
REMARK VINA RESULT:      -7.1      4.156     10.671
REMARK  7 active torsions:
REMARK  status: ('A' for Active; 'I' for Inactive)
REMARK    1  A    between atoms: C2_2  and  C3_3 
REMARK    2  A    between atoms: C3_3  and  C4_4 
REMARK    3  A    between atoms: C5_5  and  N1_6 
REMARK    4  A    between atoms: N1_6  and  C6_7 
REMARK    5  A    between atoms: C13_16  and  O1_17 
REMARK    6  A    between atoms: O1_17  and  C14_18 
REMARK    7  A    between atoms: C14_18  and  C15_19 
ROOT
HETATM    1  C6  UNL     1      27.318   5.995  48.636  1.00  0.00     0.128 A 
HETATM    2  C7  UNL     1      27.406   4.691  48.852  1.00  0.00     0.051 A 
HETATM    3  C8  UNL     1      26.642   3.728  49.645  1.00  0.00     0.014 A 
HETATM    4  C9  UNL     1      25.533   3.812  50.350  1.00  0.00    -0.020 A 
HETATM    5  C10 UNL     1      24.615   4.912  50.626  1.00  0.00     0.067 A 
HETATM    6  N2  UNL     1      24.508   6.167  50.427  1.00  0.00    -0.241 NA
HETATM    7  C11 UNL     1      25.349   7.131  49.772  1.00  0.00     0.235 A 
HETATM    8  N3  UNL     1      26.434   7.045  49.083  1.00  0.00    -0.225 NA
HETATM    9  C12 UNL     1      23.393   4.577  51.359  1.00  0.00     0.066 C 
HETATM   10  C13 UNL     1      23.211   3.316  51.716  1.00  0.00     0.083 C 
HETATM   11  C16 UNL     1      24.079   2.128  51.485  1.00  0.00     0.290 C 
HETATM   12  C17 UNL     1      25.390   2.425  50.859  1.00  0.00     0.096 C 
HETATM   13  C18 UNL     1      25.987   2.200  52.234  1.00  0.00     0.258 C 
HETATM   14  C19 UNL     1      27.071   1.159  52.221  1.00  0.00     0.204 C 
HETATM   15  O3  UNL     1      26.620  -0.105  51.950  1.00  0.00    -0.387 OA
HETATM   16  C20 UNL     1      25.712  -0.507  52.896  1.00  0.00     0.198 C 
HETATM   17  C21 UNL     1      24.605   0.441  53.187  1.00  0.00     0.300 C 
HETATM   18  N4  UNL     1      24.729   1.759  52.699  1.00  0.00     0.109 N 
ENDROOT
BRANCH   1  19
HETATM   19  N1  UNL     1      28.297   6.548  47.768  1.00  0.00    -0.351 N 
HETATM   20  H8  UNL     1      28.028   6.306  46.770  1.00  0.00     0.166 HD
BRANCH  19  21
HETATM   21  C5  UNL     1      29.484   7.283  47.630  1.00  0.00     0.086 C 
HETATM   22  C4  UNL     1      29.824   8.129  48.601  1.00  0.00    -0.006 C 
BRANCH  22  23
HETATM   23  C3  UNL     1      31.048   8.971  48.587  1.00  0.00     0.054 C 
BRANCH  23  24
HETATM   24  C2  UNL     1      30.697  10.208  49.359  1.00  0.00    -0.033 C 
HETATM   25  C1  UNL     1      30.653  11.508  49.079  1.00  0.00     0.007 C 
ENDBRANCH  23  24
ENDBRANCH  22  23
ENDBRANCH  19  21
ENDBRANCH   1  19
BRANCH  10  26
HETATM   26  O1  UNL     1      22.055   2.979  52.413  1.00  0.00    -0.346 OA
BRANCH  26  27
HETATM   27  C14 UNL     1      20.817   3.590  52.195  1.00  0.00     0.244 C 
BRANCH  27  28
HETATM   28  C15 UNL     1      20.106   2.746  51.166  1.00  0.00     0.257 C 
HETATM   29  O2  UNL     1      19.818   3.816  50.695  1.00  0.00    -0.305 OA
ENDBRANCH  27  28
ENDBRANCH  26  27
ENDBRANCH  10  26
TORSDOF 7
ENDMDL
