MODEL 1
REMARK VINA RESULT:      -7.6      0.000      0.000
REMARK  3 active torsions:
REMARK  status: ('A' for Active; 'I' for Inactive)
REMARK    1  A    between atoms: C5_5  and  S1_6 
REMARK    2  A    between atoms: S1_6  and  N1_9 
REMARK       I    between atoms: N1_9  and  C6_10 
REMARK    3  A    between atoms: C6_10  and  C7_12 
ROOT
HETATM    1  N1  UNL     1      23.173  -0.426  53.618  1.00  0.00    -0.246 N 
HETATM    2  C6  UNL     1      24.169  -0.836  54.544  1.00  0.00     0.266 C 
HETATM    3  O3  UNL     1      23.754  -1.288  55.643  1.00  0.00    -0.267 OA
HETATM    4  H6  UNL     1      23.387  -0.035  52.673  1.00  0.00     0.182 HD
ENDROOT
BRANCH   1   5
HETATM    5  S1  UNL     1      21.471  -0.438  53.733  1.00  0.00     0.263 S 
HETATM    6  O1  UNL     1      20.989   0.375  54.924  1.00  0.00    -0.200 OA
HETATM    7  O2  UNL     1      20.978  -1.834  53.967  1.00  0.00    -0.200 OA
BRANCH   5   8
HETATM    8  C5  UNL     1      20.687   0.159  52.311  1.00  0.00     0.076 A 
HETATM    9  C4  UNL     1      19.380   0.121  52.052  1.00  0.00     0.023 A 
HETATM   10  C3  UNL     1      19.122   0.725  50.750  1.00  0.00     0.005 A 
HETATM   11  C2  UNL     1      20.289   1.114  50.254  1.00  0.00    -0.064 A 
HETATM   12  C1  UNL     1      20.319   1.764  48.929  1.00  0.00     0.045 C 
HETATM   13  C12 UNL     1      21.416   0.805  51.173  1.00  0.00     0.132 A 
HETATM   14 BR1  UNL     1      22.128   2.500  51.765  1.00  0.00    -0.081 Br
ENDBRANCH   5   8
ENDBRANCH   1   5
BRANCH   2  15
HETATM   15  C7  UNL     1      25.576  -0.717  54.188  1.00  0.00     0.050 A 
HETATM   16  C8  UNL     1      26.174  -1.107  53.008  1.00  0.00     0.022 A 
HETATM   17  C9  UNL     1      27.529  -0.933  52.806  1.00  0.00     0.045 A 
HETATM   18  C10 UNL     1      28.326  -0.359  53.788  1.00  0.00     0.125 A 
HETATM   19 CL1  UNL     1      30.047  -0.149  53.504  1.00  0.00    -0.062 Cl
HETATM   20  N2  UNL     1      27.739   0.024  54.946  1.00  0.00    -0.248 NA
HETATM   21  C11 UNL     1      26.408  -0.144  55.155  1.00  0.00     0.135 A 
ENDBRANCH   2  15
TORSDOF 3
ENDMDL
MODEL 2
REMARK VINA RESULT:      -7.5      6.313      8.174
REMARK  3 active torsions:
REMARK  status: ('A' for Active; 'I' for Inactive)
REMARK    1  A    between atoms: C5_5  and  S1_6 
REMARK    2  A    between atoms: S1_6  and  N1_9 
REMARK       I    between atoms: N1_9  and  C6_10 
REMARK    3  A    between atoms: C6_10  and  C7_12 
ROOT
HETATM    1  N1  UNL     1      25.977   3.756  51.043  1.00  0.00    -0.246 N 
HETATM    2  C6  UNL     1      26.607   3.738  49.771  1.00  0.00     0.266 C 
HETATM    3  O3  UNL     1      26.944   2.607  49.333  1.00  0.00    -0.267 OA
HETATM    4  H6  UNL     1      25.651   4.629  51.516  1.00  0.00     0.182 HD
ENDROOT
BRANCH   1   5
HETATM    5  S1  UNL     1      25.584   2.484  52.111  1.00  0.00     0.263 S 
HETATM    6  O1  UNL     1      24.656   1.475  51.456  1.00  0.00    -0.200 OA
HETATM    7  O2  UNL     1      24.835   3.017  53.296  1.00  0.00    -0.200 OA
BRANCH   5   8
HETATM    8  C5  UNL     1      26.972   1.643  52.710  1.00  0.00     0.076 A 
HETATM    9  C4  UNL     1      28.036   2.188  53.298  1.00  0.00     0.023 A 
HETATM   10  C3  UNL     1      28.986   1.142  53.657  1.00  0.00     0.005 A 
HETATM   11  C2  UNL     1      28.466  -0.016  53.273  1.00  0.00    -0.064 A 
HETATM   12  C1  UNL     1      29.229  -1.256  53.517  1.00  0.00     0.045 C 
HETATM   13  C12 UNL     1      27.137   0.155  52.630  1.00  0.00     0.132 A 
HETATM   14 BR1  UNL     1      25.846  -0.683  53.795  1.00  0.00    -0.081 Br
ENDBRANCH   5   8
ENDBRANCH   1   5
BRANCH   2  15
HETATM   15  C7  UNL     1      26.827   4.989  49.058  1.00  0.00     0.050 A 
HETATM   16  C8  UNL     1      28.008   5.438  48.504  1.00  0.00     0.022 A 
HETATM   17  C9  UNL     1      28.071   6.654  47.854  1.00  0.00     0.045 A 
HETATM   18  C10 UNL     1      26.945   7.458  47.741  1.00  0.00     0.125 A 
HETATM   19 CL1  UNL     1      27.053   9.002  46.907  1.00  0.00    -0.062 Cl
HETATM   20  N2  UNL     1      25.786   7.019  48.285  1.00  0.00    -0.248 NA
HETATM   21  C11 UNL     1      25.714   5.824  48.927  1.00  0.00     0.135 A 
ENDBRANCH   2  15
TORSDOF 3
ENDMDL
MODEL 3
REMARK VINA RESULT:      -7.4      1.564      1.817
REMARK  3 active torsions:
REMARK  status: ('A' for Active; 'I' for Inactive)
REMARK    1  A    between atoms: C5_5  and  S1_6 
REMARK    2  A    between atoms: S1_6  and  N1_9 
REMARK       I    between atoms: N1_9  and  C6_10 
REMARK    3  A    between atoms: C6_10  and  C7_12 
ROOT
HETATM    1  N1  UNL     1      23.166  -0.612  53.660  1.00  0.00    -0.246 N 
HETATM    2  C6  UNL     1      24.171   0.369  53.446  1.00  0.00     0.266 C 
HETATM    3  O3  UNL     1      23.769   1.548  53.271  1.00  0.00    -0.267 OA
HETATM    4  H6  UNL     1      23.369  -1.624  53.818  1.00  0.00     0.182 HD
ENDROOT
BRANCH   1   5
HETATM    5  S1  UNL     1      21.466  -0.471  53.721  1.00  0.00     0.263 S 
HETATM    6  O1  UNL     1      21.023   0.409  54.877  1.00  0.00    -0.200 OA
HETATM    7  O2  UNL     1      20.846  -1.813  53.970  1.00  0.00    -0.200 OA
BRANCH   5   8
HETATM    8  C5  UNL     1      20.781   0.156  52.262  1.00  0.00     0.076 A 
HETATM    9  C4  UNL     1      21.366   0.197  51.065  1.00  0.00     0.023 A 
HETATM   10  C3  UNL     1      20.458   0.799  50.097  1.00  0.00     0.005 A 
HETATM   11  C2  UNL     1      19.340   1.109  50.740  1.00  0.00    -0.064 A 
HETATM   12  C1  UNL     1      18.238   1.742  49.989  1.00  0.00     0.045 C 
HETATM   13  C12 UNL     1      19.405   0.744  52.179  1.00  0.00     0.132 A 
HETATM   14 BR1  UNL     1      18.106  -0.658  52.454  1.00  0.00    -0.081 Br
ENDBRANCH   5   8
ENDBRANCH   1   5
BRANCH   2  15
HETATM   15  C7  UNL     1      25.573  -0.027  53.442  1.00  0.00     0.050 A 
HETATM   16  C8  UNL     1      26.142  -1.074  52.749  1.00  0.00     0.022 A 
HETATM   17  C9  UNL     1      27.495  -1.336  52.839  1.00  0.00     0.045 A 
HETATM   18  C10 UNL     1      28.319  -0.548  53.633  1.00  0.00     0.125 A 
HETATM   19 CL1  UNL     1      30.038  -0.903  53.730  1.00  0.00    -0.062 Cl
HETATM   20  N2  UNL     1      27.761   0.480  54.313  1.00  0.00    -0.248 NA
HETATM   21  C11 UNL     1      26.431   0.745  54.231  1.00  0.00     0.135 A 
ENDBRANCH   2  15
TORSDOF 3
ENDMDL
MODEL 4
REMARK VINA RESULT:      -7.2      6.430      7.080
REMARK  3 active torsions:
REMARK  status: ('A' for Active; 'I' for Inactive)
REMARK    1  A    between atoms: C5_5  and  S1_6 
REMARK    2  A    between atoms: S1_6  and  N1_9 
REMARK       I    between atoms: N1_9  and  C6_10 
REMARK    3  A    between atoms: C6_10  and  C7_12 
ROOT
HETATM    1  N1  UNL     1      26.328   3.677  50.690  1.00  0.00    -0.246 N 
HETATM    2  C6  UNL     1      25.770   2.642  51.487  1.00  0.00     0.266 C 
HETATM    3  O3  UNL     1      24.520   2.659  51.626  1.00  0.00    -0.267 OA
HETATM    4  H6  UNL     1      27.351   3.773  50.499  1.00  0.00     0.182 HD
ENDROOT
BRANCH   1   5
HETATM    5  S1  UNL     1      25.585   4.973  49.866  1.00  0.00     0.263 S 
HETATM    6  O1  UNL     1      24.823   5.875  50.822  1.00  0.00    -0.200 OA
HETATM    7  O2  UNL     1      24.565   4.452  48.897  1.00  0.00    -0.200 OA
BRANCH   5   8
HETATM    8  C5  UNL     1      26.703   5.944  48.971  1.00  0.00     0.076 A 
HETATM    9  C4  UNL     1      27.841   5.531  48.414  1.00  0.00     0.023 A 
HETATM   10  C3  UNL     1      28.496   6.652  47.751  1.00  0.00     0.005 A 
HETATM   11  C2  UNL     1      27.730   7.720  47.927  1.00  0.00    -0.064 A 
HETATM   12  C1  UNL     1      28.162   9.010  47.353  1.00  0.00     0.045 C 
HETATM   13  C12 UNL     1      26.510   7.408  48.716  1.00  0.00     0.132 A 
HETATM   14 BR1  UNL     1      25.006   7.645  47.529  1.00  0.00    -0.081 Br
ENDBRANCH   5   8
ENDBRANCH   1   5
BRANCH   2  15
HETATM   15  C7  UNL     1      26.646   1.643  52.086  1.00  0.00     0.050 A 
HETATM   16  C8  UNL     1      26.492   0.273  52.056  1.00  0.00     0.022 A 
HETATM   17  C9  UNL     1      27.406  -0.559  52.671  1.00  0.00     0.045 A 
HETATM   18  C10 UNL     1      28.506  -0.036  53.338  1.00  0.00     0.125 A 
HETATM   19 CL1  UNL     1      29.654  -1.118  54.113  1.00  0.00    -0.062 Cl
HETATM   20  N2  UNL     1      28.657   1.309  53.368  1.00  0.00    -0.248 NA
HETATM   21  C11 UNL     1      27.763   2.135  52.766  1.00  0.00     0.135 A 
ENDBRANCH   2  15
TORSDOF 3
ENDMDL
MODEL 5
REMARK VINA RESULT:      -7.0      4.957      5.438
REMARK  3 active torsions:
REMARK  status: ('A' for Active; 'I' for Inactive)
REMARK    1  A    between atoms: C5_5  and  S1_6 
REMARK    2  A    between atoms: S1_6  and  N1_9 
REMARK       I    between atoms: N1_9  and  C6_10 
REMARK    3  A    between atoms: C6_10  and  C7_12 
ROOT
HETATM    1  N1  UNL     1      25.090   3.186  51.905  1.00  0.00    -0.246 N 
HETATM    2  C6  UNL     1      24.966   1.985  52.653  1.00  0.00     0.266 C 
HETATM    3  O3  UNL     1      23.815   1.712  53.082  1.00  0.00    -0.267 OA
HETATM    4  H6  UNL     1      25.990   3.523  51.496  1.00  0.00     0.182 HD
ENDROOT
BRANCH   1   5
HETATM    5  S1  UNL     1      23.925   4.356  51.474  1.00  0.00     0.263 S 
HETATM    6  O1  UNL     1      23.228   4.924  52.700  1.00  0.00    -0.200 OA
HETATM    7  O2  UNL     1      22.844   3.728  50.646  1.00  0.00    -0.200 OA
BRANCH   5   8
HETATM    8  C5  UNL     1      24.583   5.670  50.561  1.00  0.00     0.076 A 
HETATM    9  C4  UNL     1      24.706   6.934  50.967  1.00  0.00     0.023 A 
HETATM   10  C3  UNL     1      25.308   7.732  49.905  1.00  0.00     0.005 A 
HETATM   11  C2  UNL     1      25.534   6.922  48.880  1.00  0.00    -0.064 A 
HETATM   12  C1  UNL     1      26.145   7.477  47.655  1.00  0.00     0.045 C 
HETATM   13  C12 UNL     1      25.106   5.528  49.164  1.00  0.00     0.132 A 
HETATM   14 BR1  UNL     1      26.710   4.453  49.201  1.00  0.00    -0.081 Br
ENDBRANCH   5   8
ENDBRANCH   1   5
BRANCH   2  15
HETATM   15  C7  UNL     1      26.141   1.154  52.879  1.00  0.00     0.050 A 
HETATM   16  C8  UNL     1      26.273  -0.194  52.617  1.00  0.00     0.022 A 
HETATM   17  C9  UNL     1      27.453  -0.858  52.885  1.00  0.00     0.045 A 
HETATM   18  C10 UNL     1      28.540  -0.185  53.426  1.00  0.00     0.125 A 
HETATM   19 CL1  UNL     1      30.031  -1.055  53.756  1.00  0.00    -0.062 Cl
HETATM   20  N2  UNL     1      28.411   1.137  53.684  1.00  0.00    -0.248 NA
HETATM   21  C11 UNL     1      27.254   1.800  53.425  1.00  0.00     0.135 A 
ENDBRANCH   2  15
TORSDOF 3
ENDMDL
MODEL 6
REMARK VINA RESULT:      -7.0      2.701      3.194
REMARK  3 active torsions:
REMARK  status: ('A' for Active; 'I' for Inactive)
REMARK    1  A    between atoms: C5_5  and  S1_6 
REMARK    2  A    between atoms: S1_6  and  N1_9 
REMARK       I    between atoms: N1_9  and  C6_10 
REMARK    3  A    between atoms: C6_10  and  C7_12 
ROOT
HETATM    1  N1  UNL     1      24.302   1.052  52.209  1.00  0.00    -0.246 N 
HETATM    2  C6  UNL     1      25.624   1.555  52.077  1.00  0.00     0.266 C 
HETATM    3  O3  UNL     1      25.734   2.697  51.559  1.00  0.00    -0.267 OA
HETATM    4  H6  UNL     1      24.076   0.119  52.622  1.00  0.00     0.182 HD
ENDROOT
BRANCH   1   5
HETATM    5  S1  UNL     1      22.799   1.737  51.779  1.00  0.00     0.263 S 
HETATM    6  O1  UNL     1      22.683   1.920  50.275  1.00  0.00    -0.200 OA
HETATM    7  O2  UNL     1      22.670   3.110  52.368  1.00  0.00    -0.200 OA
BRANCH   5   8
HETATM    8  C5  UNL     1      21.445   0.808  52.324  1.00  0.00     0.076 A 
HETATM    9  C4  UNL     1      21.378   0.087  53.443  1.00  0.00     0.023 A 
HETATM   10  C3  UNL     1      20.067  -0.545  53.539  1.00  0.00     0.005 A 
HETATM   11  C2  UNL     1      19.374  -0.186  52.467  1.00  0.00    -0.064 A 
HETATM   12  C1  UNL     1      17.996  -0.692  52.308  1.00  0.00     0.045 C 
HETATM   13  C12 UNL     1      20.153   0.707  51.571  1.00  0.00     0.132 A 
HETATM   14 BR1  UNL     1      19.274   2.426  51.600  1.00  0.00    -0.081 Br
ENDBRANCH   5   8
ENDBRANCH   1   5
BRANCH   2  15
HETATM   15  C7  UNL     1      26.749   0.751  52.533  1.00  0.00     0.050 A 
HETATM   16  C8  UNL     1      26.843  -0.625  52.541  1.00  0.00     0.022 A 
HETATM   17  C9  UNL     1      27.978  -1.258  53.006  1.00  0.00     0.045 A 
HETATM   18  C10 UNL     1      29.058  -0.523  53.478  1.00  0.00     0.125 A 
HETATM   19 CL1  UNL     1      30.491  -1.354  54.064  1.00  0.00    -0.062 Cl
HETATM   20  N2  UNL     1      28.967   0.827  53.470  1.00  0.00    -0.248 NA
HETATM   21  C11 UNL     1      27.854   1.459  53.016  1.00  0.00     0.135 A 
ENDBRANCH   2  15
TORSDOF 3
ENDMDL
MODEL 7
REMARK VINA RESULT:      -6.9      6.283      7.278
REMARK  3 active torsions:
REMARK  status: ('A' for Active; 'I' for Inactive)
REMARK    1  A    between atoms: C5_5  and  S1_6 
REMARK    2  A    between atoms: S1_6  and  N1_9 
REMARK       I    between atoms: N1_9  and  C6_10 
REMARK    3  A    between atoms: C6_10  and  C7_12 
ROOT
HETATM    1  N1  UNL     1      25.144   4.347  50.791  1.00  0.00    -0.246 N 
HETATM    2  C6  UNL     1      25.216   5.423  49.866  1.00  0.00     0.266 C 
HETATM    3  O3  UNL     1      24.153   6.072  49.684  1.00  0.00    -0.267 OA
HETATM    4  H6  UNL     1      25.955   3.733  51.029  1.00  0.00     0.182 HD
ENDROOT
BRANCH   1   5
HETATM    5  S1  UNL     1      23.839   3.763  51.722  1.00  0.00     0.263 S 
HETATM    6  O1  UNL     1      22.588   3.590  50.877  1.00  0.00    -0.200 OA
HETATM    7  O2  UNL     1      23.479   4.755  52.786  1.00  0.00    -0.200 OA
BRANCH   5   8
HETATM    8  C5  UNL     1      24.181   2.259  52.507  1.00  0.00     0.076 A 
HETATM    9  C4  UNL     1      23.412   1.171  52.503  1.00  0.00     0.023 A 
HETATM   10  C3  UNL     1      24.053   0.116  53.279  1.00  0.00     0.005 A 
HETATM   11  C2  UNL     1      25.201   0.600  53.734  1.00  0.00    -0.064 A 
HETATM   12  C1  UNL     1      26.061  -0.268  54.563  1.00  0.00     0.045 C 
HETATM   13  C12 UNL     1      25.422   2.006  53.307  1.00  0.00     0.132 A 
HETATM   14 BR1  UNL     1      26.943   1.989  52.116  1.00  0.00    -0.081 Br
ENDBRANCH   5   8
ENDBRANCH   1   5
BRANCH   2  15
HETATM   15  C7  UNL     1      26.476   5.713  49.196  1.00  0.00     0.050 A 
HETATM   16  C8  UNL     1      27.459   4.813  48.841  1.00  0.00     0.022 A 
HETATM   17  C9  UNL     1      28.612   5.231  48.207  1.00  0.00     0.045 A 
HETATM   18  C10 UNL     1      28.811   6.573  47.908  1.00  0.00     0.125 A 
HETATM   19 CL1  UNL     1      30.287   7.079  47.100  1.00  0.00    -0.062 Cl
HETATM   20  N2  UNL     1      27.847   7.457  48.256  1.00  0.00    -0.248 NA
HETATM   21  C11 UNL     1      26.710   7.055  48.881  1.00  0.00     0.135 A 
ENDBRANCH   2  15
TORSDOF 3
ENDMDL
MODEL 8
REMARK VINA RESULT:      -6.9      5.186      6.038
REMARK  3 active torsions:
REMARK  status: ('A' for Active; 'I' for Inactive)
REMARK    1  A    between atoms: C5_5  and  S1_6 
REMARK    2  A    between atoms: S1_6  and  N1_9 
REMARK       I    between atoms: N1_9  and  C6_10 
REMARK    3  A    between atoms: C6_10  and  C7_12 
ROOT
HETATM    1  N1  UNL     1      23.482   2.860  49.638  1.00  0.00    -0.246 N 
HETATM    2  C6  UNL     1      24.131   3.963  50.256  1.00  0.00     0.266 C 
HETATM    3  O3  UNL     1      23.614   4.385  51.323  1.00  0.00    -0.267 OA
HETATM    4  H6  UNL     1      23.811   2.418  48.751  1.00  0.00     0.182 HD
ENDROOT
BRANCH   1   5
HETATM    5  S1  UNL     1      22.091   1.985  50.097  1.00  0.00     0.263 S 
HETATM    6  O1  UNL     1      21.611   1.077  48.977  1.00  0.00    -0.200 OA
HETATM    7  O2  UNL     1      20.956   2.926  50.373  1.00  0.00    -0.200 OA
BRANCH   5   8
HETATM    8  C5  UNL     1      22.327   1.025  51.517  1.00  0.00     0.076 A 
HETATM    9  C4  UNL     1      23.294   1.172  52.421  1.00  0.00     0.023 A 
HETATM   10  C3  UNL     1      23.144   0.166  53.466  1.00  0.00     0.005 A 
HETATM   11  C2  UNL     1      22.083  -0.567  53.161  1.00  0.00    -0.064 A 
HETATM   12  C1  UNL     1      21.699  -1.673  54.061  1.00  0.00     0.045 C 
HETATM   13  C12 UNL     1      21.438  -0.120  51.899  1.00  0.00     0.132 A 
HETATM   14 BR1  UNL     1      19.699   0.568  52.379  1.00  0.00    -0.081 Br
ENDBRANCH   5   8
ENDBRANCH   1   5
BRANCH   2  15
HETATM   15  C7  UNL     1      25.324   4.531  49.644  1.00  0.00     0.050 A 
HETATM   16  C8  UNL     1      25.467   5.795  49.109  1.00  0.00     0.022 A 
HETATM   17  C9  UNL     1      26.664   6.202  48.556  1.00  0.00     0.045 A 
HETATM   18  C10 UNL     1      27.759   5.348  48.524  1.00  0.00     0.125 A 
HETATM   19 CL1  UNL     1      29.272   5.892  47.815  1.00  0.00    -0.062 Cl
HETATM   20  N2  UNL     1      27.619   4.108  49.048  1.00  0.00    -0.248 NA
HETATM   21  C11 UNL     1      26.445   3.697  49.594  1.00  0.00     0.135 A 
ENDBRANCH   2  15
TORSDOF 3
ENDMDL
MODEL 9
REMARK VINA RESULT:      -6.8      4.950      5.441
REMARK  3 active torsions:
REMARK  status: ('A' for Active; 'I' for Inactive)
REMARK    1  A    between atoms: C5_5  and  S1_6 
REMARK    2  A    between atoms: S1_6  and  N1_9 
REMARK       I    between atoms: N1_9  and  C6_10 
REMARK    3  A    between atoms: C6_10  and  C7_12 
ROOT
HETATM    1  N1  UNL     1      25.061   3.179  51.976  1.00  0.00    -0.246 N 
HETATM    2  C6  UNL     1      24.923   1.968  52.705  1.00  0.00     0.266 C 
HETATM    3  O3  UNL     1      23.771   1.708  53.140  1.00  0.00    -0.267 OA
HETATM    4  H6  UNL     1      25.963   3.508  51.564  1.00  0.00     0.182 HD
ENDROOT
BRANCH   1   5
HETATM    5  S1  UNL     1      23.912   4.376  51.576  1.00  0.00     0.263 S 
HETATM    6  O1  UNL     1      23.317   5.014  52.820  1.00  0.00    -0.200 OA
HETATM    7  O2  UNL     1      22.758   3.759  50.843  1.00  0.00    -0.200 OA
BRANCH   5   8
HETATM    8  C5  UNL     1      24.555   5.630  50.571  1.00  0.00     0.076 A 
HETATM    9  C4  UNL     1      25.350   5.468  49.515  1.00  0.00     0.023 A 
HETATM   10  C3  UNL     1      25.670   6.770  48.940  1.00  0.00     0.005 A 
HETATM   11  C2  UNL     1      25.054   7.689  49.672  1.00  0.00    -0.064 A 
HETATM   12  C1  UNL     1      25.210   9.111  49.308  1.00  0.00     0.045 C 
HETATM   13  C12 UNL     1      24.278   7.087  50.787  1.00  0.00     0.132 A 
HETATM   14 BR1  UNL     1      22.416   7.434  50.416  1.00  0.00    -0.081 Br
ENDBRANCH   5   8
ENDBRANCH   1   5
BRANCH   2  15
HETATM   15  C7  UNL     1      26.086   1.114  52.907  1.00  0.00     0.050 A 
HETATM   16  C8  UNL     1      26.231  -0.203  52.523  1.00  0.00     0.022 A 
HETATM   17  C9  UNL     1      27.396  -0.895  52.782  1.00  0.00     0.045 A 
HETATM   18  C10 UNL     1      28.456  -0.282  53.437  1.00  0.00     0.125 A 
HETATM   19 CL1  UNL     1      29.930  -1.186  53.754  1.00  0.00    -0.062 Cl
HETATM   20  N2  UNL     1      28.315   1.010  53.815  1.00  0.00    -0.248 NA
HETATM   21  C11 UNL     1      27.171   1.700  53.565  1.00  0.00     0.135 A 
ENDBRANCH   2  15
TORSDOF 3
ENDMDL
