MODEL 1
REMARK VINA RESULT:      -8.5      0.000      0.000
REMARK  4 active torsions:
REMARK  status: ('A' for Active; 'I' for Inactive)
REMARK    1  A    between atoms: C3_3  and  N1_4 
REMARK    2  A    between atoms: C3_3  and  C11_12 
REMARK    3  A    between atoms: N1_4  and  C4_5 
REMARK    4  A    between atoms: C4_5  and  C5_6 
ROOT
HETATM    1  C1  UNL     1      26.419   3.211  50.029  1.00  0.00     0.099 C 
HETATM    2  C2  UNL     1      26.250   2.682  51.219  1.00  0.00    -0.125 C 
HETATM    3  C3  UNL     1      26.128   2.107  52.397  1.00  0.00     0.083 C 
ENDROOT
BRANCH   3   4
HETATM    4  N1  UNL     1      24.809   2.295  52.941  1.00  0.00    -0.379 N 
HETATM    5  H3  UNL     1      24.651   2.939  53.765  1.00  0.00     0.160 HD
BRANCH   4   6
HETATM    6  C4  UNL     1      23.837   1.497  52.200  1.00  0.00     0.159 C 
BRANCH   6   7
HETATM    7  C5  UNL     1      23.058   0.613  53.093  1.00  0.00    -0.041 A 
HETATM    8  C6  UNL     1      21.700   0.726  53.107  1.00  0.00     0.009 A 
HETATM    9  C7  UNL     1      20.879  -0.048  53.901  1.00  0.00     0.001 A 
HETATM   10  C8  UNL     1      21.484  -0.972  54.708  1.00  0.00     0.000 A 
HETATM   11  C9  UNL     1      22.867  -1.152  54.754  1.00  0.00     0.001 A 
HETATM   12  C10 UNL     1      23.623  -0.333  53.924  1.00  0.00     0.009 A 
ENDBRANCH   6   7
ENDBRANCH   4   6
ENDBRANCH   3   4
BRANCH   3  13
HETATM   13  C11 UNL     1      27.325   1.426  52.874  1.00  0.00     0.034 A 
HETATM   14  C12 UNL     1      28.436   2.036  53.437  1.00  0.00     0.157 A 
HETATM   15  O1  UNL     1      29.271   1.063  53.722  1.00  0.00    -0.321 OA
HETATM   16  C13 UNL     1      28.768  -0.113  53.378  1.00  0.00     0.086 A 
HETATM   17  C14 UNL     1      29.374  -1.353  53.534  1.00  0.00     0.038 A 
HETATM   18  C18 UNL     1      27.498   0.059  52.819  1.00  0.00     0.013 A 
HETATM   19  C15 UNL     1      28.642  -2.450  53.093  1.00  0.00     0.003 A 
HETATM   20  C16 UNL     1      27.379  -2.296  52.536  1.00  0.00     0.001 A 
HETATM   21  C17 UNL     1      26.804  -1.030  52.398  1.00  0.00     0.015 A 
ENDBRANCH   3  13
TORSDOF 4
ENDMDL
MODEL 2
REMARK VINA RESULT:      -7.9      2.465      5.494
REMARK  4 active torsions:
REMARK  status: ('A' for Active; 'I' for Inactive)
REMARK    1  A    between atoms: C3_3  and  N1_4 
REMARK    2  A    between atoms: C3_3  and  C11_12 
REMARK    3  A    between atoms: N1_4  and  C4_5 
REMARK    4  A    between atoms: C4_5  and  C5_6 
ROOT
HETATM    1  C1  UNL     1      23.394   2.884  48.969  1.00  0.00     0.099 C 
HETATM    2  C2  UNL     1      23.505   2.875  50.277  1.00  0.00    -0.125 C 
HETATM    3  C3  UNL     1      23.549   2.867  51.593  1.00  0.00     0.083 C 
ENDROOT
BRANCH   3   4
HETATM    4  N1  UNL     1      24.784   3.421  52.082  1.00  0.00    -0.379 N 
HETATM    5  H3  UNL     1      24.782   4.218  52.777  1.00  0.00     0.160 HD
BRANCH   4   6
HETATM    6  C4  UNL     1      25.921   2.728  51.485  1.00  0.00     0.159 C 
BRANCH   6   7
HETATM    7  C5  UNL     1      26.339   1.561  52.292  1.00  0.00    -0.041 A 
HETATM    8  C6  UNL     1      26.512   1.720  53.634  1.00  0.00     0.009 A 
HETATM    9  C7  UNL     1      26.900   0.701  54.478  1.00  0.00     0.001 A 
HETATM   10  C8  UNL     1      27.116  -0.526  53.914  1.00  0.00     0.000 A 
HETATM   11  C9  UNL     1      26.961  -0.774  52.550  1.00  0.00     0.001 A 
HETATM   12  C10 UNL     1      26.569   0.305  51.768  1.00  0.00     0.009 A 
ENDBRANCH   6   7
ENDBRANCH   4   6
ENDBRANCH   3   4
BRANCH   3  13
HETATM   13  C11 UNL     1      22.367   2.316  52.244  1.00  0.00     0.034 A 
HETATM   14  C12 UNL     1      21.096   2.872  52.225  1.00  0.00     0.157 A 
HETATM   15  O1  UNL     1      20.341   2.059  52.929  1.00  0.00    -0.321 OA
HETATM   16  C13 UNL     1      21.044   1.035  53.389  1.00  0.00     0.086 A 
HETATM   17  C14 UNL     1      20.570  -0.013  54.168  1.00  0.00     0.038 A 
HETATM   18  C18 UNL     1      22.375   1.147  52.975  1.00  0.00     0.013 A 
HETATM   19  C15 UNL     1      21.506  -0.976  54.531  1.00  0.00     0.003 A 
HETATM   20  C16 UNL     1      22.831  -0.879  54.127  1.00  0.00     0.001 A 
HETATM   21  C17 UNL     1      23.268   0.192  53.343  1.00  0.00     0.015 A 
ENDBRANCH   3  13
TORSDOF 4
ENDMDL
MODEL 3
REMARK VINA RESULT:      -7.9      1.859      4.967
REMARK  4 active torsions:
REMARK  status: ('A' for Active; 'I' for Inactive)
REMARK    1  A    between atoms: C3_3  and  N1_4 
REMARK    2  A    between atoms: C3_3  and  C11_12 
REMARK    3  A    between atoms: N1_4  and  C4_5 
REMARK    4  A    between atoms: C4_5  and  C5_6 
ROOT
HETATM    1  C1  UNL     1      21.940  -0.133  53.040  1.00  0.00     0.099 C 
HETATM    2  C2  UNL     1      23.042   0.579  53.001  1.00  0.00    -0.125 C 
HETATM    3  C3  UNL     1      24.167   1.263  53.019  1.00  0.00     0.083 C 
ENDROOT
BRANCH   3   4
HETATM    4  N1  UNL     1      24.029   2.523  52.337  1.00  0.00    -0.379 N 
HETATM    5  H3  UNL     1      23.935   3.425  52.881  1.00  0.00     0.160 HD
BRANCH   4   6
HETATM    6  C4  UNL     1      24.043   2.320  50.892  1.00  0.00     0.159 C 
BRANCH   6   7
HETATM    7  C5  UNL     1      24.879   3.327  50.204  1.00  0.00    -0.041 A 
HETATM    8  C6  UNL     1      24.309   4.505  49.825  1.00  0.00     0.009 A 
HETATM    9  C7  UNL     1      24.997   5.511  49.179  1.00  0.00     0.001 A 
HETATM   10  C8  UNL     1      26.320   5.291  48.915  1.00  0.00     0.000 A 
HETATM   11  C9  UNL     1      26.980   4.113  49.269  1.00  0.00     0.001 A 
HETATM   12  C10 UNL     1      26.217   3.150  49.916  1.00  0.00     0.009 A 
ENDBRANCH   6   7
ENDBRANCH   4   6
ENDBRANCH   3   4
BRANCH   3  13
HETATM   13  C11 UNL     1      25.272   0.609  53.708  1.00  0.00     0.034 A 
HETATM   14  C12 UNL     1      25.199  -0.587  54.407  1.00  0.00     0.157 A 
HETATM   15  O1  UNL     1      26.411  -0.807  54.864  1.00  0.00    -0.321 OA
HETATM   16  C13 UNL     1      27.239   0.162  54.505  1.00  0.00     0.086 A 
HETATM   17  C14 UNL     1      28.590   0.254  54.812  1.00  0.00     0.038 A 
HETATM   18  C18 UNL     1      26.554   1.117  53.748  1.00  0.00     0.013 A 
HETATM   19  C15 UNL     1      29.253   1.373  54.319  1.00  0.00     0.003 A 
HETATM   20  C16 UNL     1      28.587   2.330  53.565  1.00  0.00     0.001 A 
HETATM   21  C17 UNL     1      27.225   2.200  53.278  1.00  0.00     0.015 A 
ENDBRANCH   3  13
TORSDOF 4
ENDMDL
MODEL 4
REMARK VINA RESULT:      -7.6      1.629      5.157
REMARK  4 active torsions:
REMARK  status: ('A' for Active; 'I' for Inactive)
REMARK    1  A    between atoms: C3_3  and  N1_4 
REMARK    2  A    between atoms: C3_3  and  C11_12 
REMARK    3  A    between atoms: N1_4  and  C4_5 
REMARK    4  A    between atoms: C4_5  and  C5_6 
ROOT
HETATM    1  C1  UNL     1      23.691   0.472  53.253  1.00  0.00     0.099 C 
HETATM    2  C2  UNL     1      24.686   1.161  52.744  1.00  0.00    -0.125 C 
HETATM    3  C3  UNL     1      25.719   1.838  52.288  1.00  0.00     0.083 C 
ENDROOT
BRANCH   3   4
HETATM    4  N1  UNL     1      25.311   2.859  51.358  1.00  0.00    -0.379 N 
HETATM    5  H3  UNL     1      24.536   3.536  51.605  1.00  0.00     0.160 HD
BRANCH   4   6
HETATM    6  C4  UNL     1      26.103   2.777  50.136  1.00  0.00     0.159 C 
BRANCH   6   7
HETATM    7  C5  UNL     1      26.255   4.098  49.490  1.00  0.00    -0.041 A 
HETATM    8  C6  UNL     1      27.484   4.468  49.032  1.00  0.00     0.009 A 
HETATM    9  C7  UNL     1      27.736   5.676  48.415  1.00  0.00     0.001 A 
HETATM   10  C8  UNL     1      26.679   6.531  48.266  1.00  0.00     0.000 A 
HETATM   11  C9  UNL     1      25.389   6.230  48.705  1.00  0.00     0.001 A 
HETATM   12  C10 UNL     1      25.219   4.994  49.316  1.00  0.00     0.009 A 
ENDBRANCH   6   7
ENDBRANCH   4   6
ENDBRANCH   3   4
BRANCH   3  13
HETATM   13  C11 UNL     1      27.011   1.415  52.812  1.00  0.00     0.034 A 
HETATM   14  C12 UNL     1      27.980   2.248  53.353  1.00  0.00     0.157 A 
HETATM   15  O1  UNL     1      28.974   1.461  53.697  1.00  0.00    -0.321 OA
HETATM   16  C13 UNL     1      28.702   0.197  53.413  1.00  0.00     0.086 A 
HETATM   17  C14 UNL     1      29.523  -0.900  53.640  1.00  0.00     0.038 A 
HETATM   18  C18 UNL     1      27.433   0.102  52.832  1.00  0.00     0.013 A 
HETATM   19  C15 UNL     1      29.013  -2.135  53.252  1.00  0.00     0.003 A 
HETATM   20  C16 UNL     1      27.755  -2.245  52.675  1.00  0.00     0.001 A 
HETATM   21  C17 UNL     1      26.959  -1.116  52.464  1.00  0.00     0.015 A 
ENDBRANCH   3  13
TORSDOF 4
ENDMDL
MODEL 5
REMARK VINA RESULT:      -7.4      3.510      6.350
REMARK  4 active torsions:
REMARK  status: ('A' for Active; 'I' for Inactive)
REMARK    1  A    between atoms: C3_3  and  N1_4 
REMARK    2  A    between atoms: C3_3  and  C11_12 
REMARK    3  A    between atoms: N1_4  and  C4_5 
REMARK    4  A    between atoms: C4_5  and  C5_6 
ROOT
HETATM    1  C1  UNL     1      23.213   2.918  48.711  1.00  0.00     0.099 C 
HETATM    2  C2  UNL     1      24.128   3.610  49.349  1.00  0.00    -0.125 C 
HETATM    3  C3  UNL     1      25.066   4.329  49.930  1.00  0.00     0.083 C 
ENDROOT
BRANCH   3   4
HETATM    4  N1  UNL     1      25.470   3.751  51.186  1.00  0.00    -0.379 N 
HETATM    5  H3  UNL     1      25.152   4.174  52.102  1.00  0.00     0.160 HD
BRANCH   4   6
HETATM    6  C4  UNL     1      26.318   2.586  50.958  1.00  0.00     0.159 C 
BRANCH   6   7
HETATM    7  C5  UNL     1      25.900   1.433  51.783  1.00  0.00    -0.041 A 
HETATM    8  C6  UNL     1      24.686   1.473  52.401  1.00  0.00     0.009 A 
HETATM    9  C7  UNL     1      24.200   0.454  53.193  1.00  0.00     0.001 A 
HETATM   10  C8  UNL     1      24.996  -0.646  53.351  1.00  0.00     0.000 A 
HETATM   11  C9  UNL     1      26.251  -0.769  52.753  1.00  0.00     0.001 A 
HETATM   12  C10 UNL     1      26.668   0.301  51.972  1.00  0.00     0.009 A 
ENDBRANCH   6   7
ENDBRANCH   4   6
ENDBRANCH   3   4
BRANCH   3  13
HETATM   13  C11 UNL     1      25.476   5.516  49.192  1.00  0.00     0.034 A 
HETATM   14  C12 UNL     1      24.667   6.599  48.882  1.00  0.00     0.157 A 
HETATM   15  O1  UNL     1      25.430   7.436  48.216  1.00  0.00    -0.321 OA
HETATM   16  C13 UNL     1      26.658   6.958  48.084  1.00  0.00     0.086 A 
HETATM   17  C14 UNL     1      27.723   7.575  47.440  1.00  0.00     0.038 A 
HETATM   18  C18 UNL     1      26.751   5.707  48.701  1.00  0.00     0.013 A 
HETATM   19  C15 UNL     1      28.923   6.871  47.433  1.00  0.00     0.003 A 
HETATM   20  C16 UNL     1      29.031   5.628  48.042  1.00  0.00     0.001 A 
HETATM   21  C17 UNL     1      27.934   5.041  48.681  1.00  0.00     0.015 A 
ENDBRANCH   3  13
TORSDOF 4
ENDMDL
MODEL 6
REMARK VINA RESULT:      -7.3      2.584      5.943
REMARK  4 active torsions:
REMARK  status: ('A' for Active; 'I' for Inactive)
REMARK    1  A    between atoms: C3_3  and  N1_4 
REMARK    2  A    between atoms: C3_3  and  C11_12 
REMARK    3  A    between atoms: N1_4  and  C4_5 
REMARK    4  A    between atoms: C4_5  and  C5_6 
ROOT
HETATM    1  C1  UNL     1      21.531   0.514  51.780  1.00  0.00     0.099 C 
HETATM    2  C2  UNL     1      22.753   0.994  51.804  1.00  0.00    -0.125 C 
HETATM    3  C3  UNL     1      23.960   1.520  51.781  1.00  0.00     0.083 C 
ENDROOT
BRANCH   3   4
HETATM    4  N1  UNL     1      24.957   0.567  52.193  1.00  0.00    -0.379 N 
HETATM    5  H3  UNL     1      25.377  -0.110  51.497  1.00  0.00     0.160 HD
BRANCH   4   6
HETATM    6  C4  UNL     1      25.239   0.713  53.617  1.00  0.00     0.159 C 
BRANCH   6   7
HETATM    7  C5  UNL     1      26.674   0.964  53.870  1.00  0.00    -0.041 A 
HETATM    8  C6  UNL     1      27.229   2.119  53.407  1.00  0.00     0.009 A 
HETATM    9  C7  UNL     1      28.556   2.452  53.586  1.00  0.00     0.001 A 
HETATM   10  C8  UNL     1      29.335   1.559  54.269  1.00  0.00     0.000 A 
HETATM   11  C9  UNL     1      28.846   0.355  54.776  1.00  0.00     0.001 A 
HETATM   12  C10 UNL     1      27.500   0.094  54.553  1.00  0.00     0.009 A 
ENDBRANCH   6   7
ENDBRANCH   4   6
ENDBRANCH   3   4
BRANCH   3  13
HETATM   13  C11 UNL     1      24.015   2.912  51.355  1.00  0.00     0.034 A 
HETATM   14  C12 UNL     1      23.086   3.894  51.666  1.00  0.00     0.157 A 
HETATM   15  O1  UNL     1      23.517   4.990  51.085  1.00  0.00    -0.321 OA
HETATM   16  C13 UNL     1      24.648   4.770  50.432  1.00  0.00     0.086 A 
HETATM   17  C14 UNL     1      25.383   5.700  49.707  1.00  0.00     0.038 A 
HETATM   18  C18 UNL     1      25.024   3.430  50.571  1.00  0.00     0.013 A 
HETATM   19  C15 UNL     1      26.544   5.226  49.106  1.00  0.00     0.003 A 
HETATM   20  C16 UNL     1      26.931   3.899  49.235  1.00  0.00     0.001 A 
HETATM   21  C17 UNL     1      26.164   2.994  49.974  1.00  0.00     0.015 A 
ENDBRANCH   3  13
TORSDOF 4
ENDMDL
MODEL 7
REMARK VINA RESULT:      -7.3      1.825      5.833
REMARK  4 active torsions:
REMARK  status: ('A' for Active; 'I' for Inactive)
REMARK    1  A    between atoms: C3_3  and  N1_4 
REMARK    2  A    between atoms: C3_3  and  C11_12 
REMARK    3  A    between atoms: N1_4  and  C4_5 
REMARK    4  A    between atoms: C4_5  and  C5_6 
ROOT
HETATM    1  C1  UNL     1      23.485   3.982  52.722  1.00  0.00     0.099 C 
HETATM    2  C2  UNL     1      23.946   2.772  52.503  1.00  0.00    -0.125 C 
HETATM    3  C3  UNL     1      24.389   1.542  52.344  1.00  0.00     0.083 C 
ENDROOT
BRANCH   3   4
HETATM    4  N1  UNL     1      25.467   1.489  51.391  1.00  0.00    -0.379 N 
HETATM    5  H3  UNL     1      25.379   0.915  50.507  1.00  0.00     0.160 HD
BRANCH   4   6
HETATM    6  C4  UNL     1      26.587   2.305  51.848  1.00  0.00     0.159 C 
BRANCH   6   7
HETATM    7  C5  UNL     1      27.521   1.531  52.694  1.00  0.00    -0.041 A 
HETATM    8  C6  UNL     1      27.518   0.171  52.600  1.00  0.00     0.009 A 
HETATM    9  C7  UNL     1      28.346  -0.645  53.342  1.00  0.00     0.001 A 
HETATM   10  C8  UNL     1      29.208  -0.034  54.211  1.00  0.00     0.000 A 
HETATM   11  C9  UNL     1      29.275   1.351  54.367  1.00  0.00     0.001 A 
HETATM   12  C10 UNL     1      28.408   2.102  53.584  1.00  0.00     0.009 A 
ENDBRANCH   6   7
ENDBRANCH   4   6
ENDBRANCH   3   4
BRANCH   3  13
HETATM   13  C11 UNL     1      23.707   0.536  53.147  1.00  0.00     0.034 A 
HETATM   14  C12 UNL     1      24.302  -0.290  54.091  1.00  0.00     0.157 A 
HETATM   15  O1  UNL     1      23.334  -1.036  54.573  1.00  0.00    -0.321 OA
HETATM   16  C13 UNL     1      22.176  -0.741  54.002  1.00  0.00     0.086 A 
HETATM   17  C14 UNL     1      20.947  -1.330  54.267  1.00  0.00     0.038 A 
HETATM   18  C18 UNL     1      22.355   0.279  53.062  1.00  0.00     0.013 A 
HETATM   19  C15 UNL     1      19.867  -0.847  53.534  1.00  0.00     0.003 A 
HETATM   20  C16 UNL     1      20.029   0.165  52.598  1.00  0.00     0.001 A 
HETATM   21  C17 UNL     1      21.284   0.732  52.360  1.00  0.00     0.015 A 
ENDBRANCH   3  13
TORSDOF 4
ENDMDL
MODEL 8
REMARK VINA RESULT:      -7.3      1.637      2.465
REMARK  4 active torsions:
REMARK  status: ('A' for Active; 'I' for Inactive)
REMARK    1  A    between atoms: C3_3  and  N1_4 
REMARK    2  A    between atoms: C3_3  and  C11_12 
REMARK    3  A    between atoms: N1_4  and  C4_5 
REMARK    4  A    between atoms: C4_5  and  C5_6 
ROOT
HETATM    1  C1  UNL     1      23.574   2.886  51.248  1.00  0.00     0.099 C 
HETATM    2  C2  UNL     1      23.964   1.840  51.940  1.00  0.00    -0.125 C 
HETATM    3  C3  UNL     1      24.418   0.810  52.623  1.00  0.00     0.083 C 
ENDROOT
BRANCH   3   4
HETATM    4  N1  UNL     1      23.482  -0.284  52.610  1.00  0.00    -0.379 N 
HETATM    5  H3  UNL     1      23.587  -1.077  51.917  1.00  0.00     0.160 HD
BRANCH   4   6
HETATM    6  C4  UNL     1      22.467  -0.095  53.641  1.00  0.00     0.159 C 
BRANCH   6   7
HETATM    7  C5  UNL     1      21.099  -0.189  53.089  1.00  0.00    -0.041 A 
HETATM    8  C6  UNL     1      20.859   0.306  51.842  1.00  0.00     0.009 A 
HETATM    9  C7  UNL     1      19.622   0.271  51.233  1.00  0.00     0.001 A 
HETATM   10  C8  UNL     1      18.597  -0.298  51.938  1.00  0.00     0.000 A 
HETATM   11  C9  UNL     1      18.757  -0.828  53.219  1.00  0.00     0.001 A 
HETATM   12  C10 UNL     1      20.034  -0.752  53.762  1.00  0.00     0.009 A 
ENDBRANCH   6   7
ENDBRANCH   4   6
ENDBRANCH   3   4
BRANCH   3  13
HETATM   13  C11 UNL     1      25.731   1.002  53.223  1.00  0.00     0.034 A 
HETATM   14  C12 UNL     1      26.153   2.131  53.909  1.00  0.00     0.157 A 
HETATM   15  O1  UNL     1      27.390   1.885  54.277  1.00  0.00    -0.321 OA
HETATM   16  C13 UNL     1      27.777   0.684  53.871  1.00  0.00     0.086 A 
HETATM   17  C14 UNL     1      29.017   0.097  54.083  1.00  0.00     0.038 A 
HETATM   18  C18 UNL     1      26.736   0.059  53.177  1.00  0.00     0.013 A 
HETATM   19  C15 UNL     1      29.186  -1.180  53.557  1.00  0.00     0.003 A 
HETATM   20  C16 UNL     1      28.163  -1.814  52.866  1.00  0.00     0.001 A 
HETATM   21  C17 UNL     1      26.928  -1.188  52.674  1.00  0.00     0.015 A 
ENDBRANCH   3  13
TORSDOF 4
ENDMDL
MODEL 9
REMARK VINA RESULT:      -7.2      2.468      5.521
REMARK  4 active torsions:
REMARK  status: ('A' for Active; 'I' for Inactive)
REMARK    1  A    between atoms: C3_3  and  N1_4 
REMARK    2  A    between atoms: C3_3  and  C11_12 
REMARK    3  A    between atoms: N1_4  and  C4_5 
REMARK    4  A    between atoms: C4_5  and  C5_6 
ROOT
HETATM    1  C1  UNL     1      23.705   4.966  53.293  1.00  0.00     0.099 C 
HETATM    2  C2  UNL     1      23.405   3.927  52.549  1.00  0.00    -0.125 C 
HETATM    3  C3  UNL     1      23.151   2.849  51.835  1.00  0.00     0.083 C 
ENDROOT
BRANCH   3   4
HETATM    4  N1  UNL     1      22.606   3.187  50.547  1.00  0.00    -0.379 N 
HETATM    5  H3  UNL     1      21.662   3.657  50.466  1.00  0.00     0.160 HD
BRANCH   4   6
HETATM    6  C4  UNL     1      23.528   2.791  49.487  1.00  0.00     0.159 C 
BRANCH   6   7
HETATM    7  C5  UNL     1      24.580   3.806  49.267  1.00  0.00    -0.041 A 
HETATM    8  C6  UNL     1      25.886   3.431  49.374  1.00  0.00     0.009 A 
HETATM    9  C7  UNL     1      26.944   4.296  49.190  1.00  0.00     0.001 A 
HETATM   10  C8  UNL     1      26.641   5.594  48.882  1.00  0.00     0.000 A 
HETATM   11  C9  UNL     1      25.332   6.059  48.752  1.00  0.00     0.001 A 
HETATM   12  C10 UNL     1      24.324   5.126  48.954  1.00  0.00     0.009 A 
ENDBRANCH   6   7
ENDBRANCH   4   6
ENDBRANCH   3   4
BRANCH   3  13
HETATM   13  C11 UNL     1      23.471   1.589  52.492  1.00  0.00     0.034 A 
HETATM   14  C12 UNL     1      22.575   0.779  53.176  1.00  0.00     0.157 A 
HETATM   15  O1  UNL     1      23.276  -0.245  53.605  1.00  0.00    -0.321 OA
HETATM   16  C13 UNL     1      24.545  -0.139  53.243  1.00  0.00     0.086 A 
HETATM   17  C14 UNL     1      25.566  -1.039  53.522  1.00  0.00     0.038 A 
HETATM   18  C18 UNL     1      24.735   1.038  52.513  1.00  0.00     0.013 A 
HETATM   19  C15 UNL     1      26.825  -0.707  53.032  1.00  0.00     0.003 A 
HETATM   20  C16 UNL     1      27.029   0.458  52.305  1.00  0.00     0.001 A 
HETATM   21  C17 UNL     1      25.974   1.338  52.044  1.00  0.00     0.015 A 
ENDBRANCH   3  13
TORSDOF 4
ENDMDL
