MODEL 1
REMARK VINA RESULT:      -8.4      0.000      0.000
REMARK  4 active torsions:
REMARK  status: ('A' for Active; 'I' for Inactive)
REMARK    1  A    between atoms: C5_6  and  N1_7 
REMARK    2  A    between atoms: N1_7  and  C6_8 
REMARK    3  A    between atoms: C10_15  and  C11_16 
REMARK    4  A    between atoms: C11_16  and  N5_17 
ROOT
HETATM    1  C6  UNL     1      26.621  -0.868  53.033  1.00  0.00     0.159 A 
HETATM    2  N2  UNL     1      26.946  -2.189  52.886  1.00  0.00    -0.220 NA
HETATM    3  C7  UNL     1      28.248  -2.570  53.056  1.00  0.00     0.258 A 
HETATM    4  N3  UNL     1      29.183  -1.677  53.355  1.00  0.00    -0.161 NA
HETATM    5  N4  UNL     1      28.866  -0.398  53.497  1.00  0.00    -0.240 N 
HETATM    6  C8  UNL     1      29.545   0.755  53.797  1.00  0.00     0.119 A 
HETATM    7  C9  UNL     1      28.671   1.837  53.813  1.00  0.00     0.030 A 
HETATM    8  C10 UNL     1      27.383   1.357  53.516  1.00  0.00     0.004 A 
HETATM    9  C17 UNL     1      27.612   0.028  53.344  1.00  0.00     0.112 A 
ENDROOT
BRANCH   1  10
HETATM   10  N1  UNL     1      25.239  -0.793  52.772  1.00  0.00    -0.339 N 
HETATM   11  H4  UNL     1      25.264  -0.748  51.733  1.00  0.00     0.167 HD
BRANCH  10  12
HETATM   12  C5  UNL     1      24.077  -0.775  53.592  1.00  0.00     0.035 A 
HETATM   13  C4  UNL     1      23.924  -1.181  54.887  1.00  0.00     0.029 A 
HETATM   14  C3  UNL     1      22.637  -1.107  55.405  1.00  0.00     0.004 A 
HETATM   15  C2  UNL     1      21.544  -0.659  54.705  1.00  0.00     0.024 A 
HETATM   16  C1  UNL     1      21.704  -0.252  53.401  1.00  0.00     0.036 A 
HETATM   17 CL1  UNL     1      20.279   0.320  52.532  1.00  0.00    -0.084 Cl
HETATM   18  C18 UNL     1      22.983  -0.315  52.849  1.00  0.00     0.053 A 
ENDBRANCH  10  12
ENDBRANCH   1  10
BRANCH   8  19
HETATM   19  C11 UNL     1      26.152   2.179  53.467  1.00  0.00     0.313 C 
BRANCH  19  20
HETATM   20  N5  UNL     1      25.753   2.240  52.069  1.00  0.00     0.092 N 
HETATM   21  C12 UNL     1      26.791   2.895  51.305  1.00  0.00     0.272 C 
HETATM   22  C13 UNL     1      26.440   3.050  49.859  1.00  0.00     0.030 C 
HETATM   23  C14 UNL     1      25.010   3.323  49.589  1.00  0.00     0.003 C 
HETATM   24  C15 UNL     1      24.027   2.666  50.502  1.00  0.00     0.030 C 
HETATM   25  C16 UNL     1      24.476   2.919  51.915  1.00  0.00     0.272 C 
ENDBRANCH  19  20
ENDBRANCH   8  19
TORSDOF 4
ENDMDL
MODEL 2
REMARK VINA RESULT:      -8.4      2.769      5.502
REMARK  4 active torsions:
REMARK  status: ('A' for Active; 'I' for Inactive)
REMARK    1  A    between atoms: C5_6  and  N1_7 
REMARK    2  A    between atoms: N1_7  and  C6_8 
REMARK    3  A    between atoms: C10_15  and  C11_16 
REMARK    4  A    between atoms: C11_16  and  N5_17 
ROOT
HETATM    1  C6  UNL     1      24.046  -0.306  53.606  1.00  0.00     0.159 A 
HETATM    2  N2  UNL     1      24.383  -1.073  54.688  1.00  0.00    -0.220 NA
HETATM    3  C7  UNL     1      23.404  -1.438  55.569  1.00  0.00     0.258 A 
HETATM    4  N3  UNL     1      22.147  -1.054  55.383  1.00  0.00    -0.161 NA
HETATM    5  N4  UNL     1      21.822  -0.311  54.335  1.00  0.00    -0.240 N 
HETATM    6  C8  UNL     1      20.668   0.243  53.843  1.00  0.00     0.119 A 
HETATM    7  C9  UNL     1      20.932   0.940  52.669  1.00  0.00     0.030 A 
HETATM    8  C10 UNL     1      22.307   0.826  52.398  1.00  0.00     0.004 A 
HETATM    9  C17 UNL     1      22.737   0.071  53.444  1.00  0.00     0.112 A 
ENDROOT
BRANCH   1  10
HETATM   10  N1  UNL     1      25.254  -0.079  52.919  1.00  0.00    -0.339 N 
HETATM   11  H4  UNL     1      25.027  -0.542  52.016  1.00  0.00     0.167 HD
BRANCH  10  12
HETATM   12  C5  UNL     1      26.475   0.568  53.254  1.00  0.00     0.035 A 
HETATM   13  C4  UNL     1      26.735   1.899  53.416  1.00  0.00     0.029 A 
HETATM   14  C3  UNL     1      28.056   2.240  53.676  1.00  0.00     0.004 A 
HETATM   15  C2  UNL     1      29.085   1.335  53.777  1.00  0.00     0.024 A 
HETATM   16  C1  UNL     1      28.818  -0.005  53.613  1.00  0.00     0.036 A 
HETATM   17 CL1  UNL     1      30.161  -1.140  53.751  1.00  0.00    -0.084 Cl
HETATM   18  C18 UNL     1      27.501  -0.381  53.349  1.00  0.00     0.053 A 
ENDBRANCH  10  12
ENDBRANCH   1  10
BRANCH   8  19
HETATM   19  C11 UNL     1      22.999   1.395  51.218  1.00  0.00     0.313 C 
BRANCH  19  20
HETATM   20  N5  UNL     1      22.857   2.840  51.315  1.00  0.00     0.092 N 
HETATM   21  C12 UNL     1      23.200   3.438  50.044  1.00  0.00     0.272 C 
HETATM   22  C13 UNL     1      23.133   4.933  50.068  1.00  0.00     0.030 C 
HETATM   23  C14 UNL     1      23.557   5.558  51.342  1.00  0.00     0.003 C 
HETATM   24  C15 UNL     1      23.233   4.802  52.589  1.00  0.00     0.030 C 
HETATM   25  C16 UNL     1      23.676   3.379  52.390  1.00  0.00     0.272 C 
ENDBRANCH  19  20
ENDBRANCH   8  19
TORSDOF 4
ENDMDL
MODEL 3
REMARK VINA RESULT:      -8.2      2.525      5.587
REMARK  4 active torsions:
REMARK  status: ('A' for Active; 'I' for Inactive)
REMARK    1  A    between atoms: C5_6  and  N1_7 
REMARK    2  A    between atoms: N1_7  and  C6_8 
REMARK    3  A    between atoms: C10_15  and  C11_16 
REMARK    4  A    between atoms: C11_16  and  N5_17 
ROOT
HETATM    1  C6  UNL     1      22.499   0.118  52.950  1.00  0.00     0.159 A 
HETATM    2  N2  UNL     1      21.152  -0.126  52.919  1.00  0.00    -0.220 NA
HETATM    3  C7  UNL     1      20.603  -0.919  53.887  1.00  0.00     0.258 A 
HETATM    4  N3  UNL     1      21.359  -1.448  54.840  1.00  0.00    -0.161 NA
HETATM    5  N4  UNL     1      22.663  -1.211  54.869  1.00  0.00    -0.240 N 
HETATM    6  C8  UNL     1      23.710  -1.573  55.678  1.00  0.00     0.119 A 
HETATM    7  C9  UNL     1      24.893  -1.008  55.215  1.00  0.00     0.030 A 
HETATM    8  C10 UNL     1      24.591  -0.253  54.068  1.00  0.00     0.004 A 
HETATM    9  C17 UNL     1      23.250  -0.443  53.951  1.00  0.00     0.112 A 
ENDROOT
BRANCH   1  10
HETATM   10  N1  UNL     1      22.758   0.927  51.827  1.00  0.00    -0.339 N 
HETATM   11  H4  UNL     1      22.852   0.188  51.102  1.00  0.00     0.167 HD
BRANCH  10  12
HETATM   12  C5  UNL     1      22.878   2.330  51.626  1.00  0.00     0.035 A 
HETATM   13  C4  UNL     1      22.087   3.343  52.087  1.00  0.00     0.029 A 
HETATM   14  C3  UNL     1      22.417   4.623  51.661  1.00  0.00     0.004 A 
HETATM   15  C2  UNL     1      23.467   4.915  50.826  1.00  0.00     0.024 A 
HETATM   16  C1  UNL     1      24.261   3.891  50.363  1.00  0.00     0.036 A 
HETATM   17 CL1  UNL     1      25.602   4.302  49.294  1.00  0.00    -0.084 Cl
HETATM   18  C18 UNL     1      23.955   2.593  50.771  1.00  0.00     0.053 A 
ENDBRANCH  10  12
ENDBRANCH   1  10
BRANCH   8  19
HETATM   19  C11 UNL     1      25.564   0.543  53.284  1.00  0.00     0.313 C 
BRANCH  19  20
HETATM   20  N5  UNL     1      26.887   0.090  53.688  1.00  0.00     0.092 N 
HETATM   21  C12 UNL     1      27.731   1.239  53.929  1.00  0.00     0.272 C 
HETATM   22  C13 UNL     1      29.131   0.863  54.299  1.00  0.00     0.030 C 
HETATM   23  C14 UNL     1      29.660  -0.338  53.612  1.00  0.00     0.003 C 
HETATM   24  C15 UNL     1      28.674  -1.424  53.329  1.00  0.00     0.030 C 
HETATM   25  C16 UNL     1      27.469  -0.792  52.688  1.00  0.00     0.272 C 
ENDBRANCH  19  20
ENDBRANCH   8  19
TORSDOF 4
ENDMDL
MODEL 4
REMARK VINA RESULT:      -8.2      2.740      6.083
REMARK  4 active torsions:
REMARK  status: ('A' for Active; 'I' for Inactive)
REMARK    1  A    between atoms: C5_6  and  N1_7 
REMARK    2  A    between atoms: N1_7  and  C6_8 
REMARK    3  A    between atoms: C10_15  and  C11_16 
REMARK    4  A    between atoms: C11_16  and  N5_17 
ROOT
HETATM    1  C6  UNL     1      22.859   1.478  52.031  1.00  0.00     0.159 A 
HETATM    2  N2  UNL     1      21.550   1.874  52.069  1.00  0.00    -0.220 NA
HETATM    3  C7  UNL     1      20.726   1.337  53.019  1.00  0.00     0.258 A 
HETATM    4  N3  UNL     1      21.184   0.447  53.889  1.00  0.00    -0.161 NA
HETATM    5  N4  UNL     1      22.453   0.064  53.851  1.00  0.00    -0.240 N 
HETATM    6  C8  UNL     1      23.241  -0.798  54.569  1.00  0.00     0.119 A 
HETATM    7  C9  UNL     1      24.538  -0.793  54.068  1.00  0.00     0.030 A 
HETATM    8  C10 UNL     1      24.583   0.109  52.991  1.00  0.00     0.004 A 
HETATM    9  C17 UNL     1      23.299   0.557  52.947  1.00  0.00     0.112 A 
ENDROOT
BRANCH   1  10
HETATM   10  N1  UNL     1      23.428   2.173  50.945  1.00  0.00    -0.339 N 
HETATM   11  H4  UNL     1      23.331   1.445  50.208  1.00  0.00     0.167 HD
BRANCH  10  12
HETATM   12  C5  UNL     1      23.992   3.468  50.787  1.00  0.00     0.035 A 
HETATM   13  C4  UNL     1      23.509   4.680  51.192  1.00  0.00     0.029 A 
HETATM   14  C3  UNL     1      24.257   5.792  50.828  1.00  0.00     0.004 A 
HETATM   15  C2  UNL     1      25.423   5.739  50.104  1.00  0.00     0.024 A 
HETATM   16  C1  UNL     1      25.906   4.516  49.698  1.00  0.00     0.036 A 
HETATM   17 CL1  UNL     1      27.407   4.483  48.773  1.00  0.00    -0.084 Cl
HETATM   18  C18 UNL     1      25.177   3.379  50.046  1.00  0.00     0.053 A 
ENDBRANCH  10  12
ENDBRANCH   1  10
BRANCH   8  19
HETATM   19  C11 UNL     1      25.789   0.440  52.198  1.00  0.00     0.313 C 
BRANCH  19  20
HETATM   20  N5  UNL     1      26.827   0.796  53.155  1.00  0.00     0.092 N 
HETATM   21  C12 UNL     1      27.439   2.042  52.753  1.00  0.00     0.272 C 
HETATM   22  C13 UNL     1      28.558   2.457  53.655  1.00  0.00     0.030 C 
HETATM   23  C14 UNL     1      29.376   1.346  54.190  1.00  0.00     0.003 C 
HETATM   24  C15 UNL     1      28.653   0.072  54.481  1.00  0.00     0.030 C 
HETATM   25  C16 UNL     1      27.816  -0.264  53.276  1.00  0.00     0.272 C 
ENDBRANCH  19  20
ENDBRANCH   8  19
TORSDOF 4
ENDMDL
MODEL 5
REMARK VINA RESULT:      -8.1      2.367      5.312
REMARK  4 active torsions:
REMARK  status: ('A' for Active; 'I' for Inactive)
REMARK    1  A    between atoms: C5_6  and  N1_7 
REMARK    2  A    between atoms: N1_7  and  C6_8 
REMARK    3  A    between atoms: C10_15  and  C11_16 
REMARK    4  A    between atoms: C11_16  and  N5_17 
ROOT
HETATM    1  C6  UNL     1      26.763   1.719  52.323  1.00  0.00     0.159 A 
HETATM    2  N2  UNL     1      27.938   2.412  52.437  1.00  0.00    -0.220 NA
HETATM    3  C7  UNL     1      28.677   2.275  53.579  1.00  0.00     0.258 A 
HETATM    4  N3  UNL     1      28.263   1.487  54.563  1.00  0.00    -0.161 NA
HETATM    5  N4  UNL     1      27.125   0.817  54.452  1.00  0.00    -0.240 N 
HETATM    6  C8  UNL     1      26.419  -0.059  55.237  1.00  0.00     0.119 A 
HETATM    7  C9  UNL     1      25.258  -0.459  54.586  1.00  0.00     0.030 A 
HETATM    8  C10 UNL     1      25.220   0.182  53.335  1.00  0.00     0.004 A 
HETATM    9  C17 UNL     1      26.367   0.913  53.360  1.00  0.00     0.112 A 
ENDROOT
BRANCH   1  10
HETATM   10  N1  UNL     1      26.232   2.087  51.071  1.00  0.00    -0.339 N 
HETATM   11  H4  UNL     1      25.930   1.152  50.732  1.00  0.00     0.167 HD
BRANCH  10  12
HETATM   12  C5  UNL     1      26.099   3.322  50.380  1.00  0.00     0.035 A 
HETATM   13  C4  UNL     1      26.878   3.851  49.390  1.00  0.00     0.029 A 
HETATM   14  C3  UNL     1      26.536   5.124  48.953  1.00  0.00     0.004 A 
HETATM   15  C2  UNL     1      25.486   5.858  49.447  1.00  0.00     0.024 A 
HETATM   16  C1  UNL     1      24.704   5.321  50.444  1.00  0.00     0.036 A 
HETATM   17 CL1  UNL     1      23.362   6.289  51.055  1.00  0.00    -0.084 Cl
HETATM   18  C18 UNL     1      25.021   4.045  50.907  1.00  0.00     0.053 A 
ENDBRANCH  10  12
ENDBRANCH   1  10
BRANCH   8  19
HETATM   19  C11 UNL     1      24.166   0.003  52.310  1.00  0.00     0.313 C 
BRANCH  19  20
HETATM   20  N5  UNL     1      23.037   0.819  52.734  1.00  0.00     0.092 N 
HETATM   21  C12 UNL     1      22.013  -0.037  53.290  1.00  0.00     0.272 C 
HETATM   22  C13 UNL     1      20.788   0.716  53.704  1.00  0.00     0.030 C 
HETATM   23  C14 UNL     1      20.433   1.861  52.835  1.00  0.00     0.003 C 
HETATM   24  C15 UNL     1      21.575   2.616  52.238  1.00  0.00     0.030 C 
HETATM   25  C16 UNL     1      22.520   1.615  51.632  1.00  0.00     0.272 C 
ENDBRANCH  19  20
ENDBRANCH   8  19
TORSDOF 4
ENDMDL
MODEL 6
REMARK VINA RESULT:      -7.9      3.013      5.670
REMARK  4 active torsions:
REMARK  status: ('A' for Active; 'I' for Inactive)
REMARK    1  A    between atoms: C5_6  and  N1_7 
REMARK    2  A    between atoms: N1_7  and  C6_8 
REMARK    3  A    between atoms: C10_15  and  C11_16 
REMARK    4  A    between atoms: C11_16  and  N5_17 
ROOT
HETATM    1  C6  UNL     1      23.657   0.015  53.263  1.00  0.00     0.159 A 
HETATM    2  N2  UNL     1      23.577  -0.894  54.283  1.00  0.00    -0.220 NA
HETATM    3  C7  UNL     1      22.399  -1.015  54.967  1.00  0.00     0.258 A 
HETATM    4  N3  UNL     1      21.352  -0.265  54.651  1.00  0.00    -0.161 NA
HETATM    5  N4  UNL     1      21.431   0.615  53.663  1.00  0.00    -0.240 N 
HETATM    6  C8  UNL     1      20.580   1.519  53.081  1.00  0.00     0.119 A 
HETATM    7  C9  UNL     1      21.225   2.190  52.048  1.00  0.00     0.030 A 
HETATM    8  C10 UNL     1      22.538   1.695  51.963  1.00  0.00     0.004 A 
HETATM    9  C17 UNL     1      22.554   0.773  52.963  1.00  0.00     0.112 A 
ENDROOT
BRANCH   1  10
HETATM   10  N1  UNL     1      24.980  -0.076  52.786  1.00  0.00    -0.339 N 
HETATM   11  H4  UNL     1      24.848  -0.801  52.053  1.00  0.00     0.167 HD
BRANCH  10  12
HETATM   12  C5  UNL     1      26.199   0.571  53.126  1.00  0.00     0.035 A 
HETATM   13  C4  UNL     1      26.464   1.903  53.269  1.00  0.00     0.029 A 
HETATM   14  C3  UNL     1      27.783   2.242  53.540  1.00  0.00     0.004 A 
HETATM   15  C2  UNL     1      28.806   1.334  53.670  1.00  0.00     0.024 A 
HETATM   16  C1  UNL     1      28.534  -0.007  53.525  1.00  0.00     0.036 A 
HETATM   17 CL1  UNL     1      29.870  -1.145  53.700  1.00  0.00    -0.084 Cl
HETATM   18  C18 UNL     1      27.220  -0.381  53.250  1.00  0.00     0.053 A 
ENDBRANCH  10  12
ENDBRANCH   1  10
BRANCH   8  19
HETATM   19  C11 UNL     1      23.552   2.117  50.970  1.00  0.00     0.313 C 
BRANCH  19  20
HETATM   20  N5  UNL     1      22.838   2.862  49.943  1.00  0.00     0.092 N 
HETATM   21  C12 UNL     1      22.517   1.975  48.847  1.00  0.00     0.272 C 
HETATM   22  C13 UNL     1      21.826   2.673  47.719  1.00  0.00     0.030 C 
HETATM   23  C14 UNL     1      22.281   4.059  47.467  1.00  0.00     0.003 C 
HETATM   24  C15 UNL     1      22.679   4.853  48.668  1.00  0.00     0.030 C 
HETATM   25  C16 UNL     1      23.613   4.005  49.488  1.00  0.00     0.272 C 
ENDBRANCH  19  20
ENDBRANCH   8  19
TORSDOF 4
ENDMDL
MODEL 7
REMARK VINA RESULT:      -7.8      3.092      6.006
REMARK  4 active torsions:
REMARK  status: ('A' for Active; 'I' for Inactive)
REMARK    1  A    between atoms: C5_6  and  N1_7 
REMARK    2  A    between atoms: N1_7  and  C6_8 
REMARK    3  A    between atoms: C10_15  and  C11_16 
REMARK    4  A    between atoms: C11_16  and  N5_17 
ROOT
HETATM    1  C6  UNL     1      25.896   3.438  50.549  1.00  0.00     0.159 A 
HETATM    2  N2  UNL     1      26.944   3.531  49.673  1.00  0.00    -0.220 NA
HETATM    3  C7  UNL     1      27.101   4.682  48.953  1.00  0.00     0.258 A 
HETATM    4  N3  UNL     1      26.253   5.692  49.095  1.00  0.00    -0.161 NA
HETATM    5  N4  UNL     1      25.238   5.601  49.943  1.00  0.00    -0.240 N 
HETATM    6  C8  UNL     1      24.209   6.417  50.336  1.00  0.00     0.119 A 
HETATM    7  C9  UNL     1      23.426   5.778  51.290  1.00  0.00     0.030 A 
HETATM    8  C10 UNL     1      23.976   4.504  51.520  1.00  0.00     0.004 A 
HETATM    9  C17 UNL     1      25.040   4.502  50.672  1.00  0.00     0.112 A 
ENDROOT
BRANCH   1  10
HETATM   10  N1  UNL     1      25.988   2.147  51.104  1.00  0.00    -0.339 N 
HETATM   11  H4  UNL     1      25.203   1.688  50.601  1.00  0.00     0.167 HD
BRANCH  10  12
HETATM   12  C5  UNL     1      26.846   1.543  52.064  1.00  0.00     0.035 A 
HETATM   13  C4  UNL     1      27.727   2.127  52.929  1.00  0.00     0.029 A 
HETATM   14  C3  UNL     1      28.488   1.264  53.707  1.00  0.00     0.004 A 
HETATM   15  C2  UNL     1      28.403  -0.106  53.655  1.00  0.00     0.024 A 
HETATM   16  C1  UNL     1      27.514  -0.689  52.782  1.00  0.00     0.036 A 
HETATM   17 CL1  UNL     1      27.428  -2.450  52.743  1.00  0.00    -0.084 Cl
HETATM   18  C18 UNL     1      26.735   0.149  51.985  1.00  0.00     0.053 A 
ENDBRANCH  10  12
ENDBRANCH   1  10
BRANCH   8  19
HETATM   19  C11 UNL     1      23.466   3.511  52.492  1.00  0.00     0.313 C 
BRANCH  19  20
HETATM   20  N5  UNL     1      22.428   2.756  51.803  1.00  0.00     0.092 N 
HETATM   21  C12 UNL     1      21.131   3.247  52.213  1.00  0.00     0.272 C 
HETATM   22  C13 UNL     1      20.001   2.489  51.591  1.00  0.00     0.030 C 
HETATM   23  C14 UNL     1      20.244   1.039  51.411  1.00  0.00     0.003 C 
HETATM   24  C15 UNL     1      21.645   0.640  51.082  1.00  0.00     0.030 C 
HETATM   25  C16 UNL     1      22.558   1.330  52.058  1.00  0.00     0.272 C 
ENDBRANCH  19  20
ENDBRANCH   8  19
TORSDOF 4
ENDMDL
MODEL 8
REMARK VINA RESULT:      -7.8      3.388      6.940
REMARK  4 active torsions:
REMARK  status: ('A' for Active; 'I' for Inactive)
REMARK    1  A    between atoms: C5_6  and  N1_7 
REMARK    2  A    between atoms: N1_7  and  C6_8 
REMARK    3  A    between atoms: C10_15  and  C11_16 
REMARK    4  A    between atoms: C11_16  and  N5_17 
ROOT
HETATM    1  C6  UNL     1      23.443   2.371  49.970  1.00  0.00     0.159 A 
HETATM    2  N2  UNL     1      22.815   2.463  48.757  1.00  0.00    -0.220 NA
HETATM    3  C7  UNL     1      21.655   1.765  48.561  1.00  0.00     0.258 A 
HETATM    4  N3  UNL     1      21.147   1.010  49.527  1.00  0.00    -0.161 NA
HETATM    5  N4  UNL     1      21.756   0.922  50.700  1.00  0.00    -0.240 N 
HETATM    6  C8  UNL     1      21.523   0.267  51.882  1.00  0.00     0.119 A 
HETATM    7  C9  UNL     1      22.527   0.558  52.799  1.00  0.00     0.030 A 
HETATM    8  C10 UNL     1      23.436   1.436  52.181  1.00  0.00     0.004 A 
HETATM    9  C17 UNL     1      22.888   1.582  50.945  1.00  0.00     0.112 A 
ENDROOT
BRANCH   1  10
HETATM   10  N1  UNL     1      24.602   3.163  49.850  1.00  0.00    -0.339 N 
HETATM   11  H4  UNL     1      25.280   2.431  49.560  1.00  0.00     0.167 HD
BRANCH  10  12
HETATM   12  C5  UNL     1      24.878   4.545  50.042  1.00  0.00     0.035 A 
HETATM   13  C4  UNL     1      24.252   5.451  50.850  1.00  0.00     0.029 A 
HETATM   14  C3  UNL     1      24.705   6.761  50.772  1.00  0.00     0.004 A 
HETATM   15  C2  UNL     1      25.722   7.181  49.950  1.00  0.00     0.024 A 
HETATM   16  C1  UNL     1      26.350   6.265  49.138  1.00  0.00     0.036 A 
HETATM   17 CL1  UNL     1      27.653   6.838  48.097  1.00  0.00    -0.084 Cl
HETATM   18  C18 UNL     1      25.918   4.941  49.191  1.00  0.00     0.053 A 
ENDBRANCH  10  12
ENDBRANCH   1  10
BRANCH   8  19
HETATM   19  C11 UNL     1      24.636   2.020  52.823  1.00  0.00     0.313 C 
BRANCH  19  20
HETATM   20  N5  UNL     1      25.504   0.904  53.168  1.00  0.00     0.092 N 
HETATM   21  C12 UNL     1      26.408   1.310  54.221  1.00  0.00     0.272 C 
HETATM   22  C13 UNL     1      27.377   0.236  54.602  1.00  0.00     0.030 C 
HETATM   23  C14 UNL     1      27.847  -0.609  53.481  1.00  0.00     0.003 C 
HETATM   24  C15 UNL     1      26.854  -0.886  52.400  1.00  0.00     0.030 C 
HETATM   25  C16 UNL     1      26.232   0.425  52.003  1.00  0.00     0.272 C 
ENDBRANCH  19  20
ENDBRANCH   8  19
TORSDOF 4
ENDMDL
MODEL 9
REMARK VINA RESULT:      -7.8      1.877      5.006
REMARK  4 active torsions:
REMARK  status: ('A' for Active; 'I' for Inactive)
REMARK    1  A    between atoms: C5_6  and  N1_7 
REMARK    2  A    between atoms: N1_7  and  C6_8 
REMARK    3  A    between atoms: C10_15  and  C11_16 
REMARK    4  A    between atoms: C11_16  and  N5_17 
ROOT
HETATM    1  C6  UNL     1      24.070   3.618  52.051  1.00  0.00     0.159 A 
HETATM    2  N2  UNL     1      23.249   4.706  52.178  1.00  0.00    -0.220 NA
HETATM    3  C7  UNL     1      23.429   5.769  51.338  1.00  0.00     0.258 A 
HETATM    4  N3  UNL     1      24.384   5.751  50.417  1.00  0.00    -0.161 NA
HETATM    5  N4  UNL     1      25.178   4.697  50.296  1.00  0.00    -0.240 N 
HETATM    6  C8  UNL     1      26.226   4.344  49.484  1.00  0.00     0.119 A 
HETATM    7  C9  UNL     1      26.686   3.076  49.819  1.00  0.00     0.030 A 
HETATM    8  C10 UNL     1      25.902   2.597  50.883  1.00  0.00     0.004 A 
HETATM    9  C17 UNL     1      25.045   3.633  51.087  1.00  0.00     0.112 A 
ENDROOT
BRANCH   1  10
HETATM   10  N1  UNL     1      23.659   2.722  53.058  1.00  0.00    -0.339 N 
HETATM   11  H4  UNL     1      23.967   3.254  53.896  1.00  0.00     0.167 HD
BRANCH  10  12
HETATM   12  C5  UNL     1      23.016   1.454  53.051  1.00  0.00     0.035 A 
HETATM   13  C4  UNL     1      23.425   0.271  53.595  1.00  0.00     0.029 A 
HETATM   14  C3  UNL     1      22.610  -0.829  53.361  1.00  0.00     0.004 A 
HETATM   15  C2  UNL     1      21.446  -0.789  52.633  1.00  0.00     0.024 A 
HETATM   16  C1  UNL     1      21.037   0.405  52.086  1.00  0.00     0.036 A 
HETATM   17 CL1  UNL     1      19.537   0.421  51.159  1.00  0.00    -0.084 Cl
HETATM   18  C18 UNL     1      21.835   1.529  52.301  1.00  0.00     0.053 A 
ENDBRANCH  10  12
ENDBRANCH   1  10
BRANCH   8  19
HETATM   19  C11 UNL     1      26.038   1.267  51.519  1.00  0.00     0.313 C 
BRANCH  19  20
HETATM   20  N5  UNL     1      27.311   1.275  52.224  1.00  0.00     0.092 N 
HETATM   21  C12 UNL     1      27.589  -0.053  52.723  1.00  0.00     0.272 C 
HETATM   22  C13 UNL     1      28.859  -0.124  53.510  1.00  0.00     0.030 C 
HETATM   23  C14 UNL     1      29.156   1.074  54.329  1.00  0.00     0.003 C 
HETATM   24  C15 UNL     1      28.738   2.387  53.754  1.00  0.00     0.030 C 
HETATM   25  C16 UNL     1      27.311   2.254  53.299  1.00  0.00     0.272 C 
ENDBRANCH  19  20
ENDBRANCH   8  19
TORSDOF 4
ENDMDL
