MODEL 1
REMARK VINA RESULT:      -7.9      0.000      0.000
REMARK  6 active torsions:
REMARK  status: ('A' for Active; 'I' for Inactive)
REMARK    1  A    between atoms: C3_3  and  C4_4 
REMARK    2  A    between atoms: C11_12  and  N2_13 
REMARK    3  A    between atoms: N2_13  and  C13_15 
REMARK    4  A    between atoms: C13_15  and  C14_16 
REMARK    5  A    between atoms: C14_16  and  O2_18 
REMARK    6  A    between atoms: C16_20  and  O3_21 
ROOT
HETATM    1  C4  UNL     1      28.159   6.563  47.998  1.00  0.00     0.006 C 
HETATM    2  C5  UNL     1      27.210   5.842  48.509  1.00  0.00    -0.028 A 
HETATM    3  C6  UNL     1      25.903   5.427  48.651  1.00  0.00     0.082 A 
HETATM    4  C7  UNL     1      24.938   4.662  49.192  1.00  0.00     0.043 A 
HETATM    5  N1  UNL     1      25.913   4.030  49.964  1.00  0.00    -0.337 N 
HETATM    6  C8  UNL     1      26.807   4.835  49.371  1.00  0.00     0.110 A 
HETATM    7  C9  UNL     1      25.478   3.037  50.860  1.00  0.00     0.229 C 
HETATM    8  C10 UNL     1      26.202   2.162  51.684  1.00  0.00     0.092 C 
HETATM    9  C11 UNL     1      25.011   1.434  52.405  1.00  0.00     0.260 C 
HETATM   10  C16 UNL     1      23.721   1.671  51.665  1.00  0.00     0.209 C 
HETATM   11  C18 UNL     1      23.378   3.136  51.500  1.00  0.00     0.161 C 
HETATM   12  C19 UNL     1      22.443   3.674  52.549  1.00  0.00     0.074 C 
HETATM   13  N3  UNL     1      22.998   3.558  50.163  1.00  0.00    -0.364 N 
HETATM   14  C20 UNL     1      23.597   4.438  49.158  1.00  0.00     0.112 C 
HETATM   15  O4  UNL     1      24.616   3.714  51.748  1.00  0.00    -0.334 OA
HETATM   16  H26 UNL     1      22.076   3.159  49.799  1.00  0.00     0.162 HD
ENDROOT
BRANCH   9  17
HETATM   17  N2  UNL     1      25.395   0.096  52.572  1.00  0.00     0.101 N 
HETATM   18  C12 UNL     1      25.223  -0.508  53.850  1.00  0.00     0.311 C 
BRANCH  17  19
HETATM   19  C13 UNL     1      26.778  -0.088  52.177  1.00  0.00     0.383 C 
BRANCH  19  20
HETATM   20  C14 UNL     1      27.347  -1.287  52.883  1.00  0.00     0.286 C 
HETATM   21  O1  UNL     1      27.344  -2.551  52.869  1.00  0.00    -0.263 OA
BRANCH  20  22
HETATM   22  O2  UNL     1      28.194  -1.206  53.954  1.00  0.00    -0.325 OA
HETATM   23  C15 UNL     1      28.935  -0.046  54.289  1.00  0.00     0.213 C 
ENDBRANCH  20  22
ENDBRANCH  19  20
ENDBRANCH  17  19
ENDBRANCH   9  17
BRANCH  10  24
HETATM   24  O3  UNL     1      22.694   1.237  52.536  1.00  0.00    -0.384 OA
HETATM   25  C17 UNL     1      21.921   0.259  51.959  1.00  0.00     0.202 C 
ENDBRANCH  10  24
BRANCH   1  26
HETATM   26  C3  UNL     1      29.560   6.437  48.400  1.00  0.00    -0.004 C 
HETATM   27  C2  UNL     1      30.297   5.466  47.892  1.00  0.00    -0.031 C 
HETATM   28  C1  UNL     1      31.721   5.266  48.245  1.00  0.00     0.036 C 
ENDBRANCH   1  26
TORSDOF 6
ENDMDL
MODEL 2
REMARK VINA RESULT:      -7.7      2.795      7.021
REMARK  6 active torsions:
REMARK  status: ('A' for Active; 'I' for Inactive)
REMARK    1  A    between atoms: C3_3  and  C4_4 
REMARK    2  A    between atoms: C11_12  and  N2_13 
REMARK    3  A    between atoms: N2_13  and  C13_15 
REMARK    4  A    between atoms: C13_15  and  C14_16 
REMARK    5  A    between atoms: C14_16  and  O2_18 
REMARK    6  A    between atoms: C16_20  and  O3_21 
ROOT
HETATM    1  C4  UNL     1      26.027  -0.624  53.212  1.00  0.00     0.006 C 
HETATM    2  C5  UNL     1      25.415   0.388  52.681  1.00  0.00    -0.028 A 
HETATM    3  C6  UNL     1      24.335   1.221  52.479  1.00  0.00     0.082 A 
HETATM    4  C7  UNL     1      23.723   2.281  51.920  1.00  0.00     0.043 A 
HETATM    5  N1  UNL     1      24.910   2.573  51.248  1.00  0.00    -0.337 N 
HETATM    6  C8  UNL     1      25.437   1.497  51.852  1.00  0.00     0.110 A 
HETATM    7  C9  UNL     1      24.902   3.681  50.381  1.00  0.00     0.229 C 
HETATM    8  C10 UNL     1      25.938   4.287  49.654  1.00  0.00     0.092 C 
HETATM    9  C11 UNL     1      25.116   5.393  48.899  1.00  0.00     0.260 C 
HETATM   10  C16 UNL     1      23.766   5.580  49.541  1.00  0.00     0.209 C 
HETATM   11  C18 UNL     1      22.945   4.310  49.604  1.00  0.00     0.161 C 
HETATM   12  C19 UNL     1      21.969   4.148  48.470  1.00  0.00     0.074 C 
HETATM   13  N3  UNL     1      22.342   3.999  50.889  1.00  0.00    -0.364 N 
HETATM   14  C20 UNL     1      22.535   2.940  51.880  1.00  0.00     0.112 C 
HETATM   15  O4  UNL     1      23.936   3.358  49.404  1.00  0.00    -0.334 OA
HETATM   16  H26 UNL     1      21.579   4.673  51.215  1.00  0.00     0.162 HD
ENDROOT
BRANCH   9  17
HETATM   17  N2  UNL     1      25.934   6.530  48.831  1.00  0.00     0.101 N 
HETATM   18  C12 UNL     1      27.266   6.383  48.348  1.00  0.00     0.311 C 
BRANCH  17  19
HETATM   19  C13 UNL     1      25.999   7.186  50.122  1.00  0.00     0.383 C 
BRANCH  19  20
HETATM   20  C14 UNL     1      26.319   8.643  49.929  1.00  0.00     0.286 C 
HETATM   21  O1  UNL     1      25.869   9.707  49.417  1.00  0.00    -0.263 OA
BRANCH  20  22
HETATM   22  O2  UNL     1      27.458   9.238  50.398  1.00  0.00    -0.325 OA
HETATM   23  C15 UNL     1      28.581   9.539  49.588  1.00  0.00     0.213 C 
ENDBRANCH  20  22
ENDBRANCH  19  20
ENDBRANCH  17  19
ENDBRANCH   9  17
BRANCH  10  24
HETATM   24  O3  UNL     1      23.013   6.359  48.631  1.00  0.00    -0.384 OA
HETATM   25  C17 UNL     1      22.468   7.463  49.241  1.00  0.00     0.202 C 
ENDBRANCH  10  24
BRANCH   1  26
HETATM   26  C3  UNL     1      27.418  -0.962  52.908  1.00  0.00    -0.004 C 
HETATM   27  C2  UNL     1      28.382  -0.516  53.692  1.00  0.00    -0.031 C 
HETATM   28  C1  UNL     1      29.814  -0.810  53.457  1.00  0.00     0.036 C 
ENDBRANCH   1  26
TORSDOF 6
ENDMDL
MODEL 3
REMARK VINA RESULT:      -7.3      3.307      6.798
REMARK  6 active torsions:
REMARK  status: ('A' for Active; 'I' for Inactive)
REMARK    1  A    between atoms: C3_3  and  C4_4 
REMARK    2  A    between atoms: C11_12  and  N2_13 
REMARK    3  A    between atoms: N2_13  and  C13_15 
REMARK    4  A    between atoms: C13_15  and  C14_16 
REMARK    5  A    between atoms: C14_16  and  O2_18 
REMARK    6  A    between atoms: C16_20  and  O3_21 
ROOT
HETATM    1  C4  UNL     1      26.459  -1.145  53.549  1.00  0.00     0.006 C 
HETATM    2  C5  UNL     1      25.489  -0.409  53.104  1.00  0.00    -0.028 A 
HETATM    3  C6  UNL     1      24.176   0.007  53.031  1.00  0.00     0.082 A 
HETATM    4  C7  UNL     1      23.187   0.788  52.558  1.00  0.00     0.043 A 
HETATM    5  N1  UNL     1      24.128   1.449  51.769  1.00  0.00    -0.337 N 
HETATM    6  C8  UNL     1      25.047   0.626  52.296  1.00  0.00     0.110 A 
HETATM    7  C9  UNL     1      23.655   2.472  50.927  1.00  0.00     0.229 C 
HETATM    8  C10 UNL     1      24.342   3.377  50.104  1.00  0.00     0.092 C 
HETATM    9  C11 UNL     1      23.121   4.126  49.460  1.00  0.00     0.260 C 
HETATM   10  C16 UNL     1      21.863   3.860  50.245  1.00  0.00     0.209 C 
HETATM   11  C18 UNL     1      21.530   2.389  50.374  1.00  0.00     0.161 C 
HETATM   12  C19 UNL     1      20.551   1.885  49.347  1.00  0.00     0.074 C 
HETATM   13  N3  UNL     1      21.207   1.919  51.709  1.00  0.00    -0.364 N 
HETATM   14  C20 UNL     1      21.849   1.007  52.657  1.00  0.00     0.112 C 
HETATM   15  O4  UNL     1      22.756   1.823  50.053  1.00  0.00    -0.334 OA
HETATM   16  H26 UNL     1      20.300   2.303  52.126  1.00  0.00     0.162 HD
ENDROOT
BRANCH   9  17
HETATM   17  N2  UNL     1      23.495   5.471  49.325  1.00  0.00     0.101 N 
HETATM   18  C12 UNL     1      23.544   6.036  48.018  1.00  0.00     0.311 C 
BRANCH  17  19
HETATM   19  C13 UNL     1      24.777   5.706  49.958  1.00  0.00     0.383 C 
BRANCH  19  20
HETATM   20  C14 UNL     1      24.866   7.142  50.395  1.00  0.00     0.286 C 
HETATM   21  O1  UNL     1      24.172   8.091  50.860  1.00  0.00    -0.263 OA
BRANCH  20  22
HETATM   22  O2  UNL     1      26.018   7.878  50.355  1.00  0.00    -0.325 OA
HETATM   23  C15 UNL     1      26.084   9.218  49.900  1.00  0.00     0.213 C 
ENDBRANCH  20  22
ENDBRANCH  19  20
ENDBRANCH  17  19
ENDBRANCH   9  17
BRANCH  10  24
HETATM   24  O3  UNL     1      20.799   4.321  49.434  1.00  0.00    -0.384 OA
HETATM   25  C17 UNL     1      20.098   5.331  50.046  1.00  0.00     0.202 C 
ENDBRANCH  10  24
BRANCH   1  26
HETATM   26  C3  UNL     1      27.841  -1.000  53.093  1.00  0.00    -0.004 C 
HETATM   27  C2  UNL     1      28.740  -0.464  53.899  1.00  0.00    -0.031 C 
HETATM   28  C1  UNL     1      30.158  -0.280  53.518  1.00  0.00     0.036 C 
ENDBRANCH   1  26
TORSDOF 6
ENDMDL
MODEL 4
REMARK VINA RESULT:      -7.1      2.485      4.047
REMARK  6 active torsions:
REMARK  status: ('A' for Active; 'I' for Inactive)
REMARK    1  A    between atoms: C3_3  and  C4_4 
REMARK    2  A    between atoms: C11_12  and  N2_13 
REMARK    3  A    between atoms: N2_13  and  C13_15 
REMARK    4  A    between atoms: C13_15  and  C14_16 
REMARK    5  A    between atoms: C14_16  and  O2_18 
REMARK    6  A    between atoms: C16_20  and  O3_21 
ROOT
HETATM    1  C4  UNL     1      31.061   5.829  47.572  1.00  0.00     0.006 C 
HETATM    2  C5  UNL     1      29.796   5.946  47.833  1.00  0.00    -0.028 A 
HETATM    3  C6  UNL     1      28.591   6.614  47.870  1.00  0.00     0.082 A 
HETATM    4  C7  UNL     1      27.277   6.708  48.145  1.00  0.00     0.043 A 
HETATM    5  N1  UNL     1      27.311   5.393  48.610  1.00  0.00    -0.337 N 
HETATM    6  C8  UNL     1      28.617   5.391  48.303  1.00  0.00     0.110 A 
HETATM    7  C9  UNL     1      26.113   4.860  49.118  1.00  0.00     0.229 C 
HETATM    8  C10 UNL     1      25.795   3.566  49.557  1.00  0.00     0.092 C 
HETATM    9  C11 UNL     1      24.313   3.802  50.022  1.00  0.00     0.260 C 
HETATM   10  C16 UNL     1      23.782   5.095  49.459  1.00  0.00     0.209 C 
HETATM   11  C18 UNL     1      24.615   6.303  49.829  1.00  0.00     0.161 C 
HETATM   12  C19 UNL     1      24.115   7.054  51.034  1.00  0.00     0.074 C 
HETATM   13  N3  UNL     1      24.968   7.196  48.740  1.00  0.00    -0.364 N 
HETATM   14  C20 UNL     1      26.224   7.565  48.084  1.00  0.00     0.112 C 
HETATM   15  O4  UNL     1      25.797   5.686  50.218  1.00  0.00    -0.334 OA
HETATM   16  H26 UNL     1      24.152   7.723  48.293  1.00  0.00     0.162 HD
ENDROOT
BRANCH   9  17
HETATM   17  N2  UNL     1      23.596   2.642  49.696  1.00  0.00     0.101 N 
HETATM   18  C12 UNL     1      22.809   2.638  48.508  1.00  0.00     0.311 C 
BRANCH  17  19
HETATM   19  C13 UNL     1      22.740   2.249  50.797  1.00  0.00     0.383 C 
BRANCH  19  20
HETATM   20  C14 UNL     1      23.529   1.425  51.777  1.00  0.00     0.286 C 
HETATM   21  O1  UNL     1      24.671   0.916  51.966  1.00  0.00    -0.263 OA
BRANCH  20  22
HETATM   22  O2  UNL     1      23.018   0.948  52.953  1.00  0.00    -0.325 OA
HETATM   23  C15 UNL     1      23.402  -0.282  53.540  1.00  0.00     0.213 C 
ENDBRANCH  20  22
ENDBRANCH  19  20
ENDBRANCH  17  19
ENDBRANCH   9  17
BRANCH  10  24
HETATM   24  O3  UNL     1      22.581   5.354  50.161  1.00  0.00    -0.384 OA
HETATM   25  C17 UNL     1      21.567   5.722  49.310  1.00  0.00     0.202 C 
ENDBRANCH  10  24
BRANCH   1  26
HETATM   26  C3  UNL     1      31.823   4.613  47.852  1.00  0.00    -0.004 C 
HETATM   27  C2  UNL     1      31.987   3.713  46.898  1.00  0.00    -0.031 C 
HETATM   28  C1  UNL     1      32.742   2.456  47.097  1.00  0.00     0.036 C 
ENDBRANCH   1  26
TORSDOF 6
ENDMDL
MODEL 5
REMARK VINA RESULT:      -7.1      3.126      7.893
REMARK  6 active torsions:
REMARK  status: ('A' for Active; 'I' for Inactive)
REMARK    1  A    between atoms: C3_3  and  C4_4 
REMARK    2  A    between atoms: C11_12  and  N2_13 
REMARK    3  A    between atoms: N2_13  and  C13_15 
REMARK    4  A    between atoms: C13_15  and  C14_16 
REMARK    5  A    between atoms: C14_16  and  O2_18 
REMARK    6  A    between atoms: C16_20  and  O3_21 
ROOT
HETATM    1  C4  UNL     1      17.146  -1.412  52.706  1.00  0.00     0.006 C 
HETATM    2  C5  UNL     1      18.083  -0.572  52.395  1.00  0.00    -0.028 A 
HETATM    3  C6  UNL     1      18.574   0.600  51.859  1.00  0.00     0.082 A 
HETATM    4  C7  UNL     1      19.563   1.459  51.553  1.00  0.00     0.043 A 
HETATM    5  N1  UNL     1      20.469   0.580  52.146  1.00  0.00    -0.337 N 
HETATM    6  C8  UNL     1      19.421  -0.214  52.411  1.00  0.00     0.110 A 
HETATM    7  C9  UNL     1      21.828   0.944  52.118  1.00  0.00     0.229 C 
HETATM    8  C10 UNL     1      22.953   0.342  52.704  1.00  0.00     0.092 C 
HETATM    9  C11 UNL     1      24.075   1.296  52.156  1.00  0.00     0.260 C 
HETATM   10  C16 UNL     1      23.474   2.573  51.631  1.00  0.00     0.209 C 
HETATM   11  C18 UNL     1      22.439   2.355  50.548  1.00  0.00     0.161 C 
HETATM   12  C19 UNL     1      22.977   2.468  49.147  1.00  0.00     0.074 C 
HETATM   13  N3  UNL     1      21.184   3.067  50.708  1.00  0.00    -0.364 N 
HETATM   14  C20 UNL     1      19.800   2.659  50.958  1.00  0.00     0.112 C 
HETATM   15  O4  UNL     1      22.148   1.012  50.745  1.00  0.00    -0.334 OA
HETATM   16  H26 UNL     1      21.244   4.131  50.628  1.00  0.00     0.162 HD
ENDROOT
BRANCH   9  17
HETATM   17  N2  UNL     1      25.025   1.431  53.179  1.00  0.00     0.101 N 
HETATM   18  C12 UNL     1      26.301   1.976  52.855  1.00  0.00     0.311 C 
BRANCH  17  19
HETATM   19  C13 UNL     1      25.241   0.161  53.842  1.00  0.00     0.383 C 
BRANCH  19  20
HETATM   20  C14 UNL     1      26.360  -0.578  53.161  1.00  0.00     0.286 C 
HETATM   21  O1  UNL     1      26.738  -1.002  52.031  1.00  0.00    -0.263 OA
BRANCH  20  22
HETATM   22  O2  UNL     1      27.463  -1.054  53.814  1.00  0.00    -0.325 OA
HETATM   23  C15 UNL     1      28.782  -0.596  53.575  1.00  0.00     0.213 C 
ENDBRANCH  20  22
ENDBRANCH  19  20
ENDBRANCH  17  19
ENDBRANCH   9  17
BRANCH  10  24
HETATM   24  O3  UNL     1      24.508   3.215  50.909  1.00  0.00    -0.384 OA
HETATM   25  C17 UNL     1      24.464   4.579  51.067  1.00  0.00     0.202 C 
ENDBRANCH  10  24
BRANCH   1  26
HETATM   26  C3  UNL     1      17.409  -2.680  53.387  1.00  0.00    -0.004 C 
HETATM   27  C2  UNL     1      16.550  -3.676  53.263  1.00  0.00    -0.031 C 
HETATM   28  C1  UNL     1      16.738  -4.990  53.918  1.00  0.00     0.036 C 
ENDBRANCH   1  26
TORSDOF 6
ENDMDL
MODEL 6
REMARK VINA RESULT:      -6.9      3.131      7.154
REMARK  6 active torsions:
REMARK  status: ('A' for Active; 'I' for Inactive)
REMARK    1  A    between atoms: C3_3  and  C4_4 
REMARK    2  A    between atoms: C11_12  and  N2_13 
REMARK    3  A    between atoms: N2_13  and  C13_15 
REMARK    4  A    between atoms: C13_15  and  C14_16 
REMARK    5  A    between atoms: C14_16  and  O2_18 
REMARK    6  A    between atoms: C16_20  and  O3_21 
ROOT
HETATM    1  C4  UNL     1      24.649   0.783  52.815  1.00  0.00     0.006 C 
HETATM    2  C5  UNL     1      24.655   1.942  52.233  1.00  0.00    -0.028 A 
HETATM    3  C6  UNL     1      24.173   3.209  51.981  1.00  0.00     0.082 A 
HETATM    4  C7  UNL     1      24.205   4.406  51.368  1.00  0.00     0.043 A 
HETATM    5  N1  UNL     1      25.359   4.000  50.700  1.00  0.00    -0.337 N 
HETATM    6  C8  UNL     1      25.248   2.836  51.357  1.00  0.00     0.110 A 
HETATM    7  C9  UNL     1      25.925   4.908  49.786  1.00  0.00     0.229 C 
HETATM    8  C10 UNL     1      27.116   4.846  49.047  1.00  0.00     0.092 C 
HETATM    9  C11 UNL     1      26.991   6.185  48.235  1.00  0.00     0.260 C 
HETATM   10  C16 UNL     1      25.950   7.082  48.850  1.00  0.00     0.209 C 
HETATM   11  C18 UNL     1      24.584   6.439  48.958  1.00  0.00     0.161 C 
HETATM   12  C19 UNL     1      23.655   6.766  47.819  1.00  0.00     0.074 C 
HETATM   13  N3  UNL     1      23.923   6.548  50.246  1.00  0.00    -0.364 N 
HETATM   14  C20 UNL     1      23.541   5.590  51.286  1.00  0.00     0.112 C 
HETATM   15  O4  UNL     1      24.923   5.100  48.811  1.00  0.00    -0.334 OA
HETATM   16  H26 UNL     1      23.633   7.536  50.533  1.00  0.00     0.162 HD
ENDROOT
BRANCH   9  17
HETATM   17  N2  UNL     1      28.284   6.717  48.127  1.00  0.00     0.101 N 
HETATM   18  C12 UNL     1      28.630   7.437  46.948  1.00  0.00     0.311 C 
BRANCH  17  19
HETATM   19  C13 UNL     1      29.277   5.678  48.320  1.00  0.00     0.383 C 
BRANCH  19  20
HETATM   20  C14 UNL     1      30.618   6.307  48.581  1.00  0.00     0.286 C 
HETATM   21  O1  UNL     1      31.210   7.120  49.346  1.00  0.00    -0.263 OA
BRANCH  20  22
HETATM   22  O2  UNL     1      31.737   6.044  47.838  1.00  0.00    -0.325 OA
HETATM   23  C15 UNL     1      32.470   4.834  47.916  1.00  0.00     0.213 C 
ENDBRANCH  20  22
ENDBRANCH  19  20
ENDBRANCH  17  19
ENDBRANCH   9  17
BRANCH  10  24
HETATM   24  O3  UNL     1      25.709   8.100  47.898  1.00  0.00    -0.384 OA
HETATM   25  C17 UNL     1      25.864   9.351  48.445  1.00  0.00     0.202 C 
ENDBRANCH  10  24
BRANCH   1  26
HETATM   26  C3  UNL     1      25.650  -0.249  52.543  1.00  0.00    -0.004 C 
HETATM   27  C2  UNL     1      26.757  -0.287  53.262  1.00  0.00    -0.031 C 
HETATM   28  C1  UNL     1      27.820  -1.296  53.053  1.00  0.00     0.036 C 
ENDBRANCH   1  26
TORSDOF 6
ENDMDL
MODEL 7
REMARK VINA RESULT:      -6.8      3.850      8.466
REMARK  6 active torsions:
REMARK  status: ('A' for Active; 'I' for Inactive)
REMARK    1  A    between atoms: C3_3  and  C4_4 
REMARK    2  A    between atoms: C11_12  and  N2_13 
REMARK    3  A    between atoms: N2_13  and  C13_15 
REMARK    4  A    between atoms: C13_15  and  C14_16 
REMARK    5  A    between atoms: C14_16  and  O2_18 
REMARK    6  A    between atoms: C16_20  and  O3_21 
ROOT
HETATM    1  C4  UNL     1      22.218  -0.976  54.188  1.00  0.00     0.006 C 
HETATM    2  C5  UNL     1      22.619   0.043  53.493  1.00  0.00    -0.028 A 
HETATM    3  C6  UNL     1      23.544   0.975  53.073  1.00  0.00     0.082 A 
HETATM    4  C7  UNL     1      23.938   2.029  52.336  1.00  0.00     0.043 A 
HETATM    5  N1  UNL     1      22.664   2.071  51.770  1.00  0.00    -0.337 N 
HETATM    6  C8  UNL     1      22.361   1.018  52.543  1.00  0.00     0.110 A 
HETATM    7  C9  UNL     1      22.410   3.091  50.836  1.00  0.00     0.229 C 
HETATM    8  C10 UNL     1      21.290   3.340  50.028  1.00  0.00     0.092 C 
HETATM    9  C11 UNL     1      21.755   4.673  49.338  1.00  0.00     0.260 C 
HETATM   10  C16 UNL     1      23.239   4.867  49.508  1.00  0.00     0.209 C 
HETATM   11  C18 UNL     1      23.686   4.877  50.954  1.00  0.00     0.161 C 
HETATM   12  C19 UNL     1      23.813   6.252  51.553  1.00  0.00     0.074 C 
HETATM   13  N3  UNL     1      24.823   4.035  51.279  1.00  0.00    -0.364 N 
HETATM   14  C20 UNL     1      25.008   2.833  52.094  1.00  0.00     0.112 C 
HETATM   15  O4  UNL     1      22.585   4.289  51.563  1.00  0.00    -0.334 OA
HETATM   16  H26 UNL     1      25.755   4.331  50.845  1.00  0.00     0.162 HD
ENDROOT
BRANCH   9  17
HETATM   17  N2  UNL     1      21.281   4.633  48.019  1.00  0.00     0.101 N 
HETATM   18  C12 UNL     1      19.888   4.427  47.801  1.00  0.00     0.311 C 
BRANCH  17  19
HETATM   19  C13 UNL     1      22.002   3.637  47.251  1.00  0.00     0.383 C 
BRANCH  19  20
HETATM   20  C14 UNL     1      21.944   3.990  45.790  1.00  0.00     0.286 C 
HETATM   21  O1  UNL     1      21.688   3.503  44.652  1.00  0.00    -0.263 OA
BRANCH  20  22
HETATM   22  O2  UNL     1      22.239   5.232  45.297  1.00  0.00    -0.325 OA
HETATM   23  C15 UNL     1      21.308   6.051  44.612  1.00  0.00     0.213 C 
ENDBRANCH  20  22
ENDBRANCH  19  20
ENDBRANCH  17  19
ENDBRANCH   9  17
BRANCH  10  24
HETATM   24  O3  UNL     1      23.497   6.204  49.123  1.00  0.00    -0.384 OA
HETATM   25  C17 UNL     1      24.492   6.275  48.179  1.00  0.00     0.202 C 
ENDBRANCH  10  24
BRANCH   1  26
HETATM   26  C3  UNL     1      20.858  -1.510  54.105  1.00  0.00    -0.004 C 
HETATM   27  C2  UNL     1      19.904  -0.780  53.555  1.00  0.00    -0.031 C 
HETATM   28  C1  UNL     1      18.504  -1.243  53.432  1.00  0.00     0.036 C 
ENDBRANCH   1  26
TORSDOF 6
ENDMDL
MODEL 8
REMARK VINA RESULT:      -6.8      3.409      7.677
REMARK  6 active torsions:
REMARK  status: ('A' for Active; 'I' for Inactive)
REMARK    1  A    between atoms: C3_3  and  C4_4 
REMARK    2  A    between atoms: C11_12  and  N2_13 
REMARK    3  A    between atoms: N2_13  and  C13_15 
REMARK    4  A    between atoms: C13_15  and  C14_16 
REMARK    5  A    between atoms: C14_16  and  O2_18 
REMARK    6  A    between atoms: C16_20  and  O3_21 
ROOT
HETATM    1  C4  UNL     1      25.230  -0.336  53.679  1.00  0.00     0.006 C 
HETATM    2  C5  UNL     1      25.179   0.660  52.850  1.00  0.00    -0.028 A 
HETATM    3  C6  UNL     1      25.707   1.536  51.925  1.00  0.00     0.082 A 
HETATM    4  C7  UNL     1      25.627   2.569  51.067  1.00  0.00     0.043 A 
HETATM    5  N1  UNL     1      24.276   2.693  51.389  1.00  0.00    -0.337 N 
HETATM    6  C8  UNL     1      24.449   1.655  52.221  1.00  0.00     0.110 A 
HETATM    7  C9  UNL     1      23.560   3.733  50.768  1.00  0.00     0.229 C 
HETATM    8  C10 UNL     1      22.195   4.056  50.799  1.00  0.00     0.092 C 
HETATM    9  C11 UNL     1      22.214   5.361  49.926  1.00  0.00     0.260 C 
HETATM   10  C16 UNL     1      23.504   5.463  49.154  1.00  0.00     0.209 C 
HETATM   11  C18 UNL     1      24.737   5.436  50.031  1.00  0.00     0.161 C 
HETATM   12  C19 UNL     1      25.275   6.797  50.384  1.00  0.00     0.074 C 
HETATM   13  N3  UNL     1      25.792   4.523  49.625  1.00  0.00    -0.364 N 
HETATM   14  C20 UNL     1      26.370   3.307  50.200  1.00  0.00     0.112 C 
HETATM   15  O4  UNL     1      24.204   4.913  51.201  1.00  0.00    -0.334 OA
HETATM   16  H26 UNL     1      26.281   4.764  48.706  1.00  0.00     0.162 HD
ENDROOT
BRANCH   9  17
HETATM   17  N2  UNL     1      21.035   5.359  49.167  1.00  0.00     0.101 N 
HETATM   18  C12 UNL     1      19.936   6.149  49.613  1.00  0.00     0.311 C 
BRANCH  17  19
HETATM   19  C13 UNL     1      20.558   4.004  48.975  1.00  0.00     0.383 C 
BRANCH  19  20
HETATM   20  C14 UNL     1      20.470   3.706  47.504  1.00  0.00     0.286 C 
HETATM   21  O1  UNL     1      19.659   3.679  46.535  1.00  0.00    -0.263 OA
BRANCH  20  22
HETATM   22  O2  UNL     1      21.535   3.301  46.746  1.00  0.00    -0.325 OA
HETATM   23  C15 UNL     1      21.855   3.846  45.479  1.00  0.00     0.213 C 
ENDBRANCH  20  22
ENDBRANCH  19  20
ENDBRANCH  17  19
ENDBRANCH   9  17
BRANCH  10  24
HETATM   24  O3  UNL     1      23.545   6.784  48.648  1.00  0.00    -0.384 OA
HETATM   25  C17 UNL     1      23.520   6.801  47.274  1.00  0.00     0.202 C 
ENDBRANCH  10  24
BRANCH   1  26
HETATM   26  C3  UNL     1      24.075  -0.784  54.456  1.00  0.00    -0.004 C 
HETATM   27  C2  UNL     1      22.891  -0.863  53.875  1.00  0.00    -0.031 C 
HETATM   28  C1  UNL     1      21.671  -1.307  54.587  1.00  0.00     0.036 C 
ENDBRANCH   1  26
TORSDOF 6
ENDMDL
MODEL 9
REMARK VINA RESULT:      -6.7      6.253     10.413
REMARK  6 active torsions:
REMARK  status: ('A' for Active; 'I' for Inactive)
REMARK    1  A    between atoms: C3_3  and  C4_4 
REMARK    2  A    between atoms: C11_12  and  N2_13 
REMARK    3  A    between atoms: N2_13  and  C13_15 
REMARK    4  A    between atoms: C13_15  and  C14_16 
REMARK    5  A    between atoms: C14_16  and  O2_18 
REMARK    6  A    between atoms: C16_20  and  O3_21 
ROOT
HETATM    1  C4  UNL     1      22.697  -0.372  53.243  1.00  0.00     0.006 C 
HETATM    2  C5  UNL     1      21.407  -0.386  53.117  1.00  0.00    -0.028 A 
HETATM    3  C6  UNL     1      20.143  -0.896  53.327  1.00  0.00     0.082 A 
HETATM    4  C7  UNL     1      18.805  -0.885  53.188  1.00  0.00     0.043 A 
HETATM    5  N1  UNL     1      18.922   0.289  52.443  1.00  0.00    -0.337 N 
HETATM    6  C8  UNL     1      20.247   0.197  52.634  1.00  0.00     0.110 A 
HETATM    7  C9  UNL     1      17.737   0.845  51.930  1.00  0.00     0.229 C 
HETATM    8  C10 UNL     1      17.507   2.047  51.243  1.00  0.00     0.092 C 
HETATM    9  C11 UNL     1      15.968   1.900  50.965  1.00  0.00     0.260 C 
HETATM   10  C16 UNL     1      15.371   0.829  51.839  1.00  0.00     0.209 C 
HETATM   11  C18 UNL     1      16.034  -0.522  51.678  1.00  0.00     0.161 C 
HETATM   12  C19 UNL     1      15.336  -1.443  50.714  1.00  0.00     0.074 C 
HETATM   13  N3  UNL     1      16.408  -1.203  52.906  1.00  0.00    -0.364 N 
HETATM   14  C20 UNL     1      17.683  -1.576  53.522  1.00  0.00     0.112 C 
HETATM   15  O4  UNL     1      17.224  -0.149  51.068  1.00  0.00    -0.334 OA
HETATM   16  H26 UNL     1      15.595  -1.521  53.522  1.00  0.00     0.162 HD
ENDROOT
BRANCH   9  17
HETATM   17  N2  UNL     1      15.410   3.181  51.084  1.00  0.00     0.101 N 
HETATM   18  C12 UNL     1      15.573   4.099  50.007  1.00  0.00     0.311 C 
BRANCH  17  19
HETATM   19  C13 UNL     1      15.881   3.828  52.293  1.00  0.00     0.383 C 
BRANCH  19  20
HETATM   20  C14 UNL     1      14.704   4.294  53.104  1.00  0.00     0.286 C 
HETATM   21  O1  UNL     1      14.394   4.787  54.227  1.00  0.00    -0.263 OA
BRANCH  20  22
HETATM   22  O2  UNL     1      13.411   4.258  52.657  1.00  0.00    -0.325 OA
HETATM   23  C15 UNL     1      12.282   4.458  53.488  1.00  0.00     0.213 C 
ENDBRANCH  20  22
ENDBRANCH  19  20
ENDBRANCH  17  19
ENDBRANCH   9  17
BRANCH  10  24
HETATM   24  O3  UNL     1      14.083   0.576  51.312  1.00  0.00    -0.384 OA
HETATM   25  C17 UNL     1      13.102   0.779  52.253  1.00  0.00     0.202 C 
ENDBRANCH  10  24
BRANCH   1  26
HETATM   26  C3  UNL     1      23.544   0.657  52.640  1.00  0.00    -0.004 C 
HETATM   27  C2  UNL     1      24.669   1.007  53.238  1.00  0.00    -0.031 C 
HETATM   28  C1  UNL     1      25.583   2.038  52.697  1.00  0.00     0.036 C 
ENDBRANCH   1  26
TORSDOF 6
ENDMDL
