MODEL 1
REMARK VINA RESULT:      -8.1      0.000      0.000
REMARK  1 active torsions:
REMARK  status: ('A' for Active; 'I' for Inactive)
REMARK    1  A    between atoms: C2_2  and  C3_3 
ROOT
HETATM    1  C1  UNL     1      23.970   4.649  51.693  1.00  0.00     0.007 C 
HETATM    2  C2  UNL     1      24.198   4.270  50.397  1.00  0.00    -0.014 C 
HETATM    3  C9  UNL     1      23.270   3.282  49.757  1.00  0.00     0.023 A 
HETATM    4  C10 UNL     1      22.740   1.996  50.100  1.00  0.00    -0.000 A 
HETATM    5  C11 UNL     1      21.956   1.294  49.265  1.00  0.00     0.017 A 
HETATM    6  C12 UNL     1      21.628   1.793  48.032  1.00  0.00     0.040 A 
HETATM    7  C13 UNL     1      22.119   3.026  47.683  1.00  0.00     0.103 A 
HETATM    8  C14 UNL     1      22.924   3.784  48.501  1.00  0.00     0.114 A 
HETATM    9  O1  UNL     1      23.331   5.015  48.005  1.00  0.00    -0.345 OA
HETATM   10  C15 UNL     1      22.491   5.732  47.118  1.00  0.00     0.202 C 
HETATM   11  C16 UNL     1      21.937   4.832  46.044  1.00  0.00     0.202 C 
HETATM   12  O2  UNL     1      21.763   3.498  46.432  1.00  0.00    -0.346 OA
HETATM   13  C17 UNL     1      23.057   1.553  51.472  1.00  0.00     0.052 A 
HETATM   14  N1  UNL     1      22.427   1.926  52.603  1.00  0.00    -0.176 NA
HETATM   15  N2  UNL     1      23.700   2.495  52.892  1.00  0.00    -0.319 N 
HETATM   16  C18 UNL     1      23.801   3.937  53.027  1.00  0.00     0.167 C 
HETATM   17  C19 UNL     1      23.553   1.001  52.745  1.00  0.00     0.273 A 
ENDROOT
BRANCH   2  18
HETATM   18  C3  UNL     1      25.347   4.861  49.706  1.00  0.00    -0.025 A 
HETATM   19  C4  UNL     1      25.520   6.181  49.375  1.00  0.00     0.012 A 
HETATM   20  C5  UNL     1      26.668   6.619  48.769  1.00  0.00     0.001 A 
HETATM   21  C6  UNL     1      27.689   5.746  48.468  1.00  0.00     0.000 A 
HETATM   22  C7  UNL     1      27.465   4.437  48.818  1.00  0.00     0.001 A 
HETATM   23  C8  UNL     1      26.340   3.957  49.422  1.00  0.00     0.012 A 
ENDBRANCH   2  18
TORSDOF 1
ENDMDL
MODEL 2
REMARK VINA RESULT:      -8.0      3.294      5.316
REMARK  1 active torsions:
REMARK  status: ('A' for Active; 'I' for Inactive)
REMARK    1  A    between atoms: C2_2  and  C3_3 
ROOT
HETATM    1  C1  UNL     1      25.952   3.028  50.011  1.00  0.00     0.007 C 
HETATM    2  C2  UNL     1      25.260   2.844  51.178  1.00  0.00    -0.014 C 
HETATM    3  C9  UNL     1      23.953   3.554  51.366  1.00  0.00     0.023 A 
HETATM    4  C10 UNL     1      23.487   4.902  51.236  1.00  0.00    -0.000 A 
HETATM    5  C11 UNL     1      22.233   5.265  51.552  1.00  0.00     0.017 A 
HETATM    6  C12 UNL     1      21.336   4.339  52.016  1.00  0.00     0.040 A 
HETATM    7  C13 UNL     1      21.758   3.039  52.144  1.00  0.00     0.103 A 
HETATM    8  C14 UNL     1      23.030   2.618  51.835  1.00  0.00     0.114 A 
HETATM    9  O1  UNL     1      23.297   1.267  52.010  1.00  0.00    -0.345 OA
HETATM   10  C15 UNL     1      22.264   0.314  51.835  1.00  0.00     0.202 C 
HETATM   11  C16 UNL     1      20.999   0.747  52.530  1.00  0.00     0.202 C 
HETATM   12  O2  UNL     1      20.823   2.134  52.613  1.00  0.00    -0.346 OA
HETATM   13  C17 UNL     1      24.472   5.833  50.649  1.00  0.00     0.052 A 
HETATM   14  N1  UNL     1      24.755   5.984  49.341  1.00  0.00    -0.176 NA
HETATM   15  N2  UNL     1      26.024   5.494  49.758  1.00  0.00    -0.319 N 
HETATM   16  C18 UNL     1      26.484   4.222  49.232  1.00  0.00     0.167 C 
HETATM   17  C19 UNL     1      25.510   6.812  50.282  1.00  0.00     0.273 A 
ENDROOT
BRANCH   2  18
HETATM   18  C3  UNL     1      25.843   1.951  52.183  1.00  0.00    -0.025 A 
HETATM   19  C4  UNL     1      25.885   2.152  53.539  1.00  0.00     0.012 A 
HETATM   20  C5  UNL     1      26.419   1.213  54.382  1.00  0.00     0.001 A 
HETATM   21  C6  UNL     1      26.934   0.033  53.895  1.00  0.00     0.000 A 
HETATM   22  C7  UNL     1      26.869  -0.118  52.531  1.00  0.00     0.001 A 
HETATM   23  C8  UNL     1      26.347   0.789  51.656  1.00  0.00     0.012 A 
ENDBRANCH   2  18
TORSDOF 1
ENDMDL
MODEL 3
REMARK VINA RESULT:      -7.9      2.792      4.332
REMARK  1 active torsions:
REMARK  status: ('A' for Active; 'I' for Inactive)
REMARK    1  A    between atoms: C2_2  and  C3_3 
ROOT
HETATM    1  C1  UNL     1      25.055   2.719  53.156  1.00  0.00     0.007 C 
HETATM    2  C2  UNL     1      24.089   2.362  52.253  1.00  0.00    -0.014 C 
HETATM    3  C9  UNL     1      23.178   1.218  52.582  1.00  0.00     0.023 A 
HETATM    4  C10 UNL     1      23.343  -0.134  53.026  1.00  0.00    -0.000 A 
HETATM    5  C11 UNL     1      22.307  -0.976  53.173  1.00  0.00     0.017 A 
HETATM    6  C12 UNL     1      21.029  -0.563  52.900  1.00  0.00     0.040 A 
HETATM    7  C13 UNL     1      20.845   0.730  52.478  1.00  0.00     0.103 A 
HETATM    8  C14 UNL     1      21.872   1.629  52.312  1.00  0.00     0.114 A 
HETATM    9  O1  UNL     1      21.519   2.903  51.888  1.00  0.00    -0.345 OA
HETATM   10  C15 UNL     1      20.264   3.449  52.255  1.00  0.00     0.202 C 
HETATM   11  C16 UNL     1      19.156   2.448  52.058  1.00  0.00     0.202 C 
HETATM   12  O2  UNL     1      19.541   1.110  52.215  1.00  0.00    -0.346 OA
HETATM   13  C17 UNL     1      24.730  -0.491  53.387  1.00  0.00     0.052 A 
HETATM   14  N1  UNL     1      25.355  -0.213  54.547  1.00  0.00    -0.176 NA
HETATM   15  N2  UNL     1      26.176   0.573  53.690  1.00  0.00    -0.319 N 
HETATM   16  C18 UNL     1      26.195   2.012  53.874  1.00  0.00     0.167 C 
HETATM   17  C19 UNL     1      26.129  -0.927  53.531  1.00  0.00     0.273 A 
ENDROOT
BRANCH   2  18
HETATM   18  C3  UNL     1      24.001   3.130  51.008  1.00  0.00    -0.025 A 
HETATM   19  C4  UNL     1      23.698   2.646  49.762  1.00  0.00     0.012 A 
HETATM   20  C5  UNL     1      23.598   3.480  48.679  1.00  0.00     0.001 A 
HETATM   21  C6  UNL     1      23.801   4.836  48.806  1.00  0.00     0.000 A 
HETATM   22  C7  UNL     1      24.102   5.268  50.075  1.00  0.00     0.001 A 
HETATM   23  C8  UNL     1      24.211   4.475  51.179  1.00  0.00     0.012 A 
ENDBRANCH   2  18
TORSDOF 1
ENDMDL
MODEL 4
REMARK VINA RESULT:      -7.8      2.832      5.116
REMARK  1 active torsions:
REMARK  status: ('A' for Active; 'I' for Inactive)
REMARK    1  A    between atoms: C2_2  and  C3_3 
ROOT
HETATM    1  C1  UNL     1      22.144   1.635  49.416  1.00  0.00     0.007 C 
HETATM    2  C2  UNL     1      22.872   2.009  50.515  1.00  0.00    -0.014 C 
HETATM    3  C9  UNL     1      22.751   1.203  51.773  1.00  0.00     0.023 A 
HETATM    4  C10 UNL     1      21.674   0.714  52.582  1.00  0.00    -0.000 A 
HETATM    5  C11 UNL     1      21.880   0.056  53.735  1.00  0.00     0.017 A 
HETATM    6  C12 UNL     1      23.152  -0.178  54.186  1.00  0.00     0.040 A 
HETATM    7  C13 UNL     1      24.201   0.276  53.425  1.00  0.00     0.103 A 
HETATM    8  C14 UNL     1      24.042   0.954  52.239  1.00  0.00     0.114 A 
HETATM    9  O1  UNL     1      25.205   1.338  51.584  1.00  0.00    -0.345 OA
HETATM   10  C15 UNL     1      26.376   0.550  51.700  1.00  0.00     0.202 C 
HETATM   11  C16 UNL     1      26.626   0.154  53.133  1.00  0.00     0.202 C 
HETATM   12  O2  UNL     1      25.469   0.017  53.911  1.00  0.00    -0.346 OA
HETATM   13  C17 UNL     1      20.333   0.921  52.000  1.00  0.00     0.052 A 
HETATM   14  N1  UNL     1      19.742   0.164  51.055  1.00  0.00    -0.176 NA
HETATM   15  N2  UNL     1      19.844   1.369  50.303  1.00  0.00    -0.319 N 
HETATM   16  C18 UNL     1      20.676   1.376  49.115  1.00  0.00     0.167 C 
HETATM   17  C19 UNL     1      18.990   1.320  51.546  1.00  0.00     0.273 A 
ENDROOT
BRANCH   2  18
HETATM   18  C3  UNL     1      23.738   3.185  50.392  1.00  0.00    -0.025 A 
HETATM   19  C4  UNL     1      24.778   3.354  49.514  1.00  0.00     0.012 A 
HETATM   20  C5  UNL     1      25.485   4.527  49.464  1.00  0.00     0.001 A 
HETATM   21  C6  UNL     1      25.174   5.578  50.298  1.00  0.00     0.000 A 
HETATM   22  C7  UNL     1      24.126   5.357  51.157  1.00  0.00     0.001 A 
HETATM   23  C8  UNL     1      23.396   4.207  51.240  1.00  0.00     0.012 A 
ENDBRANCH   2  18
TORSDOF 1
ENDMDL
MODEL 5
REMARK VINA RESULT:      -7.7      2.671      5.751
REMARK  1 active torsions:
REMARK  status: ('A' for Active; 'I' for Inactive)
REMARK    1  A    between atoms: C2_2  and  C3_3 
ROOT
HETATM    1  C1  UNL     1      25.105  -0.478  52.616  1.00  0.00     0.007 C 
HETATM    2  C2  UNL     1      24.123   0.462  52.445  1.00  0.00    -0.014 C 
HETATM    3  C9  UNL     1      24.411   1.666  51.600  1.00  0.00     0.023 A 
HETATM    4  C10 UNL     1      25.446   2.654  51.536  1.00  0.00    -0.000 A 
HETATM    5  C11 UNL     1      25.399   3.694  50.688  1.00  0.00     0.017 A 
HETATM    6  C12 UNL     1      24.337   3.850  49.835  1.00  0.00     0.040 A 
HETATM    7  C13 UNL     1      23.335   2.913  49.874  1.00  0.00     0.103 A 
HETATM    8  C14 UNL     1      23.338   1.831  50.723  1.00  0.00     0.114 A 
HETATM    9  O1  UNL     1      22.254   0.968  50.633  1.00  0.00    -0.345 OA
HETATM   10  C15 UNL     1      21.597   0.785  49.391  1.00  0.00     0.202 C 
HETATM   11  C16 UNL     1      21.342   2.105  48.711  1.00  0.00     0.202 C 
HETATM   12  O2  UNL     1      22.283   3.102  48.996  1.00  0.00    -0.346 OA
HETATM   13  C17 UNL     1      26.601   2.383  52.416  1.00  0.00     0.052 A 
HETATM   14  N1  UNL     1      27.623   1.542  52.165  1.00  0.00    -0.176 NA
HETATM   15  N2  UNL     1      27.080   0.860  53.291  1.00  0.00    -0.319 N 
HETATM   16  C18 UNL     1      26.546  -0.476  53.102  1.00  0.00     0.167 C 
HETATM   17  C19 UNL     1      27.646   2.250  53.446  1.00  0.00     0.273 A 
ENDROOT
BRANCH   2  18
HETATM   18  C3  UNL     1      22.834   0.229  53.103  1.00  0.00    -0.025 A 
HETATM   19  C4  UNL     1      21.917   1.177  53.477  1.00  0.00     0.012 A 
HETATM   20  C5  UNL     1      20.720   0.826  54.044  1.00  0.00     0.001 A 
HETATM   21  C6  UNL     1      20.397  -0.495  54.259  1.00  0.00     0.000 A 
HETATM   22  C7  UNL     1      21.350  -1.404  53.867  1.00  0.00     0.001 A 
HETATM   23  C8  UNL     1      22.553  -1.099  53.300  1.00  0.00     0.012 A 
ENDBRANCH   2  18
TORSDOF 1
ENDMDL
MODEL 6
REMARK VINA RESULT:      -7.6      2.873      5.971
REMARK  1 active torsions:
REMARK  status: ('A' for Active; 'I' for Inactive)
REMARK    1  A    between atoms: C2_2  and  C3_3 
ROOT
HETATM    1  C1  UNL     1      22.055   4.694  51.721  1.00  0.00     0.007 C 
HETATM    2  C2  UNL     1      22.823   3.609  51.394  1.00  0.00    -0.014 C 
HETATM    3  C9  UNL     1      24.133   3.831  50.701  1.00  0.00     0.023 A 
HETATM    4  C10 UNL     1      24.579   4.564  49.553  1.00  0.00    -0.000 A 
HETATM    5  C11 UNL     1      25.848   4.517  49.116  1.00  0.00     0.017 A 
HETATM    6  C12 UNL     1      26.781   3.752  49.766  1.00  0.00     0.040 A 
HETATM    7  C13 UNL     1      26.379   3.045  50.872  1.00  0.00     0.103 A 
HETATM    8  C14 UNL     1      25.093   3.060  51.358  1.00  0.00     0.114 A 
HETATM    9  O1  UNL     1      24.849   2.298  52.493  1.00  0.00    -0.345 OA
HETATM   10  C15 UNL     1      25.876   2.104  53.449  1.00  0.00     0.202 C 
HETATM   11  C16 UNL     1      27.180   1.748  52.784  1.00  0.00     0.202 C 
HETATM   12  O2  UNL     1      27.350   2.288  51.503  1.00  0.00    -0.346 OA
HETATM   13  C17 UNL     1      23.550   5.435  48.950  1.00  0.00     0.052 A 
HETATM   14  N1  UNL     1      23.181   6.658  49.377  1.00  0.00    -0.176 NA
HETATM   15  N2  UNL     1      21.946   5.990  49.610  1.00  0.00    -0.319 N 
HETATM   16  C18 UNL     1      21.463   5.880  50.974  1.00  0.00     0.167 C 
HETATM   17  C19 UNL     1      22.483   6.126  48.207  1.00  0.00     0.273 A 
ENDROOT
BRANCH   2  18
HETATM   18  C3  UNL     1      22.314   2.281  51.748  1.00  0.00    -0.025 A 
HETATM   19  C4  UNL     1      22.104   1.790  53.011  1.00  0.00     0.012 A 
HETATM   20  C5  UNL     1      21.574   0.541  53.210  1.00  0.00     0.001 A 
HETATM   21  C6  UNL     1      21.237  -0.265  52.146  1.00  0.00     0.000 A 
HETATM   22  C7  UNL     1      21.469   0.275  50.905  1.00  0.00     0.001 A 
HETATM   23  C8  UNL     1      21.992   1.510  50.660  1.00  0.00     0.012 A 
ENDBRANCH   2  18
TORSDOF 1
ENDMDL
MODEL 7
REMARK VINA RESULT:      -7.4      3.387      5.583
REMARK  1 active torsions:
REMARK  status: ('A' for Active; 'I' for Inactive)
REMARK    1  A    between atoms: C2_2  and  C3_3 
ROOT
HETATM    1  C1  UNL     1      24.982   2.507  50.283  1.00  0.00     0.007 C 
HETATM    2  C2  UNL     1      24.539   2.217  51.546  1.00  0.00    -0.014 C 
HETATM    3  C9  UNL     1      23.115   2.522  51.903  1.00  0.00     0.023 A 
HETATM    4  C10 UNL     1      22.249   3.659  51.798  1.00  0.00    -0.000 A 
HETATM    5  C11 UNL     1      20.997   3.658  52.284  1.00  0.00     0.017 A 
HETATM    6  C12 UNL     1      20.493   2.547  52.909  1.00  0.00     0.040 A 
HETATM    7  C13 UNL     1      21.302   1.444  53.017  1.00  0.00     0.103 A 
HETATM    8  C14 UNL     1      22.590   1.395  52.535  1.00  0.00     0.114 A 
HETATM    9  O1  UNL     1      23.274   0.201  52.715  1.00  0.00    -0.345 OA
HETATM   10  C15 UNL     1      22.566  -1.026  52.728  1.00  0.00     0.202 C 
HETATM   11  C16 UNL     1      21.333  -0.933  53.589  1.00  0.00     0.202 C 
HETATM   12  O2  UNL     1      20.757   0.342  53.650  1.00  0.00    -0.346 OA
HETATM   13  C17 UNL     1      22.819   4.790  51.039  1.00  0.00     0.052 A 
HETATM   14  N1  UNL     1      22.867   4.916  49.699  1.00  0.00    -0.176 NA
HETATM   15  N2  UNL     1      24.269   4.857  49.939  1.00  0.00    -0.319 N 
HETATM   16  C18 UNL     1      25.019   3.741  49.394  1.00  0.00     0.167 C 
HETATM   17  C19 UNL     1      23.453   6.001  50.488  1.00  0.00     0.273 A 
ENDROOT
BRANCH   2  18
HETATM   18  C3  UNL     1      25.493   1.617  52.483  1.00  0.00    -0.025 A 
HETATM   19  C4  UNL     1      25.706   1.981  53.788  1.00  0.00     0.012 A 
HETATM   20  C5  UNL     1      26.598   1.305  54.579  1.00  0.00     0.001 A 
HETATM   21  C6  UNL     1      27.314   0.236  54.088  1.00  0.00     0.000 A 
HETATM   22  C7  UNL     1      27.064  -0.086  52.777  1.00  0.00     0.001 A 
HETATM   23  C8  UNL     1      26.187   0.558  51.954  1.00  0.00     0.012 A 
ENDBRANCH   2  18
TORSDOF 1
ENDMDL
MODEL 8
REMARK VINA RESULT:      -7.3      5.723      8.236
REMARK  1 active torsions:
REMARK  status: ('A' for Active; 'I' for Inactive)
REMARK    1  A    between atoms: C2_2  and  C3_3 
ROOT
HETATM    1  C1  UNL     1      32.116   8.003  48.846  1.00  0.00     0.007 C 
HETATM    2  C2  UNL     1      30.909   8.265  48.253  1.00  0.00    -0.014 C 
HETATM    3  C9  UNL     1      29.819   7.240  48.341  1.00  0.00     0.023 A 
HETATM    4  C10 UNL     1      29.705   5.835  48.084  1.00  0.00    -0.000 A 
HETATM    5  C11 UNL     1      28.540   5.175  48.190  1.00  0.00     0.017 A 
HETATM    6  C12 UNL     1      27.397   5.835  48.558  1.00  0.00     0.040 A 
HETATM    7  C13 UNL     1      27.482   7.181  48.815  1.00  0.00     0.103 A 
HETATM    8  C14 UNL     1      28.651   7.900  48.721  1.00  0.00     0.114 A 
HETATM    9  O1  UNL     1      28.572   9.253  49.024  1.00  0.00    -0.345 OA
HETATM   10  C15 UNL     1      27.633   9.711  49.980  1.00  0.00     0.202 C 
HETATM   11  C16 UNL     1      26.278   9.092  49.752  1.00  0.00     0.202 C 
HETATM   12  O2  UNL     1      26.308   7.810  49.187  1.00  0.00    -0.346 OA
HETATM   13  C17 UNL     1      30.986   5.166  47.778  1.00  0.00     0.052 A 
HETATM   14  N1  UNL     1      31.911   4.755  48.667  1.00  0.00    -0.176 NA
HETATM   15  N2  UNL     1      32.698   5.743  48.010  1.00  0.00    -0.319 N 
HETATM   16  C18 UNL     1      33.150   6.890  48.773  1.00  0.00     0.167 C 
HETATM   17  C19 UNL     1      32.207   4.534  47.251  1.00  0.00     0.273 A 
ENDROOT
BRANCH   2  18
HETATM   18  C3  UNL     1      30.754   9.548  47.562  1.00  0.00    -0.025 A 
HETATM   19  C4  UNL     1      30.233   9.752  46.310  1.00  0.00     0.012 A 
HETATM   20  C5  UNL     1      30.095  11.013  45.792  1.00  0.00     0.001 A 
HETATM   21  C6  UNL     1      30.478  12.122  46.513  1.00  0.00     0.000 A 
HETATM   22  C7  UNL     1      30.994  11.863  47.759  1.00  0.00     0.001 A 
HETATM   23  C8  UNL     1      31.149  10.626  48.313  1.00  0.00     0.012 A 
ENDBRANCH   2  18
TORSDOF 1
ENDMDL
MODEL 9
REMARK VINA RESULT:      -7.1      2.622      4.916
REMARK  1 active torsions:
REMARK  status: ('A' for Active; 'I' for Inactive)
REMARK    1  A    between atoms: C2_2  and  C3_3 
ROOT
HETATM    1  C1  UNL     1      26.997   4.361  48.946  1.00  0.00     0.007 C 
HETATM    2  C2  UNL     1      25.737   4.381  49.482  1.00  0.00    -0.014 C 
HETATM    3  C9  UNL     1      24.686   5.229  48.832  1.00  0.00     0.023 A 
HETATM    4  C10 UNL     1      24.585   6.591  48.399  1.00  0.00    -0.000 A 
HETATM    5  C11 UNL     1      23.451   7.106  47.896  1.00  0.00     0.017 A 
HETATM    6  C12 UNL     1      22.328   6.330  47.774  1.00  0.00     0.040 A 
HETATM    7  C13 UNL     1      22.402   5.020  48.176  1.00  0.00     0.103 A 
HETATM    8  C14 UNL     1      23.538   4.447  48.697  1.00  0.00     0.114 A 
HETATM    9  O1  UNL     1      23.453   3.106  49.048  1.00  0.00    -0.345 OA
HETATM   10  C15 UNL     1      22.590   2.241  48.331  1.00  0.00     0.202 C 
HETATM   11  C16 UNL     1      21.236   2.870  48.124  1.00  0.00     0.202 C 
HETATM   12  O2  UNL     1      21.249   4.268  48.034  1.00  0.00    -0.346 OA
HETATM   13  C17 UNL     1      25.851   7.349  48.475  1.00  0.00     0.052 A 
HETATM   14  N1  UNL     1      26.860   7.319  47.584  1.00  0.00    -0.176 NA
HETATM   15  N2  UNL     1      27.561   6.762  48.691  1.00  0.00    -0.319 N 
HETATM   16  C18 UNL     1      28.050   5.400  48.589  1.00  0.00     0.167 C 
HETATM   17  C19 UNL     1      27.037   8.175  48.757  1.00  0.00     0.273 A 
ENDROOT
BRANCH   2  18
HETATM   18  C3  UNL     1      25.488   3.560  50.670  1.00  0.00    -0.025 A 
HETATM   19  C4  UNL     1      24.570   3.800  51.660  1.00  0.00     0.012 A 
HETATM   20  C5  UNL     1      24.399   2.926  52.701  1.00  0.00     0.001 A 
HETATM   21  C6  UNL     1      25.148   1.774  52.790  1.00  0.00     0.000 A 
HETATM   22  C7  UNL     1      26.054   1.582  51.775  1.00  0.00     0.001 A 
HETATM   23  C8  UNL     1      26.256   2.424  50.722  1.00  0.00     0.012 A 
ENDBRANCH   2  18
TORSDOF 1
ENDMDL
