MODEL 1
REMARK VINA RESULT:      -7.4      0.000      0.000
REMARK  7 active torsions:
REMARK  status: ('A' for Active; 'I' for Inactive)
REMARK    1  A    between atoms: O1_1  and  C1_2 
REMARK    2  A    between atoms: C4_5  and  C5_6 
REMARK    3  A    between atoms: C5_6  and  N1_7 
REMARK    4  A    between atoms: N1_7  and  C6_8 
REMARK    5  A    between atoms: N1_7  and  C7_10 
REMARK    6  A    between atoms: C7_10  and  N2_12 
REMARK    7  A    between atoms: N2_12  and  C8_13 
ROOT
HETATM    1  N1  UNL     1      24.408   2.770  51.651  1.00  0.00    -0.328 N 
ENDROOT
BRANCH   1   2
HETATM    2  C5  UNL     1      23.617   1.679  51.137  1.00  0.00     0.166 C 
BRANCH   2   3
HETATM    3  C4  UNL     1      23.123   0.792  52.227  1.00  0.00    -0.040 A 
HETATM    4  C3  UNL     1      21.728   0.669  52.184  1.00  0.00     0.011 A 
HETATM    5  C2  UNL     1      21.033  -0.101  53.091  1.00  0.00     0.037 A 
HETATM    6  C1  UNL     1      21.761  -0.757  54.058  1.00  0.00     0.065 A 
HETATM    7  C15 UNL     1      23.137  -0.643  54.111  1.00  0.00     0.037 A 
HETATM    8  C14 UNL     1      23.833   0.134  53.195  1.00  0.00     0.011 A 
BRANCH   6   9
HETATM    9  O1  UNL     1      21.087  -1.539  54.985  1.00  0.00    -0.361 OA
HETATM   10  H1  UNL     1      21.012  -2.541  54.839  1.00  0.00     0.217 HD
ENDBRANCH   6   9
ENDBRANCH   2   3
ENDBRANCH   1   2
BRANCH   1  11
HETATM   11  C6  UNL     1      23.890   3.626  52.677  1.00  0.00     0.350 C 
HETATM   12  F1  UNL     1      24.516   3.408  53.880  1.00  0.00    -0.234 F 
ENDBRANCH   1  11
BRANCH   1  13
HETATM   13  C7  UNL     1      25.719   3.006  51.161  1.00  0.00     0.176 C 
HETATM   14  S1  UNL     1      26.017   3.442  49.634  1.00  0.00    -0.041 SA
BRANCH  13  15
HETATM   15  N2  UNL     1      26.904   2.887  51.933  1.00  0.00    -0.333 N 
HETATM   16  H8  UNL     1      27.628   3.591  52.201  1.00  0.00     0.168 HD
BRANCH  15  17
HETATM   17  C8  UNL     1      27.443   1.733  52.574  1.00  0.00     0.034 A 
HETATM   18  C9  UNL     1      28.391   2.140  53.489  1.00  0.00     0.029 A 
HETATM   19  C10 UNL     1      29.085   1.218  54.274  1.00  0.00     0.002 A 
HETATM   20  C11 UNL     1      28.792  -0.139  54.101  1.00  0.00     0.000 A 
HETATM   21  C12 UNL     1      27.844  -0.535  53.182  1.00  0.00     0.002 A 
HETATM   22  C13 UNL     1      27.165   0.392  52.415  1.00  0.00     0.029 A 
ENDBRANCH  15  17
ENDBRANCH  13  15
ENDBRANCH   1  13
TORSDOF 7
ENDMDL
MODEL 2
REMARK VINA RESULT:      -7.3      2.215      5.290
REMARK  7 active torsions:
REMARK  status: ('A' for Active; 'I' for Inactive)
REMARK    1  A    between atoms: O1_1  and  C1_2 
REMARK    2  A    between atoms: C4_5  and  C5_6 
REMARK    3  A    between atoms: C5_6  and  N1_7 
REMARK    4  A    between atoms: N1_7  and  C6_8 
REMARK    5  A    between atoms: N1_7  and  C7_10 
REMARK    6  A    between atoms: C7_10  and  N2_12 
REMARK    7  A    between atoms: N2_12  and  C8_13 
ROOT
HETATM    1  N1  UNL     1      25.598   2.012  52.473  1.00  0.00    -0.328 N 
ENDROOT
BRANCH   1   2
HETATM    2  C5  UNL     1      26.914   1.643  52.012  1.00  0.00     0.166 C 
BRANCH   2   3
HETATM    3  C4  UNL     1      27.235   0.223  52.329  1.00  0.00    -0.040 A 
HETATM    4  C3  UNL     1      28.462   0.120  52.997  1.00  0.00     0.011 A 
HETATM    5  C2  UNL     1      28.977  -1.093  53.397  1.00  0.00     0.037 A 
HETATM    6  C1  UNL     1      28.240  -2.222  53.116  1.00  0.00     0.065 A 
HETATM    7  C15 UNL     1      27.028  -2.132  52.458  1.00  0.00     0.037 A 
HETATM    8  C14 UNL     1      26.513  -0.907  52.057  1.00  0.00     0.011 A 
BRANCH   6   9
HETATM    9  O1  UNL     1      28.734  -3.457  53.507  1.00  0.00    -0.361 OA
HETATM   10  H1  UNL     1      28.302  -3.951  54.281  1.00  0.00     0.217 HD
ENDBRANCH   6   9
ENDBRANCH   2   3
ENDBRANCH   1   2
BRANCH   1  11
HETATM   11  C6  UNL     1      25.387   2.412  53.833  1.00  0.00     0.350 C 
HETATM   12  F1  UNL     1      24.490   3.448  53.921  1.00  0.00    -0.234 F 
ENDBRANCH   1  11
BRANCH   1  13
HETATM   13  C7  UNL     1      24.492   2.001  51.583  1.00  0.00     0.176 C 
HETATM   14  S1  UNL     1      24.255   3.147  50.469  1.00  0.00    -0.041 SA
BRANCH  13  15
HETATM   15  N2  UNL     1      23.479   1.008  51.565  1.00  0.00    -0.333 N 
HETATM   16  H8  UNL     1      23.153   0.367  50.807  1.00  0.00     0.168 HD
BRANCH  15  17
HETATM   17  C8  UNL     1      22.602   0.603  52.614  1.00  0.00     0.034 A 
HETATM   18  C9  UNL     1      23.145  -0.499  53.241  1.00  0.00     0.029 A 
HETATM   19  C10 UNL     1      22.501  -1.111  54.318  1.00  0.00     0.002 A 
HETATM   20  C11 UNL     1      21.282  -0.573  54.743  1.00  0.00     0.000 A 
HETATM   21  C12 UNL     1      20.748   0.528  54.109  1.00  0.00     0.002 A 
HETATM   22  C13 UNL     1      21.400   1.122  53.045  1.00  0.00     0.029 A 
ENDBRANCH  15  17
ENDBRANCH  13  15
ENDBRANCH   1  13
TORSDOF 7
ENDMDL
MODEL 3
REMARK VINA RESULT:      -7.1      2.441      5.477
REMARK  7 active torsions:
REMARK  status: ('A' for Active; 'I' for Inactive)
REMARK    1  A    between atoms: O1_1  and  C1_2 
REMARK    2  A    between atoms: C4_5  and  C5_6 
REMARK    3  A    between atoms: C5_6  and  N1_7 
REMARK    4  A    between atoms: N1_7  and  C6_8 
REMARK    5  A    between atoms: N1_7  and  C7_10 
REMARK    6  A    between atoms: C7_10  and  N2_12 
REMARK    7  A    between atoms: N2_12  and  C8_13 
ROOT
HETATM    1  N1  UNL     1      25.960   2.156  51.892  1.00  0.00    -0.328 N 
ENDROOT
BRANCH   1   2
HETATM    2  C5  UNL     1      26.831   1.756  52.969  1.00  0.00     0.166 C 
BRANCH   2   3
HETATM    3  C4  UNL     1      27.163   0.305  52.904  1.00  0.00    -0.040 A 
HETATM    4  C3  UNL     1      28.406   0.045  53.494  1.00  0.00     0.011 A 
HETATM    5  C2  UNL     1      28.935  -1.226  53.557  1.00  0.00     0.037 A 
HETATM    6  C1  UNL     1      28.193  -2.251  53.014  1.00  0.00     0.065 A 
HETATM    7  C15 UNL     1      26.965  -2.007  52.430  1.00  0.00     0.037 A 
HETATM    8  C14 UNL     1      26.437  -0.724  52.368  1.00  0.00     0.011 A 
BRANCH   6   9
HETATM    9  O1  UNL     1      28.700  -3.542  53.064  1.00  0.00    -0.361 OA
HETATM   10  H1  UNL     1      28.685  -4.056  53.938  1.00  0.00     0.217 HD
ENDBRANCH   6   9
ENDBRANCH   2   3
ENDBRANCH   1   2
BRANCH   1  11
HETATM   11  C6  UNL     1      26.491   2.438  50.591  1.00  0.00     0.350 C 
HETATM   12  F1  UNL     1      25.537   2.975  49.761  1.00  0.00    -0.234 F 
ENDBRANCH   1  11
BRANCH   1  13
HETATM   13  C7  UNL     1      24.559   2.259  52.095  1.00  0.00     0.176 C 
HETATM   14  S1  UNL     1      23.854   3.602  52.654  1.00  0.00    -0.041 SA
BRANCH  13  15
HETATM   15  N2  UNL     1      23.626   1.221  51.843  1.00  0.00    -0.333 N 
HETATM   16  H8  UNL     1      23.263   0.820  50.949  1.00  0.00     0.168 HD
BRANCH  15  17
HETATM   17  C8  UNL     1      22.908   0.415  52.776  1.00  0.00     0.034 A 
HETATM   18  C9  UNL     1      21.566   0.469  52.462  1.00  0.00     0.029 A 
HETATM   19  C10 UNL     1      20.618  -0.234  53.209  1.00  0.00     0.002 A 
HETATM   20  C11 UNL     1      21.073  -0.996  54.291  1.00  0.00     0.000 A 
HETATM   21  C12 UNL     1      22.416  -1.041  54.596  1.00  0.00     0.002 A 
HETATM   22  C13 UNL     1      23.340  -0.340  53.845  1.00  0.00     0.029 A 
ENDBRANCH  15  17
ENDBRANCH  13  15
ENDBRANCH   1  13
TORSDOF 7
ENDMDL
MODEL 4
REMARK VINA RESULT:      -6.4      2.928      5.123
REMARK  7 active torsions:
REMARK  status: ('A' for Active; 'I' for Inactive)
REMARK    1  A    between atoms: O1_1  and  C1_2 
REMARK    2  A    between atoms: C4_5  and  C5_6 
REMARK    3  A    between atoms: C5_6  and  N1_7 
REMARK    4  A    between atoms: N1_7  and  C6_8 
REMARK    5  A    between atoms: N1_7  and  C7_10 
REMARK    6  A    between atoms: C7_10  and  N2_12 
REMARK    7  A    between atoms: N2_12  and  C8_13 
ROOT
HETATM    1  N1  UNL     1      23.501   1.927  52.514  1.00  0.00    -0.328 N 
ENDROOT
BRANCH   1   2
HETATM    2  C5  UNL     1      24.718   2.306  53.188  1.00  0.00     0.166 C 
BRANCH   2   3
HETATM    3  C4  UNL     1      25.743   1.227  53.131  1.00  0.00    -0.040 A 
HETATM    4  C3  UNL     1      26.394   1.083  54.363  1.00  0.00     0.011 A 
HETATM    5  C2  UNL     1      27.385   0.147  54.562  1.00  0.00     0.037 A 
HETATM    6  C1  UNL     1      27.725  -0.656  53.497  1.00  0.00     0.065 A 
HETATM    7  C15 UNL     1      27.089  -0.524  52.277  1.00  0.00     0.037 A 
HETATM    8  C14 UNL     1      26.091   0.421  52.081  1.00  0.00     0.011 A 
BRANCH   6   9
HETATM    9  O1  UNL     1      28.720  -1.607  53.668  1.00  0.00    -0.361 OA
HETATM   10  H1  UNL     1      28.506  -2.481  54.137  1.00  0.00     0.217 HD
ENDBRANCH   6   9
ENDBRANCH   2   3
ENDBRANCH   1   2
BRANCH   1  11
HETATM   11  C6  UNL     1      22.770   0.766  52.928  1.00  0.00     0.350 C 
HETATM   12  F1  UNL     1      22.212   0.111  51.857  1.00  0.00    -0.234 F 
ENDBRANCH   1  11
BRANCH   1  13
HETATM   13  C7  UNL     1      22.996   2.706  51.441  1.00  0.00     0.176 C 
HETATM   14  S1  UNL     1      21.658   3.605  51.566  1.00  0.00    -0.041 SA
BRANCH  13  15
HETATM   15  N2  UNL     1      23.587   2.789  50.154  1.00  0.00    -0.333 N 
HETATM   16  H8  UNL     1      23.335   2.336  49.247  1.00  0.00     0.168 HD
BRANCH  15  17
HETATM   17  C8  UNL     1      24.724   3.543  49.737  1.00  0.00     0.034 A 
HETATM   18  C9  UNL     1      24.292   4.755  49.244  1.00  0.00     0.029 A 
HETATM   19  C10 UNL     1      25.195   5.707  48.766  1.00  0.00     0.002 A 
HETATM   20  C11 UNL     1      26.557   5.391  48.800  1.00  0.00     0.000 A 
HETATM   21  C12 UNL     1      26.978   4.175  49.295  1.00  0.00     0.002 A 
HETATM   22  C13 UNL     1      26.070   3.246  49.765  1.00  0.00     0.029 A 
ENDBRANCH  15  17
ENDBRANCH  13  15
ENDBRANCH   1  13
TORSDOF 7
ENDMDL
MODEL 5
REMARK VINA RESULT:      -6.4      2.793      4.095
REMARK  7 active torsions:
REMARK  status: ('A' for Active; 'I' for Inactive)
REMARK    1  A    between atoms: O1_1  and  C1_2 
REMARK    2  A    between atoms: C4_5  and  C5_6 
REMARK    3  A    between atoms: C5_6  and  N1_7 
REMARK    4  A    between atoms: N1_7  and  C6_8 
REMARK    5  A    between atoms: N1_7  and  C7_10 
REMARK    6  A    between atoms: C7_10  and  N2_12 
REMARK    7  A    between atoms: N2_12  and  C8_13 
ROOT
HETATM    1  N1  UNL     1      23.773   2.973  51.921  1.00  0.00    -0.328 N 
ENDROOT
BRANCH   1   2
HETATM    2  C5  UNL     1      23.845   1.599  51.488  1.00  0.00     0.166 C 
BRANCH   2   3
HETATM    3  C4  UNL     1      23.189   0.678  52.458  1.00  0.00    -0.040 A 
HETATM    4  C3  UNL     1      21.798   0.688  52.301  1.00  0.00     0.011 A 
HETATM    5  C2  UNL     1      20.967  -0.084  53.084  1.00  0.00     0.037 A 
HETATM    6  C1  UNL     1      21.555  -0.880  54.042  1.00  0.00     0.065 A 
HETATM    7  C15 UNL     1      22.927  -0.898  54.206  1.00  0.00     0.037 A 
HETATM    8  C14 UNL     1      23.759  -0.118  53.414  1.00  0.00     0.011 A 
BRANCH   6   9
HETATM    9  O1  UNL     1      20.744  -1.668  54.846  1.00  0.00    -0.361 OA
HETATM   10  H1  UNL     1      21.001  -2.632  55.029  1.00  0.00     0.217 HD
ENDBRANCH   6   9
ENDBRANCH   2   3
ENDBRANCH   1   2
BRANCH   1  11
HETATM   11  C6  UNL     1      24.165   3.340  53.250  1.00  0.00     0.350 C 
HETATM   12  F1  UNL     1      25.403   2.839  53.569  1.00  0.00    -0.234 F 
ENDBRANCH   1  11
BRANCH   1  13
HETATM   13  C7  UNL     1      23.330   3.988  51.034  1.00  0.00     0.176 C 
HETATM   14  S1  UNL     1      22.211   5.080  51.444  1.00  0.00    -0.041 SA
BRANCH  13  15
HETATM   15  N2  UNL     1      23.800   4.165  49.707  1.00  0.00    -0.333 N 
HETATM   16  H8  UNL     1      23.422   3.838  48.790  1.00  0.00     0.168 HD
BRANCH  15  17
HETATM   17  C8  UNL     1      24.958   4.864  49.254  1.00  0.00     0.034 A 
HETATM   18  C9  UNL     1      26.047   4.024  49.354  1.00  0.00     0.029 A 
HETATM   19  C10 UNL     1      27.323   4.442  48.972  1.00  0.00     0.002 A 
HETATM   20  C11 UNL     1      27.466   5.745  48.484  1.00  0.00     0.000 A 
HETATM   21  C12 UNL     1      26.371   6.577  48.390  1.00  0.00     0.002 A 
HETATM   22  C13 UNL     1      25.114   6.146  48.771  1.00  0.00     0.029 A 
ENDBRANCH  15  17
ENDBRANCH  13  15
ENDBRANCH   1  13
TORSDOF 7
ENDMDL
MODEL 6
REMARK VINA RESULT:      -6.3      2.871      4.743
REMARK  7 active torsions:
REMARK  status: ('A' for Active; 'I' for Inactive)
REMARK    1  A    between atoms: O1_1  and  C1_2 
REMARK    2  A    between atoms: C4_5  and  C5_6 
REMARK    3  A    between atoms: C5_6  and  N1_7 
REMARK    4  A    between atoms: N1_7  and  C6_8 
REMARK    5  A    between atoms: N1_7  and  C7_10 
REMARK    6  A    between atoms: C7_10  and  N2_12 
REMARK    7  A    between atoms: N2_12  and  C8_13 
ROOT
HETATM    1  N1  UNL     1      22.546   3.192  51.956  1.00  0.00    -0.328 N 
ENDROOT
BRANCH   1   2
HETATM    2  C5  UNL     1      22.777   2.090  52.855  1.00  0.00     0.166 C 
BRANCH   2   3
HETATM    3  C4  UNL     1      24.227   1.768  52.976  1.00  0.00    -0.040 A 
HETATM    4  C3  UNL     1      24.475   0.427  52.657  1.00  0.00     0.011 A 
HETATM    5  C2  UNL     1      25.742  -0.112  52.695  1.00  0.00     0.037 A 
HETATM    6  C1  UNL     1      26.777   0.719  53.062  1.00  0.00     0.065 A 
HETATM    7  C15 UNL     1      26.544   2.044  53.379  1.00  0.00     0.037 A 
HETATM    8  C14 UNL     1      25.265   2.582  53.339  1.00  0.00     0.011 A 
BRANCH   6   9
HETATM    9  O1  UNL     1      28.064   0.203  53.109  1.00  0.00    -0.361 OA
HETATM   10  H1  UNL     1      28.204  -0.802  53.109  1.00  0.00     0.217 HD
ENDBRANCH   6   9
ENDBRANCH   2   3
ENDBRANCH   1   2
BRANCH   1  11
HETATM   11  C6  UNL     1      22.355   4.520  52.463  1.00  0.00     0.350 C 
HETATM   12  F1  UNL     1      23.536   5.218  52.508  1.00  0.00    -0.234 F 
ENDBRANCH   1  11
BRANCH   1  13
HETATM   13  C7  UNL     1      22.521   2.987  50.551  1.00  0.00     0.176 C 
HETATM   14  S1  UNL     1      21.889   1.663  49.873  1.00  0.00    -0.041 SA
BRANCH  13  15
HETATM   15  N2  UNL     1      23.039   3.894  49.592  1.00  0.00    -0.333 N 
HETATM   16  H8  UNL     1      22.567   4.465  48.854  1.00  0.00     0.168 HD
BRANCH  15  17
HETATM   17  C8  UNL     1      24.392   4.286  49.369  1.00  0.00     0.034 A 
HETATM   18  C9  UNL     1      25.213   3.216  49.654  1.00  0.00     0.029 A 
HETATM   19  C10 UNL     1      26.600   3.309  49.519  1.00  0.00     0.002 A 
HETATM   20  C11 UNL     1      27.134   4.527  49.086  1.00  0.00     0.000 A 
HETATM   21  C12 UNL     1      26.304   5.591  48.805  1.00  0.00     0.002 A 
HETATM   22  C13 UNL     1      24.933   5.480  48.943  1.00  0.00     0.029 A 
ENDBRANCH  15  17
ENDBRANCH  13  15
ENDBRANCH   1  13
TORSDOF 7
ENDMDL
MODEL 7
REMARK VINA RESULT:      -6.3      3.742      6.363
REMARK  7 active torsions:
REMARK  status: ('A' for Active; 'I' for Inactive)
REMARK    1  A    between atoms: O1_1  and  C1_2 
REMARK    2  A    between atoms: C4_5  and  C5_6 
REMARK    3  A    between atoms: C5_6  and  N1_7 
REMARK    4  A    between atoms: N1_7  and  C6_8 
REMARK    5  A    between atoms: N1_7  and  C7_10 
REMARK    6  A    between atoms: C7_10  and  N2_12 
REMARK    7  A    between atoms: N2_12  and  C8_13 
ROOT
HETATM    1  N1  UNL     1      24.504   3.069  51.408  1.00  0.00    -0.328 N 
ENDROOT
BRANCH   1   2
HETATM    2  C5  UNL     1      24.381   3.190  49.977  1.00  0.00     0.166 C 
BRANCH   2   3
HETATM    3  C4  UNL     1      25.206   4.310  49.443  1.00  0.00    -0.040 A 
HETATM    4  C3  UNL     1      26.538   3.915  49.265  1.00  0.00     0.011 A 
HETATM    5  C2  UNL     1      27.498   4.777  48.780  1.00  0.00     0.037 A 
HETATM    6  C1  UNL     1      27.105   6.059  48.472  1.00  0.00     0.065 A 
HETATM    7  C15 UNL     1      25.794   6.460  48.643  1.00  0.00     0.037 A 
HETATM    8  C14 UNL     1      24.830   5.588  49.132  1.00  0.00     0.011 A 
BRANCH   6   9
HETATM    9  O1  UNL     1      28.050   6.949  47.982  1.00  0.00    -0.361 OA
HETATM   10  H1  UNL     1      29.037   6.725  48.055  1.00  0.00     0.217 HD
ENDBRANCH   6   9
ENDBRANCH   2   3
ENDBRANCH   1   2
BRANCH   1  11
HETATM   11  C6  UNL     1      23.969   4.078  52.274  1.00  0.00     0.350 C 
HETATM   12  F1  UNL     1      24.156   3.760  53.597  1.00  0.00    -0.234 F 
ENDBRANCH   1  11
BRANCH   1  13
HETATM   13  C7  UNL     1      25.141   1.940  51.986  1.00  0.00     0.176 C 
HETATM   14  S1  UNL     1      26.688   1.953  52.455  1.00  0.00    -0.041 SA
BRANCH  13  15
HETATM   15  N2  UNL     1      24.515   0.687  52.216  1.00  0.00    -0.333 N 
HETATM   16  H8  UNL     1      24.737  -0.271  51.865  1.00  0.00     0.168 HD
BRANCH  15  17
HETATM   17  C8  UNL     1      23.374   0.391  53.018  1.00  0.00     0.034 A 
HETATM   18  C9  UNL     1      23.709  -0.609  53.907  1.00  0.00     0.029 A 
HETATM   19  C10 UNL     1      22.782  -1.101  54.828  1.00  0.00     0.002 A 
HETATM   20  C11 UNL     1      21.496  -0.550  54.820  1.00  0.00     0.000 A 
HETATM   21  C12 UNL     1      21.172   0.448  53.926  1.00  0.00     0.002 A 
HETATM   22  C13 UNL     1      22.103   0.924  53.022  1.00  0.00     0.029 A 
ENDBRANCH  15  17
ENDBRANCH  13  15
ENDBRANCH   1  13
TORSDOF 7
ENDMDL
MODEL 8
REMARK VINA RESULT:      -6.3      3.563      5.208
REMARK  7 active torsions:
REMARK  status: ('A' for Active; 'I' for Inactive)
REMARK    1  A    between atoms: O1_1  and  C1_2 
REMARK    2  A    between atoms: C4_5  and  C5_6 
REMARK    3  A    between atoms: C5_6  and  N1_7 
REMARK    4  A    between atoms: N1_7  and  C6_8 
REMARK    5  A    between atoms: N1_7  and  C7_10 
REMARK    6  A    between atoms: C7_10  and  N2_12 
REMARK    7  A    between atoms: N2_12  and  C8_13 
ROOT
HETATM    1  N1  UNL     1      22.523   2.764  51.052  1.00  0.00    -0.328 N 
ENDROOT
BRANCH   1   2
HETATM    2  C5  UNL     1      23.046   2.725  49.709  1.00  0.00     0.166 C 
BRANCH   2   3
HETATM    3  C4  UNL     1      24.360   3.419  49.605  1.00  0.00    -0.040 A 
HETATM    4  C3  UNL     1      24.209   4.711  49.086  1.00  0.00     0.011 A 
HETATM    5  C2  UNL     1      25.282   5.553  48.895  1.00  0.00     0.037 A 
HETATM    6  C1  UNL     1      26.530   5.081  49.234  1.00  0.00     0.065 A 
HETATM    7  C15 UNL     1      26.692   3.808  49.747  1.00  0.00     0.037 A 
HETATM    8  C14 UNL     1      25.607   2.963  49.938  1.00  0.00     0.011 A 
BRANCH   6   9
HETATM    9  O1  UNL     1      27.630   5.907  49.052  1.00  0.00    -0.361 OA
HETATM   10  H1  UNL     1      28.350   5.646  48.387  1.00  0.00     0.217 HD
ENDBRANCH   6   9
ENDBRANCH   2   3
ENDBRANCH   1   2
BRANCH   1  11
HETATM   11  C6  UNL     1      21.994   3.981  51.593  1.00  0.00     0.350 C 
HETATM   12  F1  UNL     1      21.149   3.739  52.648  1.00  0.00    -0.234 F 
ENDBRANCH   1  11
BRANCH   1  13
HETATM   13  C7  UNL     1      22.507   1.594  51.856  1.00  0.00     0.176 C 
HETATM   14  S1  UNL     1      21.487   0.368  51.593  1.00  0.00    -0.041 SA
BRANCH  13  15
HETATM   15  N2  UNL     1      23.361   1.362  52.964  1.00  0.00    -0.333 N 
HETATM   16  H8  UNL     1      23.152   1.117  53.958  1.00  0.00     0.168 HD
BRANCH  15  17
HETATM   17  C8  UNL     1      24.785   1.403  53.021  1.00  0.00     0.034 A 
HETATM   18  C9  UNL     1      25.284   0.321  52.326  1.00  0.00     0.029 A 
HETATM   19  C10 UNL     1      26.659   0.107  52.208  1.00  0.00     0.002 A 
HETATM   20  C11 UNL     1      27.519   1.024  52.821  1.00  0.00     0.000 A 
HETATM   21  C12 UNL     1      27.009   2.100  53.515  1.00  0.00     0.002 A 
HETATM   22  C13 UNL     1      25.645   2.298  53.620  1.00  0.00     0.029 A 
ENDBRANCH  15  17
ENDBRANCH  13  15
ENDBRANCH   1  13
TORSDOF 7
ENDMDL
MODEL 9
REMARK VINA RESULT:      -6.2      1.916      2.607
REMARK  7 active torsions:
REMARK  status: ('A' for Active; 'I' for Inactive)
REMARK    1  A    between atoms: O1_1  and  C1_2 
REMARK    2  A    between atoms: C4_5  and  C5_6 
REMARK    3  A    between atoms: C5_6  and  N1_7 
REMARK    4  A    between atoms: N1_7  and  C6_8 
REMARK    5  A    between atoms: N1_7  and  C7_10 
REMARK    6  A    between atoms: C7_10  and  N2_12 
REMARK    7  A    between atoms: N2_12  and  C8_13 
ROOT
HETATM    1  N1  UNL     1      23.950   4.293  50.610  1.00  0.00    -0.328 N 
ENDROOT
BRANCH   1   2
HETATM    2  C5  UNL     1      22.894   3.577  49.937  1.00  0.00     0.166 C 
BRANCH   2   3
HETATM    3  C4  UNL     1      22.154   2.678  50.867  1.00  0.00    -0.040 A 
HETATM    4  C3  UNL     1      22.214   1.347  50.435  1.00  0.00     0.011 A 
HETATM    5  C2  UNL     1      21.605   0.325  51.130  1.00  0.00     0.037 A 
HETATM    6  C1  UNL     1      20.923   0.655  52.280  1.00  0.00     0.065 A 
HETATM    7  C15 UNL     1      20.858   1.965  52.715  1.00  0.00     0.037 A 
HETATM    8  C14 UNL     1      21.473   2.991  52.012  1.00  0.00     0.011 A 
BRANCH   6   9
HETATM    9  O1  UNL     1      20.299  -0.354  52.999  1.00  0.00    -0.361 OA
HETATM   10  H1  UNL     1      19.523  -0.129  53.613  1.00  0.00     0.217 HD
ENDBRANCH   6   9
ENDBRANCH   2   3
ENDBRANCH   1   2
BRANCH   1  11
HETATM   11  C6  UNL     1      23.716   5.600  51.149  1.00  0.00     0.350 C 
HETATM   12  F1  UNL     1      23.672   5.580  52.522  1.00  0.00    -0.234 F 
ENDBRANCH   1  11
BRANCH   1  13
HETATM   13  C7  UNL     1      25.234   3.709  50.765  1.00  0.00     0.176 C 
HETATM   14  S1  UNL     1      26.329   3.675  49.577  1.00  0.00    -0.041 SA
BRANCH  13  15
HETATM   15  N2  UNL     1      25.705   3.093  51.954  1.00  0.00    -0.333 N 
HETATM   16  H8  UNL     1      26.096   3.498  52.834  1.00  0.00     0.168 HD
BRANCH  15  17
HETATM   17  C8  UNL     1      25.771   1.706  52.278  1.00  0.00     0.034 A 
HETATM   18  C9  UNL     1      24.716   1.398  53.112  1.00  0.00     0.029 A 
HETATM   19  C10 UNL     1      24.524   0.100  53.589  1.00  0.00     0.002 A 
HETATM   20  C11 UNL     1      25.439  -0.883  53.197  1.00  0.00     0.000 A 
HETATM   21  C12 UNL     1      26.490  -0.564  52.365  1.00  0.00     0.002 A 
HETATM   22  C13 UNL     1      26.664   0.726  51.901  1.00  0.00     0.029 A 
ENDBRANCH  15  17
ENDBRANCH  13  15
ENDBRANCH   1  13
TORSDOF 7
ENDMDL
