MODEL 1
REMARK VINA RESULT:      -9.0      0.000      0.000
REMARK  4 active torsions:
REMARK  status: ('A' for Active; 'I' for Inactive)
REMARK    1  A    between atoms: S1_2  and  N1_5 
REMARK    2  A    between atoms: N1_5  and  C2_6 
REMARK    3  A    between atoms: C10_15  and  N3_16 
REMARK    4  A    between atoms: N3_16  and  C11_17 
ROOT
HETATM    1  C2  UNL     1      18.346   0.361  50.521  1.00  0.00     0.043 A 
HETATM    2  C3  UNL     1      17.769  -0.237  51.612  1.00  0.00     0.033 A 
HETATM    3  C4  UNL     1      18.565  -0.548  52.694  1.00  0.00     0.040 A 
HETATM    4  C5  UNL     1      19.904  -0.247  52.636  1.00  0.00     0.086 A 
HETATM    5  C6  UNL     1      20.542   0.352  51.570  1.00  0.00    -0.004 A 
HETATM    6  C7  UNL     1      19.694   0.647  50.503  1.00  0.00     0.041 A 
HETATM    7  C8  UNL     1      21.895   0.774  51.235  1.00  0.00     0.161 C 
HETATM    8  N2  UNL     1      22.820   0.830  52.348  1.00  0.00    -0.379 N 
HETATM    9  C9  UNL     1      22.887  -0.042  53.472  1.00  0.00     0.129 A 
HETATM   10  C10 UNL     1      24.185  -0.195  53.909  1.00  0.00     0.160 A 
HETATM   11  N5  UNL     1      24.366  -0.981  54.970  1.00  0.00    -0.222 NA
HETATM   12  C16 UNL     1      23.356  -1.599  55.594  1.00  0.00     0.238 A 
HETATM   13  N6  UNL     1      22.079  -1.473  55.196  1.00  0.00    -0.215 NA
HETATM   14  C17 UNL     1      21.842  -0.694  54.133  1.00  0.00     0.202 A 
HETATM   15  O3  UNL     1      20.497  -0.647  53.823  1.00  0.00    -0.289 OA
HETATM   16  H10 UNL     1      23.562   1.569  52.425  1.00  0.00     0.160 HD
ENDROOT
BRANCH  10  17
HETATM   17  N3  UNL     1      25.302   0.397  53.278  1.00  0.00    -0.338 N 
HETATM   18  H11 UNL     1      25.370   1.177  52.593  1.00  0.00     0.167 HD
BRANCH  17  19
HETATM   19  C11 UNL     1      26.654  -0.034  53.497  1.00  0.00     0.051 A 
HETATM   20  C12 UNL     1      27.176  -1.154  52.880  1.00  0.00     0.035 A 
HETATM   21  C13 UNL     1      28.473  -1.592  53.041  1.00  0.00     0.066 A 
HETATM   22  C14 UNL     1      29.319  -0.885  53.866  1.00  0.00     0.209 A 
HETATM   23  F1  UNL     1      30.607  -1.258  54.070  1.00  0.00    -0.184 F 
HETATM   24  N4  UNL     1      28.841   0.208  54.481  1.00  0.00    -0.231 NA
HETATM   25  C15 UNL     1      27.574   0.606  54.301  1.00  0.00     0.149 A 
ENDBRANCH  17  19
ENDBRANCH  10  17
BRANCH   1  26
HETATM   26  N1  UNL     1      17.452   0.645  49.457  1.00  0.00    -0.285 N 
HETATM   27  H4  UNL     1      17.579  -0.020  48.643  1.00  0.00     0.178 HD
BRANCH  26  28
HETATM   28  S1  UNL     1      16.279   1.915  49.448  1.00  0.00     0.227 S 
HETATM   29  C1  UNL     1      16.911   3.258  50.426  1.00  0.00     0.186 C 
HETATM   30  O1  UNL     1      14.976   1.475  50.044  1.00  0.00    -0.206 OA
HETATM   31  O2  UNL     1      16.082   2.422  48.066  1.00  0.00    -0.206 OA
ENDBRANCH  26  28
ENDBRANCH   1  26
TORSDOF 4
ENDMDL
MODEL 2
REMARK VINA RESULT:      -8.8      2.291      3.386
REMARK  4 active torsions:
REMARK  status: ('A' for Active; 'I' for Inactive)
REMARK    1  A    between atoms: S1_2  and  N1_5 
REMARK    2  A    between atoms: N1_5  and  C2_6 
REMARK    3  A    between atoms: C10_15  and  N3_16 
REMARK    4  A    between atoms: N3_16  and  C11_17 
ROOT
HETATM    1  C2  UNL     1      17.231  -0.794  52.680  1.00  0.00     0.043 A 
HETATM    2  C3  UNL     1      17.233  -0.031  51.541  1.00  0.00     0.033 A 
HETATM    3  C4  UNL     1      18.435   0.461  51.077  1.00  0.00     0.040 A 
HETATM    4  C5  UNL     1      19.581   0.167  51.775  1.00  0.00     0.086 A 
HETATM    5  C6  UNL     1      19.644  -0.593  52.924  1.00  0.00    -0.004 A 
HETATM    6  C7  UNL     1      18.403  -1.067  53.350  1.00  0.00     0.041 A 
HETATM    7  C8  UNL     1      20.673  -1.052  53.847  1.00  0.00     0.161 C 
HETATM    8  N2  UNL     1      22.035  -0.917  53.373  1.00  0.00    -0.379 N 
HETATM    9  C9  UNL     1      22.582   0.128  52.575  1.00  0.00     0.129 A 
HETATM   10  C10 UNL     1      23.901   0.363  52.894  1.00  0.00     0.160 A 
HETATM   11  N5  UNL     1      24.522   1.314  52.196  1.00  0.00    -0.222 NA
HETATM   12  C16 UNL     1      23.914   2.016  51.231  1.00  0.00     0.238 A 
HETATM   13  N6  UNL     1      22.630   1.815  50.894  1.00  0.00    -0.215 NA
HETATM   14  C17 UNL     1      21.960   0.870  51.566  1.00  0.00     0.202 A 
HETATM   15  O3  UNL     1      20.654   0.761  51.129  1.00  0.00    -0.289 OA
HETATM   16  H10 UNL     1      22.777  -1.626  53.590  1.00  0.00     0.160 HD
ENDROOT
BRANCH  10  17
HETATM   17  N3  UNL     1      24.593  -0.315  53.923  1.00  0.00    -0.338 N 
HETATM   18  H11 UNL     1      24.251  -0.794  54.781  1.00  0.00     0.167 HD
BRANCH  17  19
HETATM   19  C11 UNL     1      26.022  -0.454  53.955  1.00  0.00     0.051 A 
HETATM   20  C12 UNL     1      26.708  -1.198  53.017  1.00  0.00     0.035 A 
HETATM   21  C13 UNL     1      28.079  -1.340  52.992  1.00  0.00     0.066 A 
HETATM   22  C14 UNL     1      28.833  -0.710  53.957  1.00  0.00     0.209 A 
HETATM   23  F1  UNL     1      30.184  -0.805  53.993  1.00  0.00    -0.184 F 
HETATM   24  N4  UNL     1      28.195   0.022  54.884  1.00  0.00    -0.231 NA
HETATM   25  C15 UNL     1      26.860   0.139  54.877  1.00  0.00     0.149 A 
ENDBRANCH  17  19
ENDBRANCH  10  17
BRANCH   1  26
HETATM   26  N1  UNL     1      15.951  -1.257  53.082  1.00  0.00    -0.285 N 
HETATM   27  H4  UNL     1      15.601  -0.756  53.947  1.00  0.00     0.178 HD
BRANCH  26  28
HETATM   28  S1  UNL     1      15.037  -2.489  52.284  1.00  0.00     0.227 S 
HETATM   29  C1  UNL     1      15.707  -4.066  52.754  1.00  0.00     0.186 C 
HETATM   30  O1  UNL     1      15.123  -2.369  50.793  1.00  0.00    -0.206 OA
HETATM   31  O2  UNL     1      13.622  -2.451  52.736  1.00  0.00    -0.206 OA
ENDBRANCH  26  28
ENDBRANCH   1  26
TORSDOF 4
ENDMDL
MODEL 3
REMARK VINA RESULT:      -8.7      5.131      9.450
REMARK  4 active torsions:
REMARK  status: ('A' for Active; 'I' for Inactive)
REMARK    1  A    between atoms: S1_2  and  N1_5 
REMARK    2  A    between atoms: N1_5  and  C2_6 
REMARK    3  A    between atoms: C10_15  and  N3_16 
REMARK    4  A    between atoms: N3_16  and  C11_17 
ROOT
HETATM    1  C2  UNL     1      25.656  -0.207  53.882  1.00  0.00     0.043 A 
HETATM    2  C3  UNL     1      25.670   0.718  52.869  1.00  0.00     0.033 A 
HETATM    3  C4  UNL     1      24.471   1.089  52.296  1.00  0.00     0.040 A 
HETATM    4  C5  UNL     1      23.313   0.516  52.763  1.00  0.00     0.086 A 
HETATM    5  C6  UNL     1      23.235  -0.417  53.775  1.00  0.00    -0.004 A 
HETATM    6  C7  UNL     1      24.472  -0.757  54.321  1.00  0.00     0.041 A 
HETATM    7  C8  UNL     1      22.190  -1.173  54.453  1.00  0.00     0.161 C 
HETATM    8  N2  UNL     1      20.839  -0.703  54.226  1.00  0.00    -0.379 N 
HETATM    9  C9  UNL     1      20.293  -0.159  53.028  1.00  0.00     0.129 A 
HETATM   10  C10 UNL     1      18.961  -0.484  52.892  1.00  0.00     0.160 A 
HETATM   11  N5  UNL     1      18.341  -0.012  51.811  1.00  0.00    -0.222 NA
HETATM   12  C16 UNL     1      18.961   0.739  50.892  1.00  0.00     0.238 A 
HETATM   13  N6  UNL     1      20.258   1.074  50.990  1.00  0.00    -0.215 NA
HETATM   14  C17 UNL     1      20.927   0.625  52.060  1.00  0.00     0.202 A 
HETATM   15  O3  UNL     1      22.246   1.035  52.046  1.00  0.00    -0.289 OA
HETATM   16  H10 UNL     1      20.105  -0.722  54.976  1.00  0.00     0.160 HD
ENDROOT
BRANCH  10  17
HETATM   17  N3  UNL     1      18.255  -1.301  53.804  1.00  0.00    -0.338 N 
HETATM   18  H11 UNL     1      18.242  -1.317  54.844  1.00  0.00     0.167 HD
BRANCH  17  19
HETATM   19  C11 UNL     1      17.362  -2.349  53.396  1.00  0.00     0.051 A 
HETATM   20  C12 UNL     1      17.582  -3.671  53.728  1.00  0.00     0.035 A 
HETATM   21  C13 UNL     1      16.741  -4.707  53.381  1.00  0.00     0.066 A 
HETATM   22  C14 UNL     1      15.605  -4.429  52.654  1.00  0.00     0.209 A 
HETATM   23  F1  UNL     1      14.734  -5.398  52.279  1.00  0.00    -0.184 F 
HETATM   24  N4  UNL     1      15.363  -3.153  52.315  1.00  0.00    -0.231 NA
HETATM   25  C15 UNL     1      16.203  -2.171  52.671  1.00  0.00     0.149 A 
ENDBRANCH  17  19
ENDBRANCH  10  17
BRANCH   1  26
HETATM   26  N1  UNL     1      26.933  -0.527  54.410  1.00  0.00    -0.285 N 
HETATM   27  H4  UNL     1      26.900  -1.375  55.044  1.00  0.00     0.178 HD
BRANCH  26  28
HETATM   28  S1  UNL     1      28.396   0.336  54.085  1.00  0.00     0.227 S 
HETATM   29  C1  UNL     1      29.673  -0.851  53.742  1.00  0.00     0.186 C 
HETATM   30  O1  UNL     1      28.827   1.163  55.257  1.00  0.00    -0.206 OA
HETATM   31  O2  UNL     1      28.234   1.181  52.874  1.00  0.00    -0.206 OA
ENDBRANCH  26  28
ENDBRANCH   1  26
TORSDOF 4
ENDMDL
MODEL 4
REMARK VINA RESULT:      -8.6      7.085      9.298
REMARK  4 active torsions:
REMARK  status: ('A' for Active; 'I' for Inactive)
REMARK    1  A    between atoms: S1_2  and  N1_5 
REMARK    2  A    between atoms: N1_5  and  C2_6 
REMARK    3  A    between atoms: C10_15  and  N3_16 
REMARK    4  A    between atoms: N3_16  and  C11_17 
ROOT
HETATM    1  C2  UNL     1      28.029   6.223  48.356  1.00  0.00     0.043 A 
HETATM    2  C3  UNL     1      27.387   7.356  48.785  1.00  0.00     0.033 A 
HETATM    3  C4  UNL     1      26.231   7.219  49.526  1.00  0.00     0.040 A 
HETATM    4  C5  UNL     1      25.771   5.955  49.804  1.00  0.00     0.086 A 
HETATM    5  C6  UNL     1      26.371   4.781  49.401  1.00  0.00    -0.004 A 
HETATM    6  C7  UNL     1      27.535   4.973  48.656  1.00  0.00     0.041 A 
HETATM    7  C8  UNL     1      26.123   3.352  49.537  1.00  0.00     0.161 C 
HETATM    8  N2  UNL     1      25.144   2.987  50.541  1.00  0.00    -0.379 N 
HETATM    9  C9  UNL     1      23.955   3.686  50.896  1.00  0.00     0.129 A 
HETATM   10  C10 UNL     1      22.959   2.815  51.280  1.00  0.00     0.160 A 
HETATM   11  N5  UNL     1      21.801   3.361  51.650  1.00  0.00    -0.222 NA
HETATM   12  C16 UNL     1      21.594   4.684  51.656  1.00  0.00     0.238 A 
HETATM   13  N6  UNL     1      22.542   5.562  51.288  1.00  0.00    -0.215 NA
HETATM   14  C17 UNL     1      23.725   5.064  50.906  1.00  0.00     0.202 A 
HETATM   15  O3  UNL     1      24.610   6.064  50.552  1.00  0.00    -0.289 OA
HETATM   16  H10 UNL     1      25.240   2.123  51.130  1.00  0.00     0.160 HD
ENDROOT
BRANCH  10  17
HETATM   17  N3  UNL     1      23.096   1.408  51.263  1.00  0.00    -0.338 N 
HETATM   18  H11 UNL     1      23.203   0.738  50.475  1.00  0.00     0.167 HD
BRANCH  17  19
HETATM   19  C11 UNL     1      23.098   0.601  52.451  1.00  0.00     0.051 A 
HETATM   20  C12 UNL     1      21.931   0.139  53.026  1.00  0.00     0.035 A 
HETATM   21  C13 UNL     1      21.886  -0.658  54.150  1.00  0.00     0.066 A 
HETATM   22  C14 UNL     1      23.066  -1.027  54.756  1.00  0.00     0.209 A 
HETATM   23  F1  UNL     1      23.095  -1.809  55.863  1.00  0.00    -0.184 F 
HETATM   24  N4  UNL     1      24.218  -0.593  54.221  1.00  0.00    -0.231 NA
HETATM   25  C15 UNL     1      24.225   0.180  53.125  1.00  0.00     0.149 A 
ENDBRANCH  17  19
ENDBRANCH  10  17
BRANCH   1  26
HETATM   26  N1  UNL     1      29.208   6.459  47.602  1.00  0.00    -0.285 N 
HETATM   27  H4  UNL     1      28.995   6.660  46.584  1.00  0.00     0.178 HD
BRANCH  26  28
HETATM   28  S1  UNL     1      30.818   6.434  48.229  1.00  0.00     0.227 S 
HETATM   29  C1  UNL     1      31.945   6.368  46.856  1.00  0.00     0.186 C 
HETATM   30  O1  UNL     1      31.062   5.234  49.092  1.00  0.00    -0.206 OA
HETATM   31  O2  UNL     1      31.097   7.687  48.977  1.00  0.00    -0.206 OA
ENDBRANCH  26  28
ENDBRANCH   1  26
TORSDOF 4
ENDMDL
MODEL 5
REMARK VINA RESULT:      -8.5      7.182      9.416
REMARK  4 active torsions:
REMARK  status: ('A' for Active; 'I' for Inactive)
REMARK    1  A    between atoms: S1_2  and  N1_5 
REMARK    2  A    between atoms: N1_5  and  C2_6 
REMARK    3  A    between atoms: C10_15  and  N3_16 
REMARK    4  A    between atoms: N3_16  and  C11_17 
ROOT
HETATM    1  C2  UNL     1      26.172   0.843  52.112  1.00  0.00     0.043 A 
HETATM    2  C3  UNL     1      25.022   1.096  52.815  1.00  0.00     0.033 A 
HETATM    3  C4  UNL     1      24.337   2.267  52.564  1.00  0.00     0.040 A 
HETATM    4  C5  UNL     1      24.836   3.132  51.621  1.00  0.00     0.086 A 
HETATM    5  C6  UNL     1      25.985   2.935  50.884  1.00  0.00    -0.004 A 
HETATM    6  C7  UNL     1      26.638   1.737  51.174  1.00  0.00     0.041 A 
HETATM    7  C8  UNL     1      26.732   3.649  49.857  1.00  0.00     0.161 C 
HETATM    8  N2  UNL     1      26.023   4.742  49.223  1.00  0.00    -0.379 N 
HETATM    9  C9  UNL     1      25.103   5.650  49.822  1.00  0.00     0.129 A 
HETATM   10  C10 UNL     1      25.179   6.896  49.239  1.00  0.00     0.160 A 
HETATM   11  N5  UNL     1      24.348   7.825  49.711  1.00  0.00    -0.222 NA
HETATM   12  C16 UNL     1      23.478   7.582  50.700  1.00  0.00     0.238 A 
HETATM   13  N6  UNL     1      23.377   6.380  51.291  1.00  0.00    -0.215 NA
HETATM   14  C17 UNL     1      24.191   5.411  50.853  1.00  0.00     0.202 A 
HETATM   15  O3  UNL     1      23.992   4.228  51.539  1.00  0.00    -0.289 OA
HETATM   16  H10 UNL     1      26.135   4.967  48.204  1.00  0.00     0.160 HD
ENDROOT
BRANCH  10  17
HETATM   17  N3  UNL     1      26.097   7.231  48.218  1.00  0.00    -0.338 N 
HETATM   18  H11 UNL     1      26.003   7.228  47.183  1.00  0.00     0.167 HD
BRANCH  17  19
HETATM   19  C11 UNL     1      27.442   7.663  48.477  1.00  0.00     0.051 A 
HETATM   20  C12 UNL     1      28.539   6.963  48.016  1.00  0.00     0.035 A 
HETATM   21  C13 UNL     1      29.846   7.352  48.218  1.00  0.00     0.066 A 
HETATM   22  C14 UNL     1      30.098   8.506  48.925  1.00  0.00     0.209 A 
HETATM   23  F1  UNL     1      31.358   8.948  49.161  1.00  0.00    -0.184 F 
HETATM   24  N4  UNL     1      29.052   9.209  49.388  1.00  0.00    -0.231 NA
HETATM   25  C15 UNL     1      27.794   8.802  49.171  1.00  0.00     0.149 A 
ENDBRANCH  17  19
ENDBRANCH  10  17
BRANCH   1  26
HETATM   26  N1  UNL     1      26.807  -0.383  52.436  1.00  0.00    -0.285 N 
HETATM   27  H4  UNL     1      26.477  -1.178  51.817  1.00  0.00     0.178 HD
BRANCH  26  28
HETATM   28  S1  UNL     1      27.986  -0.601  53.682  1.00  0.00     0.227 S 
HETATM   29  C1  UNL     1      29.183   0.706  53.545  1.00  0.00     0.186 C 
HETATM   30  O1  UNL     1      28.704  -1.909  53.548  1.00  0.00    -0.206 OA
HETATM   31  O2  UNL     1      27.347  -0.485  55.018  1.00  0.00    -0.206 OA
ENDBRANCH  26  28
ENDBRANCH   1  26
TORSDOF 4
ENDMDL
MODEL 6
REMARK VINA RESULT:      -8.4      7.108      8.837
REMARK  4 active torsions:
REMARK  status: ('A' for Active; 'I' for Inactive)
REMARK    1  A    between atoms: S1_2  and  N1_5 
REMARK    2  A    between atoms: N1_5  and  C2_6 
REMARK    3  A    between atoms: C10_15  and  N3_16 
REMARK    4  A    between atoms: N3_16  and  C11_17 
ROOT
HETATM    1  C2  UNL     1      27.819   6.607  48.047  1.00  0.00     0.043 A 
HETATM    2  C3  UNL     1      26.949   7.599  48.420  1.00  0.00     0.033 A 
HETATM    3  C4  UNL     1      25.915   7.283  49.276  1.00  0.00     0.040 A 
HETATM    4  C5  UNL     1      25.798   5.988  49.719  1.00  0.00     0.086 A 
HETATM    5  C6  UNL     1      26.638   4.949  49.380  1.00  0.00    -0.004 A 
HETATM    6  C7  UNL     1      27.667   5.320  48.515  1.00  0.00     0.041 A 
HETATM    7  C8  UNL     1      26.756   3.528  49.679  1.00  0.00     0.161 C 
HETATM    8  N2  UNL     1      25.966   3.064  50.802  1.00  0.00    -0.379 N 
HETATM    9  C9  UNL     1      24.669   3.500  51.196  1.00  0.00     0.129 A 
HETATM   10  C10 UNL     1      23.944   2.471  51.756  1.00  0.00     0.160 A 
HETATM   11  N5  UNL     1      22.715   2.769  52.177  1.00  0.00    -0.222 NA
HETATM   12  C16 UNL     1      22.192   3.997  52.071  1.00  0.00     0.238 A 
HETATM   13  N6  UNL     1      22.869   5.024  51.531  1.00  0.00    -0.215 NA
HETATM   14  C17 UNL     1      24.110   4.777  51.092  1.00  0.00     0.202 A 
HETATM   15  O3  UNL     1      24.698   5.908  50.559  1.00  0.00    -0.289 OA
HETATM   16  H10 UNL     1      26.310   2.324  51.461  1.00  0.00     0.160 HD
ENDROOT
BRANCH  10  17
HETATM   17  N3  UNL     1      24.419   1.144  51.865  1.00  0.00    -0.338 N 
HETATM   18  H11 UNL     1      24.103   0.262  51.413  1.00  0.00     0.167 HD
BRANCH  17  19
HETATM   19  C11 UNL     1      25.517   0.766  52.710  1.00  0.00     0.051 A 
HETATM   20  C12 UNL     1      26.430  -0.200  52.338  1.00  0.00     0.035 A 
HETATM   21  C13 UNL     1      27.512  -0.578  53.104  1.00  0.00     0.066 A 
HETATM   22  C14 UNL     1      27.714   0.031  54.322  1.00  0.00     0.209 A 
HETATM   23  F1  UNL     1      28.757  -0.290  55.126  1.00  0.00    -0.184 F 
HETATM   24  N4  UNL     1      26.843   0.975  54.713  1.00  0.00    -0.231 NA
HETATM   25  C15 UNL     1      25.802   1.318  53.941  1.00  0.00     0.149 A 
ENDBRANCH  17  19
ENDBRANCH  10  17
BRANCH   1  26
HETATM   26  N1  UNL     1      28.851   7.023  47.166  1.00  0.00    -0.285 N 
HETATM   27  H4  UNL     1      28.466   7.436  46.270  1.00  0.00     0.178 HD
BRANCH  26  28
HETATM   28  S1  UNL     1      30.546   6.891  47.478  1.00  0.00     0.227 S 
HETATM   29  C1  UNL     1      31.417   7.677  46.143  1.00  0.00     0.186 C 
HETATM   30  O1  UNL     1      30.990   5.461  47.549  1.00  0.00    -0.206 OA
HETATM   31  O2  UNL     1      30.896   7.615  48.728  1.00  0.00    -0.206 OA
ENDBRANCH  26  28
ENDBRANCH   1  26
TORSDOF 4
ENDMDL
MODEL 7
REMARK VINA RESULT:      -8.2      6.831      8.926
REMARK  4 active torsions:
REMARK  status: ('A' for Active; 'I' for Inactive)
REMARK    1  A    between atoms: S1_2  and  N1_5 
REMARK    2  A    between atoms: N1_5  and  C2_6 
REMARK    3  A    between atoms: C10_15  and  N3_16 
REMARK    4  A    between atoms: N3_16  and  C11_17 
ROOT
HETATM    1  C2  UNL     1      26.557   6.783  48.688  1.00  0.00     0.043 A 
HETATM    2  C3  UNL     1      27.571   5.927  48.340  1.00  0.00     0.033 A 
HETATM    3  C4  UNL     1      27.553   4.642  48.842  1.00  0.00     0.040 A 
HETATM    4  C5  UNL     1      26.520   4.272  49.669  1.00  0.00     0.086 A 
HETATM    5  C6  UNL     1      25.475   5.085  50.054  1.00  0.00    -0.004 A 
HETATM    6  C7  UNL     1      25.539   6.372  49.520  1.00  0.00     0.041 A 
HETATM    7  C8  UNL     1      24.287   4.975  50.890  1.00  0.00     0.161 C 
HETATM    8  N2  UNL     1      23.909   3.624  51.254  1.00  0.00    -0.379 N 
HETATM    9  C9  UNL     1      24.768   2.526  51.546  1.00  0.00     0.129 A 
HETATM   10  C10 UNL     1      24.211   1.694  52.492  1.00  0.00     0.160 A 
HETATM   11  N5  UNL     1      24.923   0.620  52.834  1.00  0.00    -0.222 NA
HETATM   12  C16 UNL     1      26.119   0.345  52.297  1.00  0.00     0.238 A 
HETATM   13  N6  UNL     1      26.693   1.134  51.374  1.00  0.00    -0.215 NA
HETATM   14  C17 UNL     1      26.018   2.227  50.996  1.00  0.00     0.202 A 
HETATM   15  O3  UNL     1      26.710   2.952  50.046  1.00  0.00    -0.289 OA
HETATM   16  H10 UNL     1      22.907   3.324  51.332  1.00  0.00     0.160 HD
ENDROOT
BRANCH  10  17
HETATM   17  N3  UNL     1      22.972   1.942  53.125  1.00  0.00    -0.338 N 
HETATM   18  H11 UNL     1      22.699   2.631  53.855  1.00  0.00     0.167 HD
BRANCH  17  19
HETATM   19  C11 UNL     1      21.776   1.200  52.837  1.00  0.00     0.051 A 
HETATM   20  C12 UNL     1      21.201   0.350  53.760  1.00  0.00     0.035 A 
HETATM   21  C13 UNL     1      20.041  -0.363  53.538  1.00  0.00     0.066 A 
HETATM   22  C14 UNL     1      19.401  -0.236  52.326  1.00  0.00     0.209 A 
HETATM   23  F1  UNL     1      18.258  -0.906  52.040  1.00  0.00    -0.184 F 
HETATM   24  N4  UNL     1      19.936   0.583  51.407  1.00  0.00    -0.231 NA
HETATM   25  C15 UNL     1      21.065   1.262  51.658  1.00  0.00     0.149 A 
ENDBRANCH  17  19
ENDBRANCH  10  17
BRANCH   1  26
HETATM   26  N1  UNL     1      26.658   8.081  48.125  1.00  0.00    -0.285 N 
HETATM   27  H4  UNL     1      26.335   8.104  47.116  1.00  0.00     0.178 HD
BRANCH  26  28
HETATM   28  S1  UNL     1      27.232   9.487  48.951  1.00  0.00     0.227 S 
HETATM   29  C1  UNL     1      28.972   9.281  49.249  1.00  0.00     0.186 C 
HETATM   30  O1  UNL     1      26.549   9.676  50.271  1.00  0.00    -0.206 OA
HETATM   31  O2  UNL     1      27.064  10.690  48.094  1.00  0.00    -0.206 OA
ENDBRANCH  26  28
ENDBRANCH   1  26
TORSDOF 4
ENDMDL
MODEL 8
REMARK VINA RESULT:      -8.1      2.087      3.202
REMARK  4 active torsions:
REMARK  status: ('A' for Active; 'I' for Inactive)
REMARK    1  A    between atoms: S1_2  and  N1_5 
REMARK    2  A    between atoms: N1_5  and  C2_6 
REMARK    3  A    between atoms: C10_15  and  N3_16 
REMARK    4  A    between atoms: N3_16  and  C11_17 
ROOT
HETATM    1  C2  UNL     1      18.057   0.493  50.866  1.00  0.00     0.043 A 
HETATM    2  C3  UNL     1      18.313   1.281  49.772  1.00  0.00     0.033 A 
HETATM    3  C4  UNL     1      19.607   1.703  49.551  1.00  0.00     0.040 A 
HETATM    4  C5  UNL     1      20.587   1.318  50.433  1.00  0.00     0.086 A 
HETATM    5  C6  UNL     1      20.393   0.529  51.547  1.00  0.00    -0.004 A 
HETATM    6  C7  UNL     1      19.069   0.128  51.726  1.00  0.00     0.041 A 
HETATM    7  C8  UNL     1      21.206  -0.018  52.625  1.00  0.00     0.161 C 
HETATM    8  N2  UNL     1      22.638   0.039  52.409  1.00  0.00    -0.379 N 
HETATM    9  C9  UNL     1      23.383   1.064  51.759  1.00  0.00     0.129 A 
HETATM   10  C10 UNL     1      24.634   1.204  52.319  1.00  0.00     0.160 A 
HETATM   11  N5  UNL     1      25.428   2.127  51.778  1.00  0.00    -0.222 NA
HETATM   12  C16 UNL     1      25.050   2.890  50.745  1.00  0.00     0.238 A 
HETATM   13  N6  UNL     1      23.839   2.782  50.175  1.00  0.00    -0.215 NA
HETATM   14  C17 UNL     1      23.002   1.868  50.682  1.00  0.00     0.202 A 
HETATM   15  O3  UNL     1      21.794   1.855  50.013  1.00  0.00    -0.289 OA
HETATM   16  H10 UNL     1      23.284  -0.723  52.732  1.00  0.00     0.160 HD
ENDROOT
BRANCH  10  17
HETATM   17  N3  UNL     1      25.085   0.458  53.432  1.00  0.00    -0.338 N 
HETATM   18  H11 UNL     1      24.587   0.126  54.283  1.00  0.00     0.167 HD
BRANCH  17  19
HETATM   19  C11 UNL     1      26.440   0.005  53.583  1.00  0.00     0.051 A 
HETATM   20  C12 UNL     1      27.359   0.686  54.356  1.00  0.00     0.035 A 
HETATM   21  C13 UNL     1      28.661   0.276  54.550  1.00  0.00     0.066 A 
HETATM   22  C14 UNL     1      29.095  -0.880  53.942  1.00  0.00     0.209 A 
HETATM   23  F1  UNL     1      30.361  -1.341  54.089  1.00  0.00    -0.184 F 
HETATM   24  N4  UNL     1      28.225  -1.565  53.183  1.00  0.00    -0.231 NA
HETATM   25  C15 UNL     1      26.965  -1.137  53.018  1.00  0.00     0.149 A 
ENDBRANCH  17  19
ENDBRANCH  10  17
BRANCH   1  26
HETATM   26  N1  UNL     1      16.700   0.107  51.014  1.00  0.00    -0.285 N 
HETATM   27  H4  UNL     1      16.477  -0.777  50.474  1.00  0.00     0.178 HD
BRANCH  26  28
HETATM   28  S1  UNL     1      15.517   0.947  51.953  1.00  0.00     0.227 S 
HETATM   29  C1  UNL     1      13.978   0.912  51.065  1.00  0.00     0.186 C 
HETATM   30  O1  UNL     1      15.897   2.380  52.175  1.00  0.00    -0.206 OA
HETATM   31  O2  UNL     1      15.302   0.252  53.249  1.00  0.00    -0.206 OA
ENDBRANCH  26  28
ENDBRANCH   1  26
TORSDOF 4
ENDMDL
MODEL 9
REMARK VINA RESULT:      -8.0      5.487      9.231
REMARK  4 active torsions:
REMARK  status: ('A' for Active; 'I' for Inactive)
REMARK    1  A    between atoms: S1_2  and  N1_5 
REMARK    2  A    between atoms: N1_5  and  C2_6 
REMARK    3  A    between atoms: C10_15  and  N3_16 
REMARK    4  A    between atoms: N3_16  and  C11_17 
ROOT
HETATM    1  C2  UNL     1      25.773   1.165  53.862  1.00  0.00     0.043 A 
HETATM    2  C3  UNL     1      25.127  -0.016  54.122  1.00  0.00     0.033 A 
HETATM    3  C4  UNL     1      23.945  -0.282  53.461  1.00  0.00     0.040 A 
HETATM    4  C5  UNL     1      23.464   0.647  52.571  1.00  0.00     0.086 A 
HETATM    5  C6  UNL     1      24.066   1.850  52.269  1.00  0.00    -0.004 A 
HETATM    6  C7  UNL     1      25.257   2.070  52.961  1.00  0.00     0.041 A 
HETATM    7  C8  UNL     1      23.799   2.992  51.404  1.00  0.00     0.161 C 
HETATM    8  N2  UNL     1      22.783   2.778  50.394  1.00  0.00    -0.379 N 
HETATM    9  C9  UNL     1      21.589   2.010  50.504  1.00  0.00     0.129 A 
HETATM   10  C10 UNL     1      20.572   2.554  49.751  1.00  0.00     0.160 A 
HETATM   11  N5  UNL     1      19.407   1.907  49.767  1.00  0.00    -0.222 NA
HETATM   12  C16 UNL     1      19.214   0.784  50.471  1.00  0.00     0.238 A 
HETATM   13  N6  UNL     1      20.182   0.225  51.217  1.00  0.00    -0.215 NA
HETATM   14  C17 UNL     1      21.372   0.838  51.235  1.00  0.00     0.202 A 
HETATM   15  O3  UNL     1      22.278   0.169  52.035  1.00  0.00    -0.289 OA
HETATM   16  H10 UNL     1      22.850   3.197  49.434  1.00  0.00     0.160 HD
ENDROOT
BRANCH  10  17
HETATM   17  N3  UNL     1      20.696   3.754  49.015  1.00  0.00    -0.338 N 
HETATM   18  H11 UNL     1      20.777   4.744  49.324  1.00  0.00     0.167 HD
BRANCH  17  19
HETATM   19  C11 UNL     1      20.721   3.800  47.579  1.00  0.00     0.051 A 
HETATM   20  C12 UNL     1      21.901   3.765  46.865  1.00  0.00     0.035 A 
HETATM   21  C13 UNL     1      21.973   3.782  45.488  1.00  0.00     0.066 A 
HETATM   22  C14 UNL     1      20.807   3.841  44.759  1.00  0.00     0.209 A 
HETATM   23  F1  UNL     1      20.804   3.860  43.404  1.00  0.00    -0.184 F 
HETATM   24  N4  UNL     1      19.642   3.877  45.425  1.00  0.00    -0.231 NA
HETATM   25  C15 UNL     1      19.610   3.857  46.765  1.00  0.00     0.149 A 
ENDBRANCH  17  19
ENDBRANCH  10  17
BRANCH   1  26
HETATM   26  N1  UNL     1      26.979   1.353  54.586  1.00  0.00    -0.285 N 
HETATM   27  H4  UNL     1      26.821   1.336  55.633  1.00  0.00     0.178 HD
BRANCH  26  28
HETATM   28  S1  UNL     1      28.541   1.584  53.883  1.00  0.00     0.227 S 
HETATM   29  C1  UNL     1      29.245  -0.016  53.562  1.00  0.00     0.186 C 
HETATM   30  O1  UNL     1      29.462   2.325  54.803  1.00  0.00    -0.206 OA
HETATM   31  O2  UNL     1      28.419   2.288  52.580  1.00  0.00    -0.206 OA
ENDBRANCH  26  28
ENDBRANCH   1  26
TORSDOF 4
ENDMDL
