MODEL 1
REMARK VINA RESULT:      -7.7      0.000      0.000
REMARK  4 active torsions:
REMARK  status: ('A' for Active; 'I' for Inactive)
REMARK    1  A    between atoms: O1_2  and  C2_3 
REMARK    2  A    between atoms: C6_7  and  C7_8 
REMARK       I    between atoms: C7_8  and  N1_10 
REMARK    3  A    between atoms: N1_10  and  S1_11 
REMARK    4  A    between atoms: S1_11  and  C8_14 
ROOT
HETATM    1  C7  UNL     1      24.530   1.612  52.218  1.00  0.00     0.261 C 
HETATM    2  O2  UNL     1      24.928   1.597  51.023  1.00  0.00    -0.267 OA
HETATM    3  N1  UNL     1      25.480   1.686  53.296  1.00  0.00    -0.246 N 
HETATM    4  H8  UNL     1      25.065   1.694  54.266  1.00  0.00     0.182 HD
ENDROOT
BRANCH   3   5
HETATM    5  S1  UNL     1      27.198   1.760  53.083  1.00  0.00     0.265 S 
HETATM    6  O3  UNL     1      27.751   2.555  54.243  1.00  0.00    -0.200 OA
HETATM    7  O4  UNL     1      27.541   2.497  51.827  1.00  0.00    -0.200 OA
BRANCH   5   8
HETATM    8  C8  UNL     1      27.915   0.180  53.134  1.00  0.00     0.080 A 
HETATM    9  C9  UNL     1      29.203   0.103  53.581  1.00  0.00     0.025 A 
HETATM   10  C10 UNL     1      29.812  -1.151  53.636  1.00  0.00     0.002 A 
HETATM   11  C11 UNL     1      29.082  -2.269  53.234  1.00  0.00     0.000 A 
HETATM   12  C12 UNL     1      27.780  -2.166  52.785  1.00  0.00     0.002 A 
HETATM   13  C13 UNL     1      27.187  -0.921  52.735  1.00  0.00     0.025 A 
ENDBRANCH   5   8
ENDBRANCH   3   5
BRANCH   1  14
HETATM   14  C6  UNL     1      23.099   1.554  52.504  1.00  0.00     0.017 A 
HETATM   15  C5  UNL     1      22.514   0.463  52.979  1.00  0.00     0.022 A 
HETATM   16  C3  UNL     1      21.094   0.760  53.144  1.00  0.00    -0.032 A 
HETATM   17  C2  UNL     1      20.866   2.021  52.766  1.00  0.00     0.056 A 
HETATM   18  C4  UNL     1      20.065  -0.190  53.655  1.00  0.00     0.050 C 
HETATM   19  C14 UNL     1      22.132   2.668  52.313  1.00  0.00     0.109 A 
BRANCH  17  20
HETATM   20  O1  UNL     1      19.786   2.895  52.677  1.00  0.00    -0.359 OA
HETATM   21  C1  UNL     1      19.154   3.290  51.500  1.00  0.00     0.209 C 
ENDBRANCH  17  20
ENDBRANCH   1  14
TORSDOF 4
ENDMDL
MODEL 2
REMARK VINA RESULT:      -7.6      1.547      1.610
REMARK  4 active torsions:
REMARK  status: ('A' for Active; 'I' for Inactive)
REMARK    1  A    between atoms: O1_2  and  C2_3 
REMARK    2  A    between atoms: C6_7  and  C7_8 
REMARK       I    between atoms: C7_8  and  N1_10 
REMARK    3  A    between atoms: N1_10  and  S1_11 
REMARK    4  A    between atoms: S1_11  and  C8_14 
ROOT
HETATM    1  C7  UNL     1      24.243   0.548  53.233  1.00  0.00     0.261 C 
HETATM    2  O2  UNL     1      24.569   0.012  54.325  1.00  0.00    -0.267 OA
HETATM    3  N1  UNL     1      25.224   1.261  52.457  1.00  0.00    -0.246 N 
HETATM    4  H8  UNL     1      24.870   1.680  51.555  1.00  0.00     0.182 HD
ENDROOT
BRANCH   3   5
HETATM    5  S1  UNL     1      26.884   1.453  52.915  1.00  0.00     0.265 S 
HETATM    6  O3  UNL     1      26.892   2.071  54.294  1.00  0.00    -0.200 OA
HETATM    7  O4  UNL     1      27.577   2.404  51.991  1.00  0.00    -0.200 OA
BRANCH   5   8
HETATM    8  C8  UNL     1      27.698  -0.076  53.015  1.00  0.00     0.080 A 
HETATM    9  C9  UNL     1      28.956  -0.070  53.548  1.00  0.00     0.025 A 
HETATM   10  C10 UNL     1      29.640  -1.282  53.645  1.00  0.00     0.002 A 
HETATM   11  C11 UNL     1      29.014  -2.444  53.196  1.00  0.00     0.000 A 
HETATM   12  C12 UNL     1      27.741  -2.425  52.661  1.00  0.00     0.002 A 
HETATM   13  C13 UNL     1      27.072  -1.222  52.570  1.00  0.00     0.025 A 
ENDBRANCH   5   8
ENDBRANCH   3   5
BRANCH   1  14
HETATM   14  C6  UNL     1      22.867   0.442  52.757  1.00  0.00     0.017 A 
HETATM   15  C5  UNL     1      21.908  -0.121  53.479  1.00  0.00     0.022 A 
HETATM   16  C3  UNL     1      20.673  -0.053  52.702  1.00  0.00    -0.032 A 
HETATM   17  C2  UNL     1      20.924   0.551  51.537  1.00  0.00     0.056 A 
HETATM   18  C4  UNL     1      19.346  -0.571  53.140  1.00  0.00     0.050 C 
HETATM   19  C14 UNL     1      22.364   0.934  51.446  1.00  0.00     0.109 A 
BRANCH  17  20
HETATM   20  O1  UNL     1      20.226   0.919  50.391  1.00  0.00    -0.359 OA
HETATM   21  C1  UNL     1      20.794   1.258  49.164  1.00  0.00     0.209 C 
ENDBRANCH  17  20
ENDBRANCH   1  14
TORSDOF 4
ENDMDL
MODEL 3
REMARK VINA RESULT:      -7.6      1.092      2.238
REMARK  4 active torsions:
REMARK  status: ('A' for Active; 'I' for Inactive)
REMARK    1  A    between atoms: O1_2  and  C2_3 
REMARK    2  A    between atoms: C6_7  and  C7_8 
REMARK       I    between atoms: C7_8  and  N1_10 
REMARK    3  A    between atoms: N1_10  and  S1_11 
REMARK    4  A    between atoms: S1_11  and  C8_14 
ROOT
HETATM    1  C7  UNL     1      24.192   2.175  52.796  1.00  0.00     0.261 C 
HETATM    2  O2  UNL     1      24.502   3.393  52.723  1.00  0.00    -0.267 OA
HETATM    3  N1  UNL     1      25.218   1.173  52.917  1.00  0.00    -0.246 N 
HETATM    4  H8  UNL     1      24.874   0.177  52.973  1.00  0.00     0.182 HD
ENDROOT
BRANCH   3   5
HETATM    5  S1  UNL     1      26.915   1.513  52.976  1.00  0.00     0.265 S 
HETATM    6  O3  UNL     1      27.158   2.336  54.220  1.00  0.00    -0.200 OA
HETATM    7  O4  UNL     1      27.327   2.343  51.800  1.00  0.00    -0.200 OA
BRANCH   5   8
HETATM    8  C8  UNL     1      27.852   0.058  53.112  1.00  0.00     0.080 A 
HETATM    9  C9  UNL     1      27.231  -1.109  52.771  1.00  0.00     0.025 A 
HETATM   10  C10 UNL     1      27.954  -2.298  52.868  1.00  0.00     0.002 A 
HETATM   11  C11 UNL     1      29.276  -2.245  53.307  1.00  0.00     0.000 A 
HETATM   12  C12 UNL     1      29.884  -1.051  53.646  1.00  0.00     0.002 A 
HETATM   13  C13 UNL     1      29.161   0.119  53.546  1.00  0.00     0.025 A 
ENDBRANCH   5   8
ENDBRANCH   3   5
BRANCH   1  14
HETATM   14  C6  UNL     1      22.785   1.783  52.757  1.00  0.00     0.017 A 
HETATM   15  C5  UNL     1      21.847   2.561  52.234  1.00  0.00     0.022 A 
HETATM   16  C3  UNL     1      20.572   1.860  52.363  1.00  0.00    -0.032 A 
HETATM   17  C2  UNL     1      20.780   0.682  52.958  1.00  0.00     0.056 A 
HETATM   18  C4  UNL     1      19.251   2.377  51.904  1.00  0.00     0.050 C 
HETATM   19  C14 UNL     1      22.227   0.506  53.275  1.00  0.00     0.109 A 
BRANCH  17  20
HETATM   20  O1  UNL     1      20.032  -0.419  53.362  1.00  0.00    -0.359 OA
HETATM   21  C1  UNL     1      20.502  -1.490  54.120  1.00  0.00     0.209 C 
ENDBRANCH  17  20
ENDBRANCH   1  14
TORSDOF 4
ENDMDL
MODEL 4
REMARK VINA RESULT:      -7.5      1.890      2.191
REMARK  4 active torsions:
REMARK  status: ('A' for Active; 'I' for Inactive)
REMARK    1  A    between atoms: O1_2  and  C2_3 
REMARK    2  A    between atoms: C6_7  and  C7_8 
REMARK       I    between atoms: C7_8  and  N1_10 
REMARK    3  A    between atoms: N1_10  and  S1_11 
REMARK    4  A    between atoms: S1_11  and  C8_14 
ROOT
HETATM    1  C7  UNL     1      24.329   2.124  51.802  1.00  0.00     0.261 C 
HETATM    2  O2  UNL     1      24.593   3.338  52.007  1.00  0.00    -0.267 OA
HETATM    3  N1  UNL     1      25.290   1.108  52.142  1.00  0.00    -0.246 N 
HETATM    4  H8  UNL     1      24.991   0.116  51.938  1.00  0.00     0.182 HD
ENDROOT
BRANCH   3   5
HETATM    5  S1  UNL     1      26.843   1.423  52.839  1.00  0.00     0.265 S 
HETATM    6  O3  UNL     1      26.600   1.990  54.219  1.00  0.00    -0.200 OA
HETATM    7  O4  UNL     1      27.574   2.462  52.048  1.00  0.00    -0.200 OA
BRANCH   5   8
HETATM    8  C8  UNL     1      27.768  -0.034  53.021  1.00  0.00     0.080 A 
HETATM    9  C9  UNL     1      27.141  -1.205  52.706  1.00  0.00     0.025 A 
HETATM   10  C10 UNL     1      27.854  -2.396  52.840  1.00  0.00     0.002 A 
HETATM   11  C11 UNL     1      29.174  -2.341  53.288  1.00  0.00     0.000 A 
HETATM   12  C12 UNL     1      29.788  -1.143  53.600  1.00  0.00     0.002 A 
HETATM   13  C13 UNL     1      29.074   0.029  53.464  1.00  0.00     0.025 A 
ENDBRANCH   5   8
ENDBRANCH   3   5
BRANCH   1  14
HETATM   14  C6  UNL     1      23.043   1.752  51.217  1.00  0.00     0.017 A 
HETATM   15  C5  UNL     1      22.101   1.130  51.913  1.00  0.00     0.022 A 
HETATM   16  C3  UNL     1      20.963   0.917  51.022  1.00  0.00    -0.032 A 
HETATM   17  C2  UNL     1      21.253   1.418  49.818  1.00  0.00     0.056 A 
HETATM   18  C4  UNL     1      19.684   0.250  51.398  1.00  0.00     0.050 C 
HETATM   19  C14 UNL     1      22.623   2.009  49.813  1.00  0.00     0.109 A 
BRANCH  17  20
HETATM   20  O1  UNL     1      20.640   1.542  48.575  1.00  0.00    -0.359 OA
HETATM   21  C1  UNL     1      20.464   2.730  47.868  1.00  0.00     0.209 C 
ENDBRANCH  17  20
ENDBRANCH   1  14
TORSDOF 4
ENDMDL
MODEL 5
REMARK VINA RESULT:      -7.4      4.729      7.354
REMARK  4 active torsions:
REMARK  status: ('A' for Active; 'I' for Inactive)
REMARK    1  A    between atoms: O1_2  and  C2_3 
REMARK    2  A    between atoms: C6_7  and  C7_8 
REMARK       I    between atoms: C7_8  and  N1_10 
REMARK    3  A    between atoms: N1_10  and  S1_11 
REMARK    4  A    between atoms: S1_11  and  C8_14 
ROOT
HETATM    1  C7  UNL     1      25.690   3.009  51.298  1.00  0.00     0.261 C 
HETATM    2  O2  UNL     1      24.469   3.195  51.542  1.00  0.00    -0.267 OA
HETATM    3  N1  UNL     1      26.389   3.887  50.395  1.00  0.00    -0.246 N 
HETATM    4  H8  UNL     1      27.410   3.663  50.246  1.00  0.00     0.182 HD
ENDROOT
BRANCH   3   5
HETATM    5  S1  UNL     1      25.664   5.233  49.582  1.00  0.00     0.265 S 
HETATM    6  O3  UNL     1      25.159   6.174  50.652  1.00  0.00    -0.200 OA
HETATM    7  O4  UNL     1      24.482   4.789  48.779  1.00  0.00    -0.200 OA
BRANCH   5   8
HETATM    8  C8  UNL     1      26.823   6.097  48.622  1.00  0.00     0.080 A 
HETATM    9  C9  UNL     1      28.073   5.554  48.528  1.00  0.00     0.025 A 
HETATM   10  C10 UNL     1      29.030   6.221  47.764  1.00  0.00     0.002 A 
HETATM   11  C11 UNL     1      28.672   7.410  47.129  1.00  0.00     0.000 A 
HETATM   12  C12 UNL     1      27.401   7.940  47.239  1.00  0.00     0.002 A 
HETATM   13  C13 UNL     1      26.461   7.273  47.997  1.00  0.00     0.025 A 
ENDBRANCH   5   8
ENDBRANCH   3   5
BRANCH   1  14
HETATM   14  C6  UNL     1      26.395   1.900  51.935  1.00  0.00     0.017 A 
HETATM   15  C5  UNL     1      25.976   0.646  51.839  1.00  0.00     0.022 A 
HETATM   16  C3  UNL     1      26.911  -0.189  52.590  1.00  0.00    -0.032 A 
HETATM   17  C2  UNL     1      27.864   0.586  53.113  1.00  0.00     0.056 A 
HETATM   18  C4  UNL     1      26.816  -1.669  52.744  1.00  0.00     0.050 C 
HETATM   19  C14 UNL     1      27.635   2.015  52.749  1.00  0.00     0.109 A 
BRANCH  17  20
HETATM   20  O1  UNL     1      29.003   0.437  53.899  1.00  0.00    -0.359 OA
HETATM   21  C1  UNL     1      30.056  -0.441  53.649  1.00  0.00     0.209 C 
ENDBRANCH  17  20
ENDBRANCH   1  14
TORSDOF 4
ENDMDL
MODEL 6
REMARK VINA RESULT:      -7.3      4.084      6.089
REMARK  4 active torsions:
REMARK  status: ('A' for Active; 'I' for Inactive)
REMARK    1  A    between atoms: O1_2  and  C2_3 
REMARK    2  A    between atoms: C6_7  and  C7_8 
REMARK       I    between atoms: C7_8  and  N1_10 
REMARK    3  A    between atoms: N1_10  and  S1_11 
REMARK    4  A    between atoms: S1_11  and  C8_14 
ROOT
HETATM    1  C7  UNL     1      24.070   2.656  51.153  1.00  0.00     0.261 C 
HETATM    2  O2  UNL     1      23.557   2.502  50.013  1.00  0.00    -0.267 OA
HETATM    3  N1  UNL     1      24.507   3.959  51.580  1.00  0.00    -0.246 N 
HETATM    4  H8  UNL     1      24.925   4.002  52.548  1.00  0.00     0.182 HD
ENDROOT
BRANCH   3   5
HETATM    5  S1  UNL     1      24.382   5.396  50.621  1.00  0.00     0.265 S 
HETATM    6  O3  UNL     1      24.222   6.553  51.580  1.00  0.00    -0.200 OA
HETATM    7  O4  UNL     1      23.157   5.350  49.762  1.00  0.00    -0.200 OA
BRANCH   5   8
HETATM    8  C8  UNL     1      25.823   5.672  49.694  1.00  0.00     0.080 A 
HETATM    9  C9  UNL     1      26.555   4.571  49.352  1.00  0.00     0.025 A 
HETATM   10  C10 UNL     1      27.720   4.755  48.607  1.00  0.00     0.002 A 
HETATM   11  C11 UNL     1      28.086   6.050  48.243  1.00  0.00     0.000 A 
HETATM   12  C12 UNL     1      27.328   7.148  48.600  1.00  0.00     0.002 A 
HETATM   13  C13 UNL     1      26.178   6.956  49.337  1.00  0.00     0.025 A 
ENDBRANCH   5   8
ENDBRANCH   3   5
BRANCH   1  14
HETATM   14  C6  UNL     1      24.219   1.505  52.040  1.00  0.00     0.017 A 
HETATM   15  C5  UNL     1      23.208   1.019  52.746  1.00  0.00     0.022 A 
HETATM   16  C3  UNL     1      23.713  -0.118  53.512  1.00  0.00    -0.032 A 
HETATM   17  C2  UNL     1      25.011  -0.283  53.244  1.00  0.00     0.056 A 
HETATM   18  C4  UNL     1      22.907  -0.960  54.443  1.00  0.00     0.050 C 
HETATM   19  C14 UNL     1      25.477   0.744  52.267  1.00  0.00     0.109 A 
BRANCH  17  20
HETATM   20  O1  UNL     1      26.044  -1.138  53.616  1.00  0.00    -0.359 OA
HETATM   21  C1  UNL     1      27.284  -1.239  52.988  1.00  0.00     0.209 C 
ENDBRANCH  17  20
ENDBRANCH   1  14
TORSDOF 4
ENDMDL
MODEL 7
REMARK VINA RESULT:      -7.2      4.759      6.400
REMARK  4 active torsions:
REMARK  status: ('A' for Active; 'I' for Inactive)
REMARK    1  A    between atoms: O1_2  and  C2_3 
REMARK    2  A    between atoms: C6_7  and  C7_8 
REMARK       I    between atoms: C7_8  and  N1_10 
REMARK    3  A    between atoms: N1_10  and  S1_11 
REMARK    4  A    between atoms: S1_11  and  C8_14 
ROOT
HETATM    1  C7  UNL     1      26.333   3.838  49.940  1.00  0.00     0.261 C 
HETATM    2  O2  UNL     1      26.641   2.718  49.454  1.00  0.00    -0.267 OA
HETATM    3  N1  UNL     1      25.567   3.913  51.157  1.00  0.00    -0.246 N 
HETATM    4  H8  UNL     1      25.351   4.889  51.497  1.00  0.00     0.182 HD
ENDROOT
BRANCH   3   5
HETATM    5  S1  UNL     1      25.011   2.537  52.049  1.00  0.00     0.265 S 
HETATM    6  O3  UNL     1      24.114   1.746  51.125  1.00  0.00    -0.200 OA
HETATM    7  O4  UNL     1      24.183   2.968  53.219  1.00  0.00    -0.200 OA
BRANCH   5   8
HETATM    8  C8  UNL     1      26.326   1.507  52.519  1.00  0.00     0.080 A 
HETATM    9  C9  UNL     1      26.169   0.168  52.298  1.00  0.00     0.025 A 
HETATM   10  C10 UNL     1      27.207  -0.690  52.663  1.00  0.00     0.002 A 
HETATM   11  C11 UNL     1      28.357  -0.146  53.235  1.00  0.00     0.000 A 
HETATM   12  C12 UNL     1      28.492   1.212  53.448  1.00  0.00     0.002 A 
HETATM   13  C13 UNL     1      27.461   2.052  53.083  1.00  0.00     0.025 A 
ENDBRANCH   5   8
ENDBRANCH   3   5
BRANCH   1  14
HETATM   14  C6  UNL     1      26.756   5.062  49.263  1.00  0.00     0.017 A 
HETATM   15  C5  UNL     1      27.890   5.138  48.580  1.00  0.00     0.022 A 
HETATM   16  C3  UNL     1      27.990   6.493  48.044  1.00  0.00    -0.032 A 
HETATM   17  C2  UNL     1      26.914   7.191  48.418  1.00  0.00     0.056 A 
HETATM   18  C4  UNL     1      29.112   7.012  47.211  1.00  0.00     0.050 C 
HETATM   19  C14 UNL     1      26.004   6.345  49.244  1.00  0.00     0.109 A 
BRANCH  17  20
HETATM   20  O1  UNL     1      26.407   8.477  48.256  1.00  0.00    -0.359 OA
HETATM   21  C1  UNL     1      26.281   9.435  49.259  1.00  0.00     0.209 C 
ENDBRANCH  17  20
ENDBRANCH   1  14
TORSDOF 4
ENDMDL
MODEL 8
REMARK VINA RESULT:      -7.2      4.703      6.580
REMARK  4 active torsions:
REMARK  status: ('A' for Active; 'I' for Inactive)
REMARK    1  A    between atoms: O1_2  and  C2_3 
REMARK    2  A    between atoms: C6_7  and  C7_8 
REMARK       I    between atoms: C7_8  and  N1_10 
REMARK    3  A    between atoms: N1_10  and  S1_11 
REMARK    4  A    between atoms: S1_11  and  C8_14 
ROOT
HETATM    1  C7  UNL     1      26.375   3.694  49.884  1.00  0.00     0.261 C 
HETATM    2  O2  UNL     1      26.643   2.545  49.444  1.00  0.00    -0.267 OA
HETATM    3  N1  UNL     1      25.652   3.844  51.121  1.00  0.00    -0.246 N 
HETATM    4  H8  UNL     1      25.469   4.839  51.420  1.00  0.00     0.182 HD
ENDROOT
BRANCH   3   5
HETATM    5  S1  UNL     1      25.098   2.524  52.096  1.00  0.00     0.265 S 
HETATM    6  O3  UNL     1      24.145   1.717  51.246  1.00  0.00    -0.200 OA
HETATM    7  O4  UNL     1      24.330   3.030  53.277  1.00  0.00    -0.200 OA
BRANCH   5   8
HETATM    8  C8  UNL     1      26.405   1.482  52.561  1.00  0.00     0.080 A 
HETATM    9  C9  UNL     1      27.509   2.080  53.099  1.00  0.00     0.025 A 
HETATM   10  C10 UNL     1      28.578   1.272  53.485  1.00  0.00     0.002 A 
HETATM   11  C11 UNL     1      28.476  -0.107  53.307  1.00  0.00     0.000 A 
HETATM   12  C12 UNL     1      27.349  -0.689  52.761  1.00  0.00     0.002 A 
HETATM   13  C13 UNL     1      26.296   0.118  52.383  1.00  0.00     0.025 A 
ENDBRANCH   5   8
ENDBRANCH   3   5
BRANCH   1  14
HETATM   14  C6  UNL     1      26.800   4.874  49.136  1.00  0.00     0.017 A 
HETATM   15  C5  UNL     1      25.985   5.892  48.894  1.00  0.00     0.022 A 
HETATM   16  C3  UNL     1      26.736   6.885  48.130  1.00  0.00    -0.032 A 
HETATM   17  C2  UNL     1      27.979   6.436  47.935  1.00  0.00     0.056 A 
HETATM   18  C4  UNL     1      26.200   8.190  47.647  1.00  0.00     0.050 C 
HETATM   19  C14 UNL     1      28.154   5.093  48.561  1.00  0.00     0.109 A 
BRANCH  17  20
HETATM   20  O1  UNL     1      29.149   6.866  47.316  1.00  0.00    -0.359 OA
HETATM   21  C1  UNL     1      30.378   7.061  47.943  1.00  0.00     0.209 C 
ENDBRANCH  17  20
ENDBRANCH   1  14
TORSDOF 4
ENDMDL
MODEL 9
REMARK VINA RESULT:      -7.1      5.008      6.941
REMARK  4 active torsions:
REMARK  status: ('A' for Active; 'I' for Inactive)
REMARK    1  A    between atoms: O1_2  and  C2_3 
REMARK    2  A    between atoms: C6_7  and  C7_8 
REMARK       I    between atoms: C7_8  and  N1_10 
REMARK    3  A    between atoms: N1_10  and  S1_11 
REMARK    4  A    between atoms: S1_11  and  C8_14 
ROOT
HETATM    1  C7  UNL     1      25.451   4.661  49.584  1.00  0.00     0.261 C 
HETATM    2  O2  UNL     1      24.276   4.922  49.216  1.00  0.00    -0.267 OA
HETATM    3  N1  UNL     1      25.688   3.665  50.596  1.00  0.00    -0.246 N 
HETATM    4  H8  UNL     1      26.701   3.507  50.847  1.00  0.00     0.182 HD
ENDROOT
BRANCH   3   5
HETATM    5  S1  UNL     1      24.442   2.755  51.383  1.00  0.00     0.265 S 
HETATM    6  O3  UNL     1      23.462   2.332  50.313  1.00  0.00    -0.200 OA
HETATM    7  O4  UNL     1      23.700   3.613  52.360  1.00  0.00    -0.200 OA
BRANCH   5   8
HETATM    8  C8  UNL     1      25.074   1.316  52.121  1.00  0.00     0.080 A 
HETATM    9  C9  UNL     1      26.338   0.944  51.763  1.00  0.00     0.025 A 
HETATM   10  C10 UNL     1      26.878  -0.207  52.337  1.00  0.00     0.002 A 
HETATM   11  C11 UNL     1      26.108  -0.926  53.250  1.00  0.00     0.000 A 
HETATM   12  C12 UNL     1      24.831  -0.529  53.597  1.00  0.00     0.002 A 
HETATM   13  C13 UNL     1      24.306   0.611  53.024  1.00  0.00     0.025 A 
ENDBRANCH   5   8
ENDBRANCH   3   5
BRANCH   1  14
HETATM   14  C6  UNL     1      26.573   5.374  48.980  1.00  0.00     0.017 A 
HETATM   15  C5  UNL     1      27.761   4.810  48.806  1.00  0.00     0.022 A 
HETATM   16  C3  UNL     1      28.633   5.802  48.182  1.00  0.00    -0.032 A 
HETATM   17  C2  UNL     1      27.945   6.933  47.998  1.00  0.00     0.056 A 
HETATM   18  C4  UNL     1      30.060   5.586  47.808  1.00  0.00     0.050 C 
HETATM   19  C14 UNL     1      26.545   6.780  48.493  1.00  0.00     0.109 A 
BRANCH  17  20
HETATM   20  O1  UNL     1      28.166   8.205  47.480  1.00  0.00    -0.359 OA
HETATM   21  C1  UNL     1      28.850   9.237  48.117  1.00  0.00     0.209 C 
ENDBRANCH  17  20
ENDBRANCH   1  14
TORSDOF 4
ENDMDL
