MODEL 1
REMARK VINA RESULT:      -7.7      0.000      0.000
REMARK  4 active torsions:
REMARK  status: ('A' for Active; 'I' for Inactive)
REMARK    1  A    between atoms: C1_2  and  C2_3 
REMARK       I    between atoms: C1_2  and  N2_14 
REMARK    2  A    between atoms: C2_3  and  C3_4 
REMARK    3  A    between atoms: N2_14  and  C10_15 
REMARK    4  A    between atoms: C10_15  and  C11_16 
ROOT
HETATM    1  C3  UNL     1      24.281   1.361  52.398  1.00  0.00     0.091 A 
HETATM    2  C4  UNL     1      25.411   0.564  52.927  1.00  0.00     0.087 A 
HETATM    3  S1  UNL     1      27.048   0.715  52.722  1.00  0.00    -0.065 SA
HETATM    4  N1  UNL     1      25.028  -0.517  53.743  1.00  0.00    -0.350 N 
HETATM    5  C5  UNL     1      23.594  -0.493  53.781  1.00  0.00     0.036 A 
HETATM    6  C6  UNL     1      22.679  -1.224  54.353  1.00  0.00     0.008 A 
HETATM    7  C7  UNL     1      21.230  -1.311  54.473  1.00  0.00     0.065 A 
HETATM    8  P1  UNL     1      20.462   0.054  53.475  1.00  0.00    -0.102 P 
HETATM    9  C8  UNL     1      21.889   0.957  52.771  1.00  0.00     0.014 A 
HETATM   10  C9  UNL     1      23.120   0.602  52.989  1.00  0.00    -0.020 A 
HETATM   11  H4  UNL     1      25.533  -1.259  54.273  1.00  0.00     0.166 HD
HETATM   12  H8  UNL     1      19.649   0.902  54.318  1.00  0.00     0.062 HD
ENDROOT
BRANCH   1  13
HETATM   13  C2  UNL     1      24.237   2.723  52.982  1.00  0.00     0.119 C 
BRANCH  13  14
HETATM   14  C1  UNL     1      24.058   3.834  52.041  1.00  0.00     0.218 C 
HETATM   15  O1  UNL     1      23.680   5.003  52.195  1.00  0.00    -0.274 OA
HETATM   16  N2  UNL     1      24.369   3.544  50.676  1.00  0.00    -0.357 N 
HETATM   17  H10 UNL     1      24.704   2.576  50.418  1.00  0.00     0.162 HD
BRANCH  16  18
HETATM   18  C10 UNL     1      24.262   4.478  49.586  1.00  0.00     0.161 C 
BRANCH  18  19
HETATM   19  C11 UNL     1      25.602   4.952  49.136  1.00  0.00    -0.041 A 
HETATM   20  C12 UNL     1      25.615   6.269  48.682  1.00  0.00     0.009 A 
HETATM   21  C13 UNL     1      26.737   6.885  48.226  1.00  0.00     0.001 A 
HETATM   22  C14 UNL     1      27.947   6.204  48.192  1.00  0.00     0.000 A 
HETATM   23  C15 UNL     1      27.938   4.900  48.640  1.00  0.00     0.001 A 
HETATM   24  C16 UNL     1      26.794   4.289  49.099  1.00  0.00     0.009 A 
ENDBRANCH  18  19
ENDBRANCH  16  18
ENDBRANCH  13  14
ENDBRANCH   1  13
TORSDOF 4
ENDMDL
MODEL 2
REMARK VINA RESULT:      -7.7      3.871      5.269
REMARK  4 active torsions:
REMARK  status: ('A' for Active; 'I' for Inactive)
REMARK    1  A    between atoms: C1_2  and  C2_3 
REMARK       I    between atoms: C1_2  and  N2_14 
REMARK    2  A    between atoms: C2_3  and  C3_4 
REMARK    3  A    between atoms: N2_14  and  C10_15 
REMARK    4  A    between atoms: C10_15  and  C11_16 
ROOT
HETATM    1  C3  UNL     1      22.458  -0.149  52.907  1.00  0.00     0.091 A 
HETATM    2  C4  UNL     1      22.229  -0.834  54.199  1.00  0.00     0.087 A 
HETATM    3  S1  UNL     1      23.283  -1.353  55.366  1.00  0.00    -0.065 SA
HETATM    4  N1  UNL     1      20.875  -1.099  54.484  1.00  0.00    -0.350 N 
HETATM    5  C5  UNL     1      20.132  -0.601  53.362  1.00  0.00     0.036 A 
HETATM    6  C6  UNL     1      18.869  -0.558  53.045  1.00  0.00     0.008 A 
HETATM    7  C7  UNL     1      18.000  -0.096  51.971  1.00  0.00     0.065 A 
HETATM    8  P1  UNL     1      19.047   0.655  50.634  1.00  0.00    -0.102 P 
HETATM    9  C8  UNL     1      20.759   0.509  51.263  1.00  0.00     0.014 A 
HETATM   10  C9  UNL     1      21.040  -0.038  52.408  1.00  0.00    -0.020 A 
HETATM   11  H4  UNL     1      20.358  -1.542  55.273  1.00  0.00     0.166 HD
HETATM   12  H8  UNL     1      18.670   2.033  50.408  1.00  0.00     0.062 HD
ENDROOT
BRANCH   1  13
HETATM   13  C2  UNL     1      22.950   1.238  53.092  1.00  0.00     0.119 C 
BRANCH  13  14
HETATM   14  C1  UNL     1      24.281   1.538  52.552  1.00  0.00     0.218 C 
HETATM   15  O1  UNL     1      24.669   1.845  51.417  1.00  0.00    -0.274 OA
HETATM   16  N2  UNL     1      25.357   1.471  53.490  1.00  0.00    -0.357 N 
HETATM   17  H10 UNL     1      25.150   1.219  54.495  1.00  0.00     0.162 HD
BRANCH  16  18
HETATM   18  C10 UNL     1      26.740   1.722  53.182  1.00  0.00     0.161 C 
BRANCH  18  19
HETATM   19  C11 UNL     1      27.541   0.465  53.187  1.00  0.00    -0.041 A 
HETATM   20  C12 UNL     1      28.863   0.636  53.593  1.00  0.00     0.009 A 
HETATM   21  C13 UNL     1      29.755  -0.387  53.662  1.00  0.00     0.001 A 
HETATM   22  C14 UNL     1      29.372  -1.677  53.319  1.00  0.00     0.000 A 
HETATM   23  C15 UNL     1      28.065  -1.850  52.916  1.00  0.00     0.001 A 
HETATM   24  C16 UNL     1      27.172  -0.805  52.852  1.00  0.00     0.009 A 
ENDBRANCH  18  19
ENDBRANCH  16  18
ENDBRANCH  13  14
ENDBRANCH   1  13
TORSDOF 4
ENDMDL
MODEL 3
REMARK VINA RESULT:      -7.5      1.588      2.120
REMARK  4 active torsions:
REMARK  status: ('A' for Active; 'I' for Inactive)
REMARK    1  A    between atoms: C1_2  and  C2_3 
REMARK       I    between atoms: C1_2  and  N2_14 
REMARK    2  A    between atoms: C2_3  and  C3_4 
REMARK    3  A    between atoms: N2_14  and  C10_15 
REMARK    4  A    between atoms: C10_15  and  C11_16 
ROOT
HETATM    1  C3  UNL     1      25.389   0.347  52.734  1.00  0.00     0.091 A 
HETATM    2  C4  UNL     1      26.205  -0.293  53.789  1.00  0.00     0.087 A 
HETATM    3  S1  UNL     1      27.846  -0.402  53.990  1.00  0.00    -0.065 SA
HETATM    4  N1  UNL     1      25.456  -0.927  54.799  1.00  0.00    -0.350 N 
HETATM    5  C5  UNL     1      24.079  -0.743  54.442  1.00  0.00     0.036 A 
HETATM    6  C6  UNL     1      22.940  -1.096  54.968  1.00  0.00     0.008 A 
HETATM    7  C7  UNL     1      21.509  -0.980  54.719  1.00  0.00     0.065 A 
HETATM    8  P1  UNL     1      21.249  -0.038  53.140  1.00  0.00    -0.102 P 
HETATM    9  C8  UNL     1      22.940   0.368  52.571  1.00  0.00     0.014 A 
HETATM   10  C9  UNL     1      24.005   0.002  53.221  1.00  0.00    -0.020 A 
HETATM   11  H4  UNL     1      25.684  -1.453  55.670  1.00  0.00     0.166 HD
HETATM   12  H8  UNL     1      20.460   1.149  53.381  1.00  0.00     0.062 HD
ENDROOT
BRANCH   1  13
HETATM   13  C2  UNL     1      25.492   1.826  52.769  1.00  0.00     0.119 C 
BRANCH  13  14
HETATM   14  C1  UNL     1      26.494   2.434  51.887  1.00  0.00     0.218 C 
HETATM   15  O1  UNL     1      27.719   2.577  51.994  1.00  0.00    -0.274 OA
HETATM   16  N2  UNL     1      25.993   2.976  50.663  1.00  0.00    -0.357 N 
HETATM   17  H10 UNL     1      24.959   2.913  50.457  1.00  0.00     0.162 HD
BRANCH  16  18
HETATM   18  C10 UNL     1      26.791   3.621  49.655  1.00  0.00     0.161 C 
BRANCH  18  19
HETATM   19  C11 UNL     1      26.120   4.838  49.117  1.00  0.00    -0.041 A 
HETATM   20  C12 UNL     1      24.729   4.756  49.094  1.00  0.00     0.009 A 
HETATM   21  C13 UNL     1      23.934   5.759  48.637  1.00  0.00     0.001 A 
HETATM   22  C14 UNL     1      24.496   6.937  48.161  1.00  0.00     0.000 A 
HETATM   23  C15 UNL     1      25.872   7.022  48.182  1.00  0.00     0.001 A 
HETATM   24  C16 UNL     1      26.664   5.998  48.648  1.00  0.00     0.009 A 
ENDBRANCH  18  19
ENDBRANCH  16  18
ENDBRANCH  13  14
ENDBRANCH   1  13
TORSDOF 4
ENDMDL
MODEL 4
REMARK VINA RESULT:      -7.4      2.470      3.300
REMARK  4 active torsions:
REMARK  status: ('A' for Active; 'I' for Inactive)
REMARK    1  A    between atoms: C1_2  and  C2_3 
REMARK       I    between atoms: C1_2  and  N2_14 
REMARK    2  A    between atoms: C2_3  and  C3_4 
REMARK    3  A    between atoms: N2_14  and  C10_15 
REMARK    4  A    between atoms: C10_15  and  C11_16 
ROOT
HETATM    1  C3  UNL     1      24.527   1.487  53.096  1.00  0.00     0.091 A 
HETATM    2  C4  UNL     1      23.988   0.153  53.443  1.00  0.00     0.087 A 
HETATM    3  S1  UNL     1      22.450  -0.459  53.374  1.00  0.00    -0.065 SA
HETATM    4  N1  UNL     1      24.951  -0.757  53.922  1.00  0.00    -0.350 N 
HETATM    5  C5  UNL     1      26.196  -0.045  53.926  1.00  0.00     0.036 A 
HETATM    6  C6  UNL     1      27.421  -0.342  54.260  1.00  0.00     0.008 A 
HETATM    7  C7  UNL     1      28.744   0.266  54.314  1.00  0.00     0.065 A 
HETATM    8  P1  UNL     1      28.620   2.025  53.732  1.00  0.00    -0.102 P 
HETATM    9  C8  UNL     1      26.854   2.239  53.310  1.00  0.00     0.014 A 
HETATM   10  C9  UNL     1      25.979   1.288  53.450  1.00  0.00    -0.020 A 
HETATM   11  H4  UNL     1      24.937  -1.749  54.242  1.00  0.00     0.166 HD
HETATM   12  H8  UNL     1      29.479   2.243  52.590  1.00  0.00     0.062 HD
ENDROOT
BRANCH   1  13
HETATM   13  C2  UNL     1      24.480   1.746  51.637  1.00  0.00     0.119 C 
BRANCH  13  14
HETATM   14  C1  UNL     1      24.360   3.148  51.224  1.00  0.00     0.218 C 
HETATM   15  O1  UNL     1      24.063   4.177  51.846  1.00  0.00    -0.274 OA
HETATM   16  N2  UNL     1      24.629   3.411  49.845  1.00  0.00    -0.357 N 
HETATM   17  H10 UNL     1      24.895   2.610  49.210  1.00  0.00     0.162 HD
BRANCH  16  18
HETATM   18  C10 UNL     1      24.567   4.707  49.222  1.00  0.00     0.161 C 
BRANCH  18  19
HETATM   19  C11 UNL     1      25.923   5.210  48.864  1.00  0.00    -0.041 A 
HETATM   20  C12 UNL     1      25.941   6.533  48.428  1.00  0.00     0.009 A 
HETATM   21  C13 UNL     1      27.078   7.175  48.052  1.00  0.00     0.001 A 
HETATM   22  C14 UNL     1      28.300   6.516  48.089  1.00  0.00     0.000 A 
HETATM   23  C15 UNL     1      28.287   5.206  48.519  1.00  0.00     0.001 A 
HETATM   24  C16 UNL     1      27.128   4.569  48.897  1.00  0.00     0.009 A 
ENDBRANCH  18  19
ENDBRANCH  16  18
ENDBRANCH  13  14
ENDBRANCH   1  13
TORSDOF 4
ENDMDL
MODEL 5
REMARK VINA RESULT:      -7.3      4.254      5.799
REMARK  4 active torsions:
REMARK  status: ('A' for Active; 'I' for Inactive)
REMARK    1  A    between atoms: C1_2  and  C2_3 
REMARK       I    between atoms: C1_2  and  N2_14 
REMARK    2  A    between atoms: C2_3  and  C3_4 
REMARK    3  A    between atoms: N2_14  and  C10_15 
REMARK    4  A    between atoms: C10_15  and  C11_16 
ROOT
HETATM    1  C3  UNL     1      21.054   0.318  53.446  1.00  0.00     0.091 A 
HETATM    2  C4  UNL     1      21.459   1.313  52.429  1.00  0.00     0.087 A 
HETATM    3  S1  UNL     1      22.816   2.254  52.297  1.00  0.00    -0.065 SA
HETATM    4  N1  UNL     1      20.525   1.498  51.392  1.00  0.00    -0.350 N 
HETATM    5  C5  UNL     1      19.428   0.623  51.691  1.00  0.00     0.036 A 
HETATM    6  C6  UNL     1      18.287   0.355  51.120  1.00  0.00     0.008 A 
HETATM    7  C7  UNL     1      17.112  -0.485  51.309  1.00  0.00     0.065 A 
HETATM    8  P1  UNL     1      17.321  -1.467  52.872  1.00  0.00    -0.102 P 
HETATM    9  C8  UNL     1      18.960  -0.961  53.507  1.00  0.00     0.014 A 
HETATM   10  C9  UNL     1      19.706  -0.084  52.905  1.00  0.00    -0.020 A 
HETATM   11  H4  UNL     1      20.479   2.088  50.534  1.00  0.00     0.166 HD
HETATM   12  H8  UNL     1      17.263  -2.884  52.592  1.00  0.00     0.062 HD
ENDROOT
BRANCH   1  13
HETATM   13  C2  UNL     1      21.903  -0.897  53.409  1.00  0.00     0.119 C 
BRANCH  13  14
HETATM   14  C1  UNL     1      22.940  -1.003  54.441  1.00  0.00     0.218 C 
HETATM   15  O1  UNL     1      22.904  -1.372  55.623  1.00  0.00    -0.274 OA
HETATM   16  N2  UNL     1      24.255  -0.613  54.039  1.00  0.00    -0.357 N 
HETATM   17  H10 UNL     1      24.413  -0.280  53.050  1.00  0.00     0.162 HD
BRANCH  16  18
HETATM   18  C10 UNL     1      25.419  -0.632  54.885  1.00  0.00     0.161 C 
BRANCH  18  19
HETATM   19  C11 UNL     1      26.444   0.350  54.431  1.00  0.00    -0.041 A 
HETATM   20  C12 UNL     1      27.749   0.012  54.783  1.00  0.00     0.009 A 
HETATM   21  C13 UNL     1      28.825   0.778  54.465  1.00  0.00     0.001 A 
HETATM   22  C14 UNL     1      28.659   1.962  53.758  1.00  0.00     0.000 A 
HETATM   23  C15 UNL     1      27.369   2.301  53.409  1.00  0.00     0.001 A 
HETATM   24  C16 UNL     1      26.289   1.515  53.737  1.00  0.00     0.009 A 
ENDBRANCH  18  19
ENDBRANCH  16  18
ENDBRANCH  13  14
ENDBRANCH   1  13
TORSDOF 4
ENDMDL
MODEL 6
REMARK VINA RESULT:      -7.1      2.345      2.899
REMARK  4 active torsions:
REMARK  status: ('A' for Active; 'I' for Inactive)
REMARK    1  A    between atoms: C1_2  and  C2_3 
REMARK       I    between atoms: C1_2  and  N2_14 
REMARK    2  A    between atoms: C2_3  and  C3_4 
REMARK    3  A    between atoms: N2_14  and  C10_15 
REMARK    4  A    between atoms: C10_15  and  C11_16 
ROOT
HETATM    1  C3  UNL     1      23.144   1.731  52.763  1.00  0.00     0.091 A 
HETATM    2  C4  UNL     1      22.366   0.511  53.074  1.00  0.00     0.087 A 
HETATM    3  S1  UNL     1      20.738   0.206  53.020  1.00  0.00    -0.065 SA
HETATM    4  N1  UNL     1      23.145  -0.583  53.496  1.00  0.00    -0.350 N 
HETATM    5  C5  UNL     1      24.503  -0.122  53.497  1.00  0.00     0.036 A 
HETATM    6  C6  UNL     1      25.654  -0.659  53.790  1.00  0.00     0.008 A 
HETATM    7  C7  UNL     1      27.069  -0.317  53.835  1.00  0.00     0.065 A 
HETATM    8  P1  UNL     1      27.274   1.456  53.320  1.00  0.00    -0.102 P 
HETATM    9  C8  UNL     1      25.574   2.019  52.948  1.00  0.00     0.014 A 
HETATM   10  C9  UNL     1      24.536   1.246  53.075  1.00  0.00    -0.020 A 
HETATM   11  H4  UNL     1      22.947  -1.566  53.781  1.00  0.00     0.166 HD
HETATM   12  H8  UNL     1      28.140   1.552  52.166  1.00  0.00     0.062 HD
ENDROOT
BRANCH   1  13
HETATM   13  C2  UNL     1      23.122   2.053  51.316  1.00  0.00     0.119 C 
BRANCH  13  14
HETATM   14  C1  UNL     1      23.221   3.472  50.958  1.00  0.00     0.218 C 
HETATM   15  O1  UNL     1      22.821   4.501  51.519  1.00  0.00    -0.274 OA
HETATM   16  N2  UNL     1      23.900   3.755  49.733  1.00  0.00    -0.357 N 
HETATM   17  H10 UNL     1      24.288   2.955  49.163  1.00  0.00     0.162 HD
BRANCH  16  18
HETATM   18  C10 UNL     1      24.109   5.069  49.186  1.00  0.00     0.161 C 
BRANCH  18  19
HETATM   19  C11 UNL     1      25.548   5.320  48.892  1.00  0.00    -0.041 A 
HETATM   20  C12 UNL     1      25.816   6.605  48.425  1.00  0.00     0.009 A 
HETATM   21  C13 UNL     1      27.065   7.029  48.097  1.00  0.00     0.001 A 
HETATM   22  C14 UNL     1      28.151   6.172  48.217  1.00  0.00     0.000 A 
HETATM   23  C15 UNL     1      27.889   4.899  48.678  1.00  0.00     0.001 A 
HETATM   24  C16 UNL     1      26.620   4.484  49.007  1.00  0.00     0.009 A 
ENDBRANCH  18  19
ENDBRANCH  16  18
ENDBRANCH  13  14
ENDBRANCH   1  13
TORSDOF 4
ENDMDL
MODEL 7
REMARK VINA RESULT:      -7.0      3.966      7.813
REMARK  4 active torsions:
REMARK  status: ('A' for Active; 'I' for Inactive)
REMARK    1  A    between atoms: C1_2  and  C2_3 
REMARK       I    between atoms: C1_2  and  N2_14 
REMARK    2  A    between atoms: C2_3  and  C3_4 
REMARK    3  A    between atoms: N2_14  and  C10_15 
REMARK    4  A    between atoms: C10_15  and  C11_16 
ROOT
HETATM    1  C3  UNL     1      25.459   4.685  49.041  1.00  0.00     0.091 A 
HETATM    2  C4  UNL     1      24.405   5.709  48.871  1.00  0.00     0.087 A 
HETATM    3  S1  UNL     1      22.762   5.636  49.080  1.00  0.00    -0.065 SA
HETATM    4  N1  UNL     1      24.878   6.966  48.450  1.00  0.00    -0.350 N 
HETATM    5  C5  UNL     1      26.299   6.824  48.307  1.00  0.00     0.036 A 
HETATM    6  C6  UNL     1      27.269   7.618  47.951  1.00  0.00     0.008 A 
HETATM    7  C7  UNL     1      28.714   7.606  47.767  1.00  0.00     0.065 A 
HETATM    8  P1  UNL     1      29.354   5.907  48.156  1.00  0.00    -0.102 P 
HETATM    9  C8  UNL     1      27.864   4.961  48.635  1.00  0.00     0.014 A 
HETATM   10  C9  UNL     1      26.674   5.483  48.643  1.00  0.00    -0.020 A 
HETATM   11  H4  UNL     1      24.442   7.890  48.243  1.00  0.00     0.166 HD
HETATM   12  H8  UNL     1      30.326   5.964  49.225  1.00  0.00     0.062 HD
ENDROOT
BRANCH   1  13
HETATM   13  C2  UNL     1      25.648   4.310  50.463  1.00  0.00     0.119 C 
BRANCH  13  14
HETATM   14  C1  UNL     1      25.180   2.977  50.858  1.00  0.00     0.218 C 
HETATM   15  O1  UNL     1      24.115   2.377  50.662  1.00  0.00    -0.274 OA
HETATM   16  N2  UNL     1      26.106   2.196  51.617  1.00  0.00    -0.357 N 
HETATM   17  H10 UNL     1      27.053   2.601  51.848  1.00  0.00     0.162 HD
BRANCH  16  18
HETATM   18  C10 UNL     1      25.858   0.868  52.112  1.00  0.00     0.161 C 
BRANCH  18  19
HETATM   19  C11 UNL     1      27.096   0.246  52.661  1.00  0.00    -0.041 A 
HETATM   20  C12 UNL     1      28.036   1.165  53.124  1.00  0.00     0.009 A 
HETATM   21  C13 UNL     1      29.230   0.800  53.658  1.00  0.00     0.001 A 
HETATM   22  C14 UNL     1      29.569  -0.543  53.764  1.00  0.00     0.000 A 
HETATM   23  C15 UNL     1      28.642  -1.456  53.307  1.00  0.00     0.001 A 
HETATM   24  C16 UNL     1      27.436  -1.071  52.769  1.00  0.00     0.009 A 
ENDBRANCH  18  19
ENDBRANCH  16  18
ENDBRANCH  13  14
ENDBRANCH   1  13
TORSDOF 4
ENDMDL
MODEL 8
REMARK VINA RESULT:      -6.9      3.393      4.384
REMARK  4 active torsions:
REMARK  status: ('A' for Active; 'I' for Inactive)
REMARK    1  A    between atoms: C1_2  and  C2_3 
REMARK       I    between atoms: C1_2  and  N2_14 
REMARK    2  A    between atoms: C2_3  and  C3_4 
REMARK    3  A    between atoms: N2_14  and  C10_15 
REMARK    4  A    between atoms: C10_15  and  C11_16 
ROOT
HETATM    1  C3  UNL     1      24.481   1.033  53.429  1.00  0.00     0.091 A 
HETATM    2  C4  UNL     1      24.163  -0.250  54.097  1.00  0.00     0.087 A 
HETATM    3  S1  UNL     1      22.728  -1.053  54.300  1.00  0.00    -0.065 SA
HETATM    4  N1  UNL     1      25.274  -0.899  54.666  1.00  0.00    -0.350 N 
HETATM    5  C5  UNL     1      26.401  -0.051  54.407  1.00  0.00     0.036 A 
HETATM    6  C6  UNL     1      27.674  -0.107  54.682  1.00  0.00     0.008 A 
HETATM    7  C7  UNL     1      28.896   0.662  54.486  1.00  0.00     0.065 A 
HETATM    8  P1  UNL     1      28.484   2.218  53.560  1.00  0.00    -0.102 P 
HETATM    9  C8  UNL     1      26.682   2.105  53.266  1.00  0.00     0.014 A 
HETATM   10  C9  UNL     1      25.965   1.105  53.682  1.00  0.00    -0.020 A 
HETATM   11  H4  UNL     1      25.424  -1.789  55.188  1.00  0.00     0.166 HD
HETATM   12  H8  UNL     1      29.230   2.285  52.323  1.00  0.00     0.062 HD
ENDROOT
BRANCH   1  13
HETATM   13  C2  UNL     1      24.306   0.954  51.959  1.00  0.00     0.119 C 
BRANCH  13  14
HETATM   14  C1  UNL     1      23.319   1.862  51.366  1.00  0.00     0.218 C 
HETATM   15  O1  UNL     1      22.814   1.921  50.237  1.00  0.00    -0.274 OA
HETATM   16  N2  UNL     1      22.826   2.889  52.231  1.00  0.00    -0.357 N 
HETATM   17  H10 UNL     1      23.183   2.941  53.223  1.00  0.00     0.162 HD
BRANCH  16  18
HETATM   18  C10 UNL     1      21.860   3.889  51.861  1.00  0.00     0.161 C 
BRANCH  18  19
HETATM   19  C11 UNL     1      22.515   5.176  51.494  1.00  0.00    -0.041 A 
HETATM   20  C12 UNL     1      21.632   6.153  51.038  1.00  0.00     0.009 A 
HETATM   21  C13 UNL     1      22.032   7.392  50.651  1.00  0.00     0.001 A 
HETATM   22  C14 UNL     1      23.375   7.742  50.697  1.00  0.00     0.000 A 
HETATM   23  C15 UNL     1      24.252   6.778  51.148  1.00  0.00     0.001 A 
HETATM   24  C16 UNL     1      23.833   5.527  51.536  1.00  0.00     0.009 A 
ENDBRANCH  18  19
ENDBRANCH  16  18
ENDBRANCH  13  14
ENDBRANCH   1  13
TORSDOF 4
ENDMDL
MODEL 9
REMARK VINA RESULT:      -6.9      3.633      6.848
REMARK  4 active torsions:
REMARK  status: ('A' for Active; 'I' for Inactive)
REMARK    1  A    between atoms: C1_2  and  C2_3 
REMARK       I    between atoms: C1_2  and  N2_14 
REMARK    2  A    between atoms: C2_3  and  C3_4 
REMARK    3  A    between atoms: N2_14  and  C10_15 
REMARK    4  A    between atoms: C10_15  and  C11_16 
ROOT
HETATM    1  C3  UNL     1      23.184   3.528  51.234  1.00  0.00     0.091 A 
HETATM    2  C4  UNL     1      21.829   3.893  51.704  1.00  0.00     0.087 A 
HETATM    3  S1  UNL     1      20.581   2.966  52.277  1.00  0.00    -0.065 SA
HETATM    4  N1  UNL     1      21.548   5.272  51.651  1.00  0.00    -0.350 N 
HETATM    5  C5  UNL     1      22.725   5.894  51.118  1.00  0.00     0.036 A 
HETATM    6  C6  UNL     1      23.068   7.119  50.835  1.00  0.00     0.008 A 
HETATM    7  C7  UNL     1      24.196   7.871  50.305  1.00  0.00     0.065 A 
HETATM    8  P1  UNL     1      25.567   6.687  49.896  1.00  0.00    -0.102 P 
HETATM    9  C8  UNL     1      24.904   5.048  50.365  1.00  0.00     0.014 A 
HETATM   10  C9  UNL     1      23.711   4.888  50.854  1.00  0.00    -0.020 A 
HETATM   11  H4  UNL     1      20.731   5.870  51.899  1.00  0.00     0.166 HD
HETATM   12  H8  UNL     1      26.763   7.019  50.638  1.00  0.00     0.062 HD
ENDROOT
BRANCH   1  13
HETATM   13  C2  UNL     1      24.044   3.035  52.336  1.00  0.00     0.119 C 
BRANCH  13  14
HETATM   14  C1  UNL     1      24.123   1.580  52.507  1.00  0.00     0.218 C 
HETATM   15  O1  UNL     1      23.355   0.662  52.188  1.00  0.00    -0.274 OA
HETATM   16  N2  UNL     1      25.296   1.098  53.165  1.00  0.00    -0.357 N 
HETATM   17  H10 UNL     1      26.028   1.788  53.484  1.00  0.00     0.162 HD
BRANCH  16  18
HETATM   18  C10 UNL     1      25.580  -0.285  53.442  1.00  0.00     0.161 C 
BRANCH  18  19
HETATM   19  C11 UNL     1      27.046  -0.550  53.471  1.00  0.00    -0.041 A 
HETATM   20  C12 UNL     1      27.796   0.471  54.053  1.00  0.00     0.009 A 
HETATM   21  C13 UNL     1      29.149   0.422  54.171  1.00  0.00     0.001 A 
HETATM   22  C14 UNL     1      29.855  -0.679  53.703  1.00  0.00     0.000 A 
HETATM   23  C15 UNL     1      29.117  -1.691  53.127  1.00  0.00     0.001 A 
HETATM   24  C16 UNL     1      27.748  -1.628  53.013  1.00  0.00     0.009 A 
ENDBRANCH  18  19
ENDBRANCH  16  18
ENDBRANCH  13  14
ENDBRANCH   1  13
TORSDOF 4
ENDMDL
