MODEL 1
REMARK VINA RESULT:      -7.7      0.000      0.000
REMARK  5 active torsions:
REMARK  status: ('A' for Active; 'I' for Inactive)
REMARK    1  A    between atoms: O1_2  and  C2_3 
REMARK    2  A    between atoms: C6_9  and  N3_10 
REMARK    3  A    between atoms: N3_10  and  C7_11 
REMARK    4  A    between atoms: C10_14  and  N4_15 
REMARK    5  A    between atoms: C18_24  and  O3_25 
ROOT
HETATM    1  C2  UNL     1      32.962   6.151  48.715  1.00  0.00     0.103 A 
HETATM    2  C3  UNL     1      32.571   7.410  49.062  1.00  0.00     0.072 A 
HETATM    3  C4  UNL     1      31.257   7.782  48.955  1.00  0.00     0.075 A 
HETATM    4  N1  UNL     1      30.985   9.042  49.324  1.00  0.00    -0.241 NA
HETATM    5  C5  UNL     1      29.720   9.463  49.242  1.00  0.00     0.236 A 
HETATM    6  N2  UNL     1      28.776   8.626  48.802  1.00  0.00    -0.224 NA
HETATM    7  C6  UNL     1      28.944   7.365  48.416  1.00  0.00     0.142 A 
HETATM    8  C16 UNL     1      30.247   6.939  48.501  1.00  0.00     0.042 A 
HETATM    9  C17 UNL     1      30.688   5.698  48.169  1.00  0.00     0.057 A 
HETATM   10  C18 UNL     1      32.000   5.263  48.255  1.00  0.00     0.102 A 
ENDROOT
BRANCH   7  11
HETATM   11  N3  UNL     1      27.961   6.466  47.948  1.00  0.00    -0.340 N 
HETATM   12  H6  UNL     1      27.809   6.296  46.955  1.00  0.00     0.167 HD
BRANCH  11  13
HETATM   13  C7  UNL     1      27.070   5.689  48.730  1.00  0.00     0.033 A 
HETATM   14  C8  UNL     1      27.225   4.350  48.950  1.00  0.00     0.032 A 
HETATM   15  C9  UNL     1      26.385   3.563  49.707  1.00  0.00     0.031 A 
HETATM   16  C10 UNL     1      25.286   4.132  50.311  1.00  0.00     0.032 A 
HETATM   17  C14 UNL     1      25.076   5.479  50.126  1.00  0.00     0.031 A 
HETATM   18  C15 UNL     1      25.956   6.204  49.356  1.00  0.00     0.032 A 
BRANCH  16  19
HETATM   19  N4  UNL     1      24.384   3.386  51.099  1.00  0.00    -0.357 N 
HETATM   20  C11 UNL     1      23.650   2.185  50.743  1.00  0.00     0.151 C 
HETATM   21  C12 UNL     1      23.647   1.441  52.055  1.00  0.00     0.189 C 
HETATM   22  O2  UNL     1      23.795   2.388  53.056  1.00  0.00    -0.370 OA
HETATM   23  C13 UNL     1      23.964   3.617  52.443  1.00  0.00     0.293 C 
ENDBRANCH  16  19
ENDBRANCH  11  13
ENDBRANCH   7  11
BRANCH  10  24
HETATM   24  O3  UNL     1      32.399   3.980  47.902  1.00  0.00    -0.353 OA
HETATM   25  C19 UNL     1      32.160   3.543  46.576  1.00  0.00     0.210 C 
ENDBRANCH  10  24
BRANCH   1  26
HETATM   26  O1  UNL     1      34.276   5.719  48.802  1.00  0.00    -0.353 OA
HETATM   27  C1  UNL     1      35.374   6.561  48.593  1.00  0.00     0.210 C 
ENDBRANCH   1  26
TORSDOF 5
ENDMDL
MODEL 2
REMARK VINA RESULT:      -7.7      4.018      9.101
REMARK  5 active torsions:
REMARK  status: ('A' for Active; 'I' for Inactive)
REMARK    1  A    between atoms: O1_2  and  C2_3 
REMARK    2  A    between atoms: C6_9  and  N3_10 
REMARK    3  A    between atoms: N3_10  and  C7_11 
REMARK    4  A    between atoms: C10_14  and  N4_15 
REMARK    5  A    between atoms: C18_24  and  O3_25 
ROOT
HETATM    1  C2  UNL     1      23.298  -0.197  53.090  1.00  0.00     0.103 A 
HETATM    2  C3  UNL     1      24.613  -0.099  53.435  1.00  0.00     0.072 A 
HETATM    3  C4  UNL     1      25.434   0.788  52.790  1.00  0.00     0.075 A 
HETATM    4  N1  UNL     1      26.708   0.802  53.210  1.00  0.00    -0.241 NA
HETATM    5  C5  UNL     1      27.557   1.646  52.618  1.00  0.00     0.236 A 
HETATM    6  N2  UNL     1      27.117   2.443  51.639  1.00  0.00    -0.224 NA
HETATM    7  C6  UNL     1      25.880   2.504  51.155  1.00  0.00     0.142 A 
HETATM    8  C16 UNL     1      25.013   1.632  51.767  1.00  0.00     0.042 A 
HETATM    9  C17 UNL     1      23.696   1.495  51.463  1.00  0.00     0.057 A 
HETATM   10  C18 UNL     1      22.817   0.619  52.077  1.00  0.00     0.102 A 
ENDROOT
BRANCH   7  11
HETATM   11  N3  UNL     1      25.396   3.337  50.123  1.00  0.00    -0.340 N 
HETATM   12  H6  UNL     1      24.655   3.042  49.490  1.00  0.00     0.167 HD
BRANCH  11  13
HETATM   13  C7  UNL     1      25.831   4.648  49.807  1.00  0.00     0.033 A 
HETATM   14  C8  UNL     1      26.856   4.921  48.946  1.00  0.00     0.032 A 
HETATM   15  C9  UNL     1      27.303   6.179  48.611  1.00  0.00     0.031 A 
HETATM   16  C10 UNL     1      26.696   7.284  49.165  1.00  0.00     0.032 A 
HETATM   17  C14 UNL     1      25.656   7.073  50.041  1.00  0.00     0.031 A 
HETATM   18  C15 UNL     1      25.262   5.788  50.331  1.00  0.00     0.032 A 
BRANCH  16  19
HETATM   19  N4  UNL     1      27.103   8.602  48.867  1.00  0.00    -0.357 N 
HETATM   20  C11 UNL     1      26.810   9.393  47.685  1.00  0.00     0.151 C 
HETATM   21  C12 UNL     1      26.685  10.774  48.278  1.00  0.00     0.189 C 
HETATM   22  O2  UNL     1      27.419  10.776  49.453  1.00  0.00    -0.370 OA
HETATM   23  C13 UNL     1      27.900   9.493  49.644  1.00  0.00     0.293 C 
ENDBRANCH  16  19
ENDBRANCH  11  13
ENDBRANCH   7  11
BRANCH  10  24
HETATM   24  O3  UNL     1      21.477   0.519  51.727  1.00  0.00    -0.353 OA
HETATM   25  C19 UNL     1      20.588   1.528  52.173  1.00  0.00     0.210 C 
ENDBRANCH  10  24
BRANCH   1  26
HETATM   26  O1  UNL     1      22.421  -1.075  53.708  1.00  0.00    -0.353 OA
HETATM   27  C1  UNL     1      21.839  -0.826  54.955  1.00  0.00     0.210 C 
ENDBRANCH   1  26
TORSDOF 5
ENDMDL
MODEL 3
REMARK VINA RESULT:      -7.6      6.894      9.500
REMARK  5 active torsions:
REMARK  status: ('A' for Active; 'I' for Inactive)
REMARK    1  A    between atoms: O1_2  and  C2_3 
REMARK    2  A    between atoms: C6_9  and  N3_10 
REMARK    3  A    between atoms: N3_10  and  C7_11 
REMARK    4  A    between atoms: C10_14  and  N4_15 
REMARK    5  A    between atoms: C18_24  and  O3_25 
ROOT
HETATM    1  C2  UNL     1      26.571   1.072  54.008  1.00  0.00     0.103 A 
HETATM    2  C3  UNL     1      25.983   2.283  53.795  1.00  0.00     0.072 A 
HETATM    3  C4  UNL     1      24.734   2.358  53.237  1.00  0.00     0.075 A 
HETATM    4  N1  UNL     1      24.252   3.599  53.073  1.00  0.00    -0.241 NA
HETATM    5  C5  UNL     1      23.038   3.737  52.533  1.00  0.00     0.236 A 
HETATM    6  N2  UNL     1      22.350   2.648  52.178  1.00  0.00    -0.224 NA
HETATM    7  C6  UNL     1      22.739   1.383  52.299  1.00  0.00     0.142 A 
HETATM    8  C16 UNL     1      23.987   1.248  52.854  1.00  0.00     0.042 A 
HETATM    9  C17 UNL     1      24.618   0.068  53.087  1.00  0.00     0.057 A 
HETATM   10  C18 UNL     1      25.876  -0.073  53.648  1.00  0.00     0.102 A 
ENDROOT
BRANCH   7  11
HETATM   11  N3  UNL     1      22.027   0.220  51.929  1.00  0.00    -0.340 N 
HETATM   12  H6  UNL     1      22.488  -0.596  51.532  1.00  0.00     0.167 HD
BRANCH  11  13
HETATM   13  C7  UNL     1      20.631  -0.001  52.043  1.00  0.00     0.033 A 
HETATM   14  C8  UNL     1      19.726   0.366  51.087  1.00  0.00     0.032 A 
HETATM   15  C9  UNL     1      18.366   0.164  51.158  1.00  0.00     0.031 A 
HETATM   16  C10 UNL     1      17.829  -0.455  52.266  1.00  0.00     0.032 A 
HETATM   17  C14 UNL     1      18.692  -0.847  53.263  1.00  0.00     0.031 A 
HETATM   18  C15 UNL     1      20.041  -0.613  53.125  1.00  0.00     0.032 A 
BRANCH  16  19
HETATM   19  N4  UNL     1      16.445  -0.693  52.405  1.00  0.00    -0.357 N 
HETATM   20  C11 UNL     1      15.384   0.263  52.665  1.00  0.00     0.151 C 
HETATM   21  C12 UNL     1      14.254  -0.324  51.858  1.00  0.00     0.189 C 
HETATM   22  O2  UNL     1      14.511  -1.679  51.729  1.00  0.00    -0.370 OA
HETATM   23  C13 UNL     1      15.735  -1.927  52.324  1.00  0.00     0.293 C 
ENDBRANCH  16  19
ENDBRANCH  11  13
ENDBRANCH   7  11
BRANCH  10  24
HETATM   24  O3  UNL     1      26.476  -1.307  53.865  1.00  0.00    -0.353 OA
HETATM   25  C19 UNL     1      27.039  -1.986  52.757  1.00  0.00     0.210 C 
ENDBRANCH  10  24
BRANCH   1  26
HETATM   26  O1  UNL     1      27.831   0.935  54.569  1.00  0.00    -0.353 OA
HETATM   27  C1  UNL     1      29.013   1.207  53.872  1.00  0.00     0.210 C 
ENDBRANCH   1  26
TORSDOF 5
ENDMDL
MODEL 4
REMARK VINA RESULT:      -7.5      5.940      8.498
REMARK  5 active torsions:
REMARK  status: ('A' for Active; 'I' for Inactive)
REMARK    1  A    between atoms: O1_2  and  C2_3 
REMARK    2  A    between atoms: C6_9  and  N3_10 
REMARK    3  A    between atoms: N3_10  and  C7_11 
REMARK    4  A    between atoms: C10_14  and  N4_15 
REMARK    5  A    between atoms: C18_24  and  O3_25 
ROOT
HETATM    1  C2  UNL     1      27.364   0.004  53.610  1.00  0.00     0.103 A 
HETATM    2  C3  UNL     1      27.573   0.750  52.489  1.00  0.00     0.072 A 
HETATM    3  C4  UNL     1      26.605   1.608  52.038  1.00  0.00     0.075 A 
HETATM    4  N1  UNL     1      26.917   2.293  50.927  1.00  0.00    -0.241 NA
HETATM    5  C5  UNL     1      26.013   3.146  50.438  1.00  0.00     0.236 A 
HETATM    6  N2  UNL     1      24.840   3.289  51.063  1.00  0.00    -0.224 NA
HETATM    7  C6  UNL     1      24.439   2.660  52.163  1.00  0.00     0.142 A 
HETATM    8  C16 UNL     1      25.373   1.785  52.660  1.00  0.00     0.042 A 
HETATM    9  C17 UNL     1      25.216   1.019  53.770  1.00  0.00     0.057 A 
HETATM   10  C18 UNL     1      26.155   0.135  54.276  1.00  0.00     0.102 A 
ENDROOT
BRANCH   7  11
HETATM   11  N3  UNL     1      23.206   2.798  52.837  1.00  0.00    -0.340 N 
HETATM   12  H6  UNL     1      23.072   3.466  53.593  1.00  0.00     0.167 HD
BRANCH  11  13
HETATM   13  C7  UNL     1      22.012   2.075  52.591  1.00  0.00     0.033 A 
HETATM   14  C8  UNL     1      20.895   2.625  52.026  1.00  0.00     0.032 A 
HETATM   15  C9  UNL     1      19.721   1.955  51.768  1.00  0.00     0.031 A 
HETATM   16  C10 UNL     1      19.617   0.620  52.089  1.00  0.00     0.032 A 
HETATM   17  C14 UNL     1      20.709   0.010  52.662  1.00  0.00     0.031 A 
HETATM   18  C15 UNL     1      21.851   0.741  52.892  1.00  0.00     0.032 A 
BRANCH  16  19
HETATM   19  N4  UNL     1      18.443  -0.128  51.852  1.00  0.00    -0.357 N 
HETATM   20  C11 UNL     1      17.808  -1.111  52.711  1.00  0.00     0.151 C 
HETATM   21  C12 UNL     1      16.350  -0.860  52.419  1.00  0.00     0.189 C 
HETATM   22  O2  UNL     1      16.283  -0.288  51.159  1.00  0.00    -0.370 OA
HETATM   23  C13 UNL     1      17.582  -0.109  50.716  1.00  0.00     0.293 C 
ENDBRANCH  16  19
ENDBRANCH  11  13
ENDBRANCH   7  11
BRANCH  10  24
HETATM   24  O3  UNL     1      25.942  -0.625  55.419  1.00  0.00    -0.353 OA
HETATM   25  C19 UNL     1      24.661  -1.195  55.619  1.00  0.00     0.210 C 
ENDBRANCH  10  24
BRANCH   1  26
HETATM   26  O1  UNL     1      28.306  -0.879  54.114  1.00  0.00    -0.353 OA
HETATM   27  C1  UNL     1      29.667  -0.809  53.797  1.00  0.00     0.210 C 
ENDBRANCH   1  26
TORSDOF 5
ENDMDL
MODEL 5
REMARK VINA RESULT:      -7.4      6.727     11.063
REMARK  5 active torsions:
REMARK  status: ('A' for Active; 'I' for Inactive)
REMARK    1  A    between atoms: O1_2  and  C2_3 
REMARK    2  A    between atoms: C6_9  and  N3_10 
REMARK    3  A    between atoms: N3_10  and  C7_11 
REMARK    4  A    between atoms: C10_14  and  N4_15 
REMARK    5  A    between atoms: C18_24  and  O3_25 
ROOT
HETATM    1  C2  UNL     1      19.751  -0.858  53.414  1.00  0.00     0.103 A 
HETATM    2  C3  UNL     1      20.602  -1.323  54.372  1.00  0.00     0.072 A 
HETATM    3  C4  UNL     1      21.938  -1.026  54.314  1.00  0.00     0.075 A 
HETATM    4  N1  UNL     1      22.683  -1.534  55.307  1.00  0.00    -0.241 NA
HETATM    5  C5  UNL     1      23.994  -1.278  55.306  1.00  0.00     0.236 A 
HETATM    6  N2  UNL     1      24.516  -0.531  54.328  1.00  0.00    -0.224 NA
HETATM    7  C6  UNL     1      23.865   0.015  53.306  1.00  0.00     0.142 A 
HETATM    8  C16 UNL     1      22.519  -0.253  53.313  1.00  0.00     0.042 A 
HETATM    9  C17 UNL     1      21.628   0.185  52.386  1.00  0.00     0.057 A 
HETATM   10  C18 UNL     1      20.269  -0.081  52.389  1.00  0.00     0.102 A 
ENDROOT
BRANCH   7  11
HETATM   11  N3  UNL     1      24.399   0.806  52.264  1.00  0.00    -0.340 N 
HETATM   12  H6  UNL     1      25.073   0.439  51.595  1.00  0.00     0.167 HD
BRANCH  11  13
HETATM   13  C7  UNL     1      24.105   2.163  51.984  1.00  0.00     0.033 A 
HETATM   14  C8  UNL     1      23.956   3.121  52.947  1.00  0.00     0.032 A 
HETATM   15  C9  UNL     1      23.676   4.449  52.715  1.00  0.00     0.031 A 
HETATM   16  C10 UNL     1      23.526   4.894  51.420  1.00  0.00     0.032 A 
HETATM   17  C14 UNL     1      23.665   3.975  50.406  1.00  0.00     0.031 A 
HETATM   18  C15 UNL     1      23.944   2.663  50.711  1.00  0.00     0.032 A 
BRANCH  16  19
HETATM   19  N4  UNL     1      23.239   6.240  51.110  1.00  0.00    -0.357 N 
HETATM   20  C11 UNL     1      24.164   7.347  50.943  1.00  0.00     0.151 C 
HETATM   21  C12 UNL     1      23.488   8.133  49.847  1.00  0.00     0.189 C 
HETATM   22  O2  UNL     1      22.139   7.820  49.899  1.00  0.00    -0.370 OA
HETATM   23  C13 UNL     1      21.974   6.858  50.880  1.00  0.00     0.293 C 
ENDBRANCH  16  19
ENDBRANCH  11  13
ENDBRANCH   7  11
BRANCH  10  24
HETATM   24  O3  UNL     1      19.400   0.394  51.414  1.00  0.00    -0.353 OA
HETATM   25  C19 UNL     1      19.950   1.050  50.286  1.00  0.00     0.210 C 
ENDBRANCH  10  24
BRANCH   1  26
HETATM   26  O1  UNL     1      18.391  -1.127  53.421  1.00  0.00    -0.353 OA
HETATM   27  C1  UNL     1      17.865  -2.409  53.610  1.00  0.00     0.210 C 
ENDBRANCH   1  26
TORSDOF 5
ENDMDL
MODEL 6
REMARK VINA RESULT:      -7.4      5.908      9.060
REMARK  5 active torsions:
REMARK  status: ('A' for Active; 'I' for Inactive)
REMARK    1  A    between atoms: O1_2  and  C2_3 
REMARK    2  A    between atoms: C6_9  and  N3_10 
REMARK    3  A    between atoms: N3_10  and  C7_11 
REMARK    4  A    between atoms: C10_14  and  N4_15 
REMARK    5  A    between atoms: C18_24  and  O3_25 
ROOT
HETATM    1  C2  UNL     1      26.084  -0.410  53.818  1.00  0.00     0.103 A 
HETATM    2  C3  UNL     1      25.053  -0.894  54.566  1.00  0.00     0.072 A 
HETATM    3  C4  UNL     1      23.756  -0.639  54.206  1.00  0.00     0.075 A 
HETATM    4  N1  UNL     1      22.821  -1.164  55.012  1.00  0.00    -0.241 NA
HETATM    5  C5  UNL     1      21.538  -0.949  54.712  1.00  0.00     0.236 A 
HETATM    6  N2  UNL     1      21.228  -0.227  53.630  1.00  0.00    -0.224 NA
HETATM    7  C6  UNL     1      22.077   0.332  52.774  1.00  0.00     0.142 A 
HETATM    8  C16 UNL     1      23.394   0.108  53.088  1.00  0.00     0.042 A 
HETATM    9  C17 UNL     1      24.458   0.566  52.379  1.00  0.00     0.057 A 
HETATM   10  C18 UNL     1      25.789   0.342  52.691  1.00  0.00     0.102 A 
ENDROOT
BRANCH   7  11
HETATM   11  N3  UNL     1      21.769   1.097  51.627  1.00  0.00    -0.340 N 
HETATM   12  H6  UNL     1      21.292   0.699  50.820  1.00  0.00     0.167 HD
BRANCH  11  13
HETATM   13  C7  UNL     1      22.052   2.469  51.413  1.00  0.00     0.033 A 
HETATM   14  C8  UNL     1      22.589   2.962  50.257  1.00  0.00     0.032 A 
HETATM   15  C9  UNL     1      22.873   4.286  50.010  1.00  0.00     0.031 A 
HETATM   16  C10 UNL     1      22.611   5.228  50.980  1.00  0.00     0.032 A 
HETATM   17  C14 UNL     1      22.069   4.792  52.168  1.00  0.00     0.031 A 
HETATM   18  C15 UNL     1      21.812   3.453  52.346  1.00  0.00     0.032 A 
BRANCH  16  19
HETATM   19  N4  UNL     1      22.877   6.601  50.795  1.00  0.00    -0.357 N 
HETATM   20  C11 UNL     1      24.112   7.324  51.037  1.00  0.00     0.151 C 
HETATM   21  C12 UNL     1      24.084   8.339  49.921  1.00  0.00     0.189 C 
HETATM   22  O2  UNL     1      22.756   8.511  49.566  1.00  0.00    -0.370 OA
HETATM   23  C13 UNL     1      22.006   7.628  50.323  1.00  0.00     0.293 C 
ENDBRANCH  16  19
ENDBRANCH  11  13
ENDBRANCH   7  11
BRANCH  10  24
HETATM   24  O3  UNL     1      26.840   0.834  51.929  1.00  0.00    -0.353 OA
HETATM   25  C19 UNL     1      26.794   2.188  51.516  1.00  0.00     0.210 C 
ENDBRANCH  10  24
BRANCH   1  26
HETATM   26  O1  UNL     1      27.415  -0.637  54.135  1.00  0.00    -0.353 OA
HETATM   27  C1  UNL     1      28.170   0.229  54.933  1.00  0.00     0.210 C 
ENDBRANCH   1  26
TORSDOF 5
ENDMDL
MODEL 7
REMARK VINA RESULT:      -7.3      6.494      9.629
REMARK  5 active torsions:
REMARK  status: ('A' for Active; 'I' for Inactive)
REMARK    1  A    between atoms: O1_2  and  C2_3 
REMARK    2  A    between atoms: C6_9  and  N3_10 
REMARK    3  A    between atoms: N3_10  and  C7_11 
REMARK    4  A    between atoms: C10_14  and  N4_15 
REMARK    5  A    between atoms: C18_24  and  O3_25 
ROOT
HETATM    1  C2  UNL     1      27.404   0.678  53.506  1.00  0.00     0.103 A 
HETATM    2  C3  UNL     1      26.821  -0.094  54.467  1.00  0.00     0.072 A 
HETATM    3  C4  UNL     1      25.475  -0.346  54.431  1.00  0.00     0.075 A 
HETATM    4  N1  UNL     1      25.008  -1.117  55.424  1.00  0.00    -0.241 NA
HETATM    5  C5  UNL     1      23.703  -1.398  55.443  1.00  0.00     0.236 A 
HETATM    6  N2  UNL     1      22.912  -0.910  54.482  1.00  0.00    -0.224 NA
HETATM    7  C6  UNL     1      23.277  -0.141  53.461  1.00  0.00     0.142 A 
HETATM    8  C16 UNL     1      24.620   0.145  53.449  1.00  0.00     0.042 A 
HETATM    9  C17 UNL     1      25.250   0.907  52.517  1.00  0.00     0.057 A 
HETATM   10  C18 UNL     1      26.604   1.197  52.499  1.00  0.00     0.102 A 
ENDROOT
BRANCH   7  11
HETATM   11  N3  UNL     1      22.458   0.384  52.438  1.00  0.00    -0.340 N 
HETATM   12  H6  UNL     1      22.825   0.986  51.704  1.00  0.00     0.167 HD
BRANCH  11  13
HETATM   13  C7  UNL     1      21.067   0.177  52.265  1.00  0.00     0.033 A 
HETATM   14  C8  UNL     1      20.262  -0.398  53.208  1.00  0.00     0.032 A 
HETATM   15  C9  UNL     1      18.908  -0.611  53.080  1.00  0.00     0.031 A 
HETATM   16  C10 UNL     1      18.269  -0.228  51.921  1.00  0.00     0.032 A 
HETATM   17  C14 UNL     1      19.027   0.357  50.933  1.00  0.00     0.031 A 
HETATM   18  C15 UNL     1      20.376   0.539  51.130  1.00  0.00     0.032 A 
BRANCH  16  19
HETATM   19  N4  UNL     1      16.885  -0.416  51.722  1.00  0.00    -0.357 N 
HETATM   20  C11 UNL     1      15.818  -0.395  52.707  1.00  0.00     0.151 C 
HETATM   21  C12 UNL     1      14.697   0.229  51.913  1.00  0.00     0.189 C 
HETATM   22  O2  UNL     1      14.960  -0.023  50.577  1.00  0.00    -0.370 OA
HETATM   23  C13 UNL     1      16.180  -0.673  50.509  1.00  0.00     0.293 C 
ENDBRANCH  16  19
ENDBRANCH  11  13
ENDBRANCH   7  11
BRANCH  10  24
HETATM   24  O3  UNL     1      27.199   1.983  51.520  1.00  0.00    -0.353 OA
HETATM   25  C19 UNL     1      26.370   2.827  50.741  1.00  0.00     0.210 C 
ENDBRANCH  10  24
BRANCH   1  26
HETATM   26  O1  UNL     1      28.760   0.966  53.492  1.00  0.00    -0.353 OA
HETATM   27  C1  UNL     1      29.371   1.821  54.416  1.00  0.00     0.210 C 
ENDBRANCH   1  26
TORSDOF 5
ENDMDL
MODEL 8
REMARK VINA RESULT:      -7.3      3.370      8.293
REMARK  5 active torsions:
REMARK  status: ('A' for Active; 'I' for Inactive)
REMARK    1  A    between atoms: O1_2  and  C2_3 
REMARK    2  A    between atoms: C6_9  and  N3_10 
REMARK    3  A    between atoms: N3_10  and  C7_11 
REMARK    4  A    between atoms: C10_14  and  N4_15 
REMARK    5  A    between atoms: C18_24  and  O3_25 
ROOT
HETATM    1  C2  UNL     1      25.612   0.060  53.357  1.00  0.00     0.103 A 
HETATM    2  C3  UNL     1      24.405   0.642  53.109  1.00  0.00     0.072 A 
HETATM    3  C4  UNL     1      24.279   1.576  52.115  1.00  0.00     0.075 A 
HETATM    4  N1  UNL     1      23.047   2.083  51.957  1.00  0.00    -0.241 NA
HETATM    5  C5  UNL     1      22.860   2.999  51.003  1.00  0.00     0.236 A 
HETATM    6  N2  UNL     1      23.893   3.375  50.242  1.00  0.00    -0.224 NA
HETATM    7  C6  UNL     1      25.144   2.933  50.320  1.00  0.00     0.142 A 
HETATM    8  C16 UNL     1      25.329   1.993  51.304  1.00  0.00     0.042 A 
HETATM    9  C17 UNL     1      26.508   1.383  51.592  1.00  0.00     0.057 A 
HETATM   10  C18 UNL     1      26.700   0.434  52.582  1.00  0.00     0.102 A 
ENDROOT
BRANCH   7  11
HETATM   11  N3  UNL     1      26.248   3.319  49.528  1.00  0.00    -0.340 N 
HETATM   12  H6  UNL     1      26.865   2.638  49.087  1.00  0.00     0.167 HD
BRANCH  11  13
HETATM   13  C7  UNL     1      26.664   4.639  49.224  1.00  0.00     0.033 A 
HETATM   14  C8  UNL     1      27.837   4.938  48.590  1.00  0.00     0.032 A 
HETATM   15  C9  UNL     1      28.272   6.205  48.274  1.00  0.00     0.031 A 
HETATM   16  C10 UNL     1      27.493   7.292  48.605  1.00  0.00     0.032 A 
HETATM   17  C14 UNL     1      26.299   7.054  49.246  1.00  0.00     0.031 A 
HETATM   18  C15 UNL     1      25.927   5.761  49.531  1.00  0.00     0.032 A 
BRANCH  16  19
HETATM   19  N4  UNL     1      27.878   8.617  48.311  1.00  0.00    -0.357 N 
HETATM   20  C11 UNL     1      27.502   9.841  48.996  1.00  0.00     0.151 C 
HETATM   21  C12 UNL     1      28.771  10.648  48.876  1.00  0.00     0.189 C 
HETATM   22  O2  UNL     1      29.451  10.167  47.769  1.00  0.00    -0.370 OA
HETATM   23  C13 UNL     1      28.731   9.095  47.273  1.00  0.00     0.293 C 
ENDBRANCH  16  19
ENDBRANCH  11  13
ENDBRANCH   7  11
BRANCH  10  24
HETATM   24  O3  UNL     1      27.929  -0.161  52.836  1.00  0.00    -0.353 OA
HETATM   25  C19 UNL     1      28.851   0.526  53.663  1.00  0.00     0.210 C 
ENDBRANCH  10  24
BRANCH   1  26
HETATM   26  O1  UNL     1      25.800  -0.890  54.350  1.00  0.00    -0.353 OA
HETATM   27  C1  UNL     1      25.612  -0.624  55.710  1.00  0.00     0.210 C 
ENDBRANCH   1  26
TORSDOF 5
ENDMDL
MODEL 9
REMARK VINA RESULT:      -7.2      6.236      8.780
REMARK  5 active torsions:
REMARK  status: ('A' for Active; 'I' for Inactive)
REMARK    1  A    between atoms: O1_2  and  C2_3 
REMARK    2  A    between atoms: C6_9  and  N3_10 
REMARK    3  A    between atoms: N3_10  and  C7_11 
REMARK    4  A    between atoms: C10_14  and  N4_15 
REMARK    5  A    between atoms: C18_24  and  O3_25 
ROOT
HETATM    1  C2  UNL     1      26.882   0.910  53.991  1.00  0.00     0.103 A 
HETATM    2  C3  UNL     1      26.961   1.825  52.983  1.00  0.00     0.072 A 
HETATM    3  C4  UNL     1      25.900   2.017  52.138  1.00  0.00     0.075 A 
HETATM    4  N1  UNL     1      26.087   2.942  51.184  1.00  0.00    -0.241 NA
HETATM    5  C5  UNL     1      25.088   3.174  50.328  1.00  0.00     0.236 A 
HETATM    6  N2  UNL     1      23.947   2.487  50.448  1.00  0.00    -0.224 NA
HETATM    7  C6  UNL     1      23.667   1.556  51.354  1.00  0.00     0.142 A 
HETATM    8  C16 UNL     1      24.698   1.322  52.230  1.00  0.00     0.042 A 
HETATM    9  C17 UNL     1      24.672   0.424  53.248  1.00  0.00     0.057 A 
HETATM   10  C18 UNL     1      25.709   0.185  54.135  1.00  0.00     0.102 A 
ENDROOT
BRANCH   7  11
HETATM   11  N3  UNL     1      22.470   0.821  51.496  1.00  0.00    -0.340 N 
HETATM   12  H6  UNL     1      22.464  -0.193  51.593  1.00  0.00     0.167 HD
BRANCH  11  13
HETATM   13  C7  UNL     1      21.149   1.333  51.528  1.00  0.00     0.033 A 
HETATM   14  C8  UNL     1      20.836   2.596  51.944  1.00  0.00     0.032 A 
HETATM   15  C9  UNL     1      19.568   3.132  51.984  1.00  0.00     0.031 A 
HETATM   16  C10 UNL     1      18.496   2.366  51.581  1.00  0.00     0.032 A 
HETATM   17  C14 UNL     1      18.749   1.084  51.150  1.00  0.00     0.031 A 
HETATM   18  C15 UNL     1      20.041   0.614  51.137  1.00  0.00     0.032 A 
BRANCH  16  19
HETATM   19  N4  UNL     1      17.171   2.851  51.595  1.00  0.00    -0.357 N 
HETATM   20  C11 UNL     1      15.931   2.095  51.576  1.00  0.00     0.151 C 
HETATM   21  C12 UNL     1      15.052   2.949  52.455  1.00  0.00     0.189 C 
HETATM   22  O2  UNL     1      15.560   4.237  52.404  1.00  0.00    -0.370 OA
HETATM   23  C13 UNL     1      16.709   4.199  51.634  1.00  0.00     0.293 C 
ENDBRANCH  16  19
ENDBRANCH  11  13
ENDBRANCH   7  11
BRANCH  10  24
HETATM   24  O3  UNL     1      25.629  -0.748  55.162  1.00  0.00    -0.353 OA
HETATM   25  C19 UNL     1      24.356  -1.270  55.498  1.00  0.00     0.210 C 
ENDBRANCH  10  24
BRANCH   1  26
HETATM   26  O1  UNL     1      27.922   0.673  54.876  1.00  0.00    -0.353 OA
HETATM   27  C1  UNL     1      29.212   0.322  54.465  1.00  0.00     0.210 C 
ENDBRANCH   1  26
TORSDOF 5
ENDMDL
