MODEL 1
REMARK VINA RESULT:      -8.0      0.000      0.000
REMARK  5 active torsions:
REMARK  status: ('A' for Active; 'I' for Inactive)
REMARK    1  A    between atoms: C2_2  and  C3_3 
REMARK    2  A    between atoms: C3_3  and  C4_4 
REMARK    3  A    between atoms: C4_4  and  C5_5 
REMARK    4  A    between atoms: C18_22  and  O2_23 
REMARK    5  A    between atoms: O2_23  and  C19_24 
ROOT
HETATM    1  C5  UNL     1      21.852   1.428  49.926  1.00  0.00     0.025 C 
HETATM    2  C6  UNL     1      22.848   1.820  48.807  1.00  0.00     0.176 C 
HETATM    3  N1  UNL     1      23.353   2.924  49.632  1.00  0.00    -0.334 N 
HETATM    4  C7  UNL     1      23.726   2.350  50.911  1.00  0.00     0.049 C 
HETATM    5  C8  UNL     1      24.802   2.915  51.865  1.00  0.00     0.094 A 
HETATM    6  C9  UNL     1      26.112   2.791  51.247  1.00  0.00     0.071 C 
HETATM    7  C10 UNL     1      25.883   1.369  51.954  1.00  0.00    -0.052 A 
HETATM    8  C11 UNL     1      26.217   0.130  51.973  1.00  0.00     0.002 A 
HETATM    9  C12 UNL     1      25.330  -0.681  52.590  1.00  0.00    -0.012 A 
HETATM   10  C13 UNL     1      24.153  -0.651  53.220  1.00  0.00     0.028 A 
HETATM   11  C14 UNL     1      24.140   0.868  53.005  1.00  0.00     0.064 A 
HETATM   12  C15 UNL     1      24.712   2.124  52.500  1.00  0.00     0.080 A 
HETATM   13  N2  UNL     1      23.749   3.166  52.686  1.00  0.00    -0.218 NA
HETATM   14  C16 UNL     1      23.328   4.408  52.520  1.00  0.00     0.219 C 
HETATM   15  O1  UNL     1      23.449   4.439  53.804  1.00  0.00    -0.278 OA
HETATM   16  C17 UNL     1      22.895   5.436  51.593  1.00  0.00     0.215 C 
HETATM   17  N3  UNL     1      22.646   5.192  50.250  1.00  0.00    -0.373 N 
HETATM   18  C18 UNL     1      23.423   4.386  49.384  1.00  0.00     0.327 C 
HETATM   19  C21 UNL     1      22.883  -0.167  53.514  1.00  0.00     0.065 A 
HETATM   20  C22 UNL     1      22.227   0.261  52.086  1.00  0.00     0.019 C 
HETATM   21  C23 UNL     1      22.651   1.241  51.186  1.00  0.00     0.004 C 
HETATM   22  C24 UNL     1      22.011  -1.478  53.718  1.00  0.00     0.305 C 
HETATM   23  N4  UNL     1      20.768  -0.965  54.228  1.00  0.00     0.103 N 
HETATM   24  C25 UNL     1      21.022   0.324  54.783  1.00  0.00     0.388 C 
HETATM   25  N5  UNL     1      22.405   0.578  54.537  1.00  0.00    -0.385 N 
HETATM   26  H14 UNL     1      22.206   6.007  49.785  1.00  0.00     0.158 HD
HETATM   27  H24 UNL     1      20.007  -0.899  53.482  1.00  0.00     0.318 HD
HETATM   28  H27 UNL     1      23.001   0.700  55.388  1.00  0.00     0.156 HD
ENDROOT
BRANCH   1  29
HETATM   29  C4  UNL     1      20.584   1.342  49.662  1.00  0.00    -0.068 C 
BRANCH  29  30
HETATM   30  C3  UNL     1      19.305   1.209  49.668  1.00  0.00    -0.096 C 
BRANCH  30  31
HETATM   31  C2  UNL     1      18.057   0.872  49.959  1.00  0.00     0.076 C 
HETATM   32  C1  UNL     1      17.810  -0.091  51.060  1.00  0.00     0.025 C 
ENDBRANCH  30  31
ENDBRANCH  29  30
ENDBRANCH   1  29
BRANCH  18  33
HETATM   33  O2  UNL     1      24.748   4.735  49.484  1.00  0.00    -0.350 OA
BRANCH  33  34
HETATM   34  C19 UNL     1      25.167   5.813  48.769  1.00  0.00     0.167 C 
HETATM   35  C20 UNL     1      26.656   5.972  48.679  1.00  0.00     0.033 C 
ENDBRANCH  33  34
ENDBRANCH  18  33
TORSDOF 5
ENDMDL
MODEL 2
REMARK VINA RESULT:      -7.7      2.442      6.635
REMARK  5 active torsions:
REMARK  status: ('A' for Active; 'I' for Inactive)
REMARK    1  A    between atoms: C2_2  and  C3_3 
REMARK    2  A    between atoms: C3_3  and  C4_4 
REMARK    3  A    between atoms: C4_4  and  C5_5 
REMARK    4  A    between atoms: C18_22  and  O2_23 
REMARK    5  A    between atoms: O2_23  and  C19_24 
ROOT
HETATM    1  C5  UNL     1      25.749   3.888  49.293  1.00  0.00     0.025 C 
HETATM    2  C6  UNL     1      26.137   2.420  49.595  1.00  0.00     0.176 C 
HETATM    3  N1  UNL     1      25.275   2.428  50.783  1.00  0.00    -0.334 N 
HETATM    4  C7  UNL     1      23.964   2.865  50.342  1.00  0.00     0.049 C 
HETATM    5  C8  UNL     1      22.624   2.496  51.016  1.00  0.00     0.094 A 
HETATM    6  C9  UNL     1      22.377   1.072  50.860  1.00  0.00     0.071 C 
HETATM    7  C10 UNL     1      21.800   1.714  49.508  1.00  0.00    -0.052 A 
HETATM    8  C11 UNL     1      21.484   1.496  48.283  1.00  0.00     0.002 A 
HETATM    9  C12 UNL     1      21.407   2.607  47.517  1.00  0.00    -0.012 A 
HETATM   10  C13 UNL     1      21.559   3.932  47.585  1.00  0.00     0.028 A 
HETATM   11  C14 UNL     1      21.880   3.764  49.075  1.00  0.00     0.064 A 
HETATM   12  C15 UNL     1      22.083   2.959  50.289  1.00  0.00     0.080 A 
HETATM   13  N2  UNL     1      22.570   3.818  51.324  1.00  0.00    -0.218 NA
HETATM   14  C16 UNL     1      23.056   4.024  52.535  1.00  0.00     0.219 C 
HETATM   15  O1  UNL     1      21.938   4.649  52.692  1.00  0.00    -0.278 OA
HETATM   16  C17 UNL     1      24.153   3.818  53.462  1.00  0.00     0.215 C 
HETATM   17  N3  UNL     1      25.372   3.274  53.085  1.00  0.00    -0.373 N 
HETATM   18  C18 UNL     1      25.570   2.175  52.215  1.00  0.00     0.327 C 
HETATM   19  C21 UNL     1      22.081   5.126  48.069  1.00  0.00     0.065 A 
HETATM   20  C22 UNL     1      23.662   4.844  48.345  1.00  0.00     0.019 C 
HETATM   21  C23 UNL     1      24.247   3.948  49.243  1.00  0.00     0.004 C 
HETATM   22  C24 UNL     1      22.290   6.010  46.766  1.00  0.00     0.305 C 
HETATM   23  N4  UNL     1      22.622   7.303  47.301  1.00  0.00     0.103 N 
HETATM   24  C25 UNL     1      22.139   7.358  48.642  1.00  0.00     0.388 C 
HETATM   25  N5  UNL     1      21.581   6.070  48.899  1.00  0.00    -0.385 N 
HETATM   26  H14 UNL     1      26.076   3.343  53.844  1.00  0.00     0.158 HD
HETATM   27  H24 UNL     1      23.670   7.506  47.280  1.00  0.00     0.318 HD
HETATM   28  H27 UNL     1      20.557   6.055  49.113  1.00  0.00     0.156 HD
ENDROOT
BRANCH   1  29
HETATM   29  C4  UNL     1      26.675   4.787  49.157  1.00  0.00    -0.068 C 
BRANCH  29  30
HETATM   30  C3  UNL     1      27.543   5.646  48.756  1.00  0.00    -0.096 C 
BRANCH  30  31
HETATM   31  C2  UNL     1      28.503   6.282  48.098  1.00  0.00     0.076 C 
HETATM   32  C1  UNL     1      29.855   5.678  48.039  1.00  0.00     0.025 C 
ENDBRANCH  30  31
ENDBRANCH  29  30
ENDBRANCH   1  29
BRANCH  18  33
HETATM   33  O2  UNL     1      24.769   1.126  52.599  1.00  0.00    -0.350 OA
BRANCH  33  34
HETATM   34  C19 UNL     1      25.379   0.034  53.132  1.00  0.00     0.167 C 
HETATM   35  C20 UNL     1      26.551  -0.481  52.350  1.00  0.00     0.033 C 
ENDBRANCH  33  34
ENDBRANCH  18  33
TORSDOF 5
ENDMDL
MODEL 3
REMARK VINA RESULT:      -7.4      7.034     11.806
REMARK  5 active torsions:
REMARK  status: ('A' for Active; 'I' for Inactive)
REMARK    1  A    between atoms: C2_2  and  C3_3 
REMARK    2  A    between atoms: C3_3  and  C4_4 
REMARK    3  A    between atoms: C4_4  and  C5_5 
REMARK    4  A    between atoms: C18_22  and  O2_23 
REMARK    5  A    between atoms: O2_23  and  C19_24 
ROOT
HETATM    1  C5  UNL     1      30.005   6.264  48.118  1.00  0.00     0.025 C 
HETATM    2  C6  UNL     1      31.216   6.054  49.060  1.00  0.00     0.176 C 
HETATM    3  N1  UNL     1      32.100   5.890  47.902  1.00  0.00    -0.334 N 
HETATM    4  C7  UNL     1      31.899   7.051  47.057  1.00  0.00     0.049 C 
HETATM    5  C8  UNL     1      32.944   7.643  46.086  1.00  0.00     0.094 A 
HETATM    6  C9  UNL     1      34.058   8.189  46.844  1.00  0.00     0.071 C 
HETATM    7  C10 UNL     1      32.990   9.386  46.811  1.00  0.00    -0.052 A 
HETATM    8  C11 UNL     1      32.595  10.468  47.376  1.00  0.00     0.002 A 
HETATM    9  C12 UNL     1      31.326  10.826  47.077  1.00  0.00    -0.012 A 
HETATM   10  C13 UNL     1      30.271  10.426  46.364  1.00  0.00     0.028 A 
HETATM   11  C14 UNL     1      31.113   9.236  45.889  1.00  0.00     0.064 A 
HETATM   12  C15 UNL     1      32.344   8.432  45.855  1.00  0.00     0.080 A 
HETATM   13  N2  UNL     1      32.081   7.233  45.120  1.00  0.00    -0.218 NA
HETATM   14  C16 UNL     1      32.429   6.039  44.675  1.00  0.00     0.219 C 
HETATM   15  O1  UNL     1      32.345   6.630  43.531  1.00  0.00    -0.278 OA
HETATM   16  C17 UNL     1      32.771   4.667  44.998  1.00  0.00     0.215 C 
HETATM   17  N3  UNL     1      32.643   4.134  46.273  1.00  0.00    -0.373 N 
HETATM   18  C18 UNL     1      32.986   4.772  47.489  1.00  0.00     0.327 C 
HETATM   19  C21 UNL     1      29.436   9.505  45.741  1.00  0.00     0.065 A 
HETATM   20  C22 UNL     1      29.347   8.229  46.749  1.00  0.00     0.019 C 
HETATM   21  C23 UNL     1      30.368   7.375  47.172  1.00  0.00     0.004 C 
HETATM   22  C24 UNL     1      27.975  10.055  46.031  1.00  0.00     0.305 C 
HETATM   23  N4  UNL     1      27.143   9.221  45.206  1.00  0.00     0.103 N 
HETATM   24  C25 UNL     1      27.963   8.670  44.176  1.00  0.00     0.388 C 
HETATM   25  N5  UNL     1      29.283   9.143  44.447  1.00  0.00    -0.385 N 
HETATM   26  H14 UNL     1      32.792   3.108  46.279  1.00  0.00     0.158 HD
HETATM   27  H24 UNL     1      26.667   8.437  45.752  1.00  0.00     0.318 HD
HETATM   28  H27 UNL     1      29.708   9.746  43.705  1.00  0.00     0.156 HD
ENDROOT
BRANCH   1  29
HETATM   29  C4  UNL     1      28.952   5.517  48.242  1.00  0.00    -0.068 C 
BRANCH  29  30
HETATM   30  C3  UNL     1      27.869   4.919  48.594  1.00  0.00    -0.096 C 
BRANCH  30  31
HETATM   31  C2  UNL     1      26.696   4.610  49.127  1.00  0.00     0.076 C 
HETATM   32  C1  UNL     1      26.471   3.228  49.617  1.00  0.00     0.025 C 
ENDBRANCH  30  31
ENDBRANCH  29  30
ENDBRANCH   1  29
BRANCH  18  33
HETATM   33  O2  UNL     1      34.256   5.291  47.403  1.00  0.00    -0.350 OA
BRANCH  33  34
HETATM   34  C19 UNL     1      35.175   4.853  48.303  1.00  0.00     0.167 C 
HETATM   35  C20 UNL     1      35.711   5.907  49.225  1.00  0.00     0.033 C 
ENDBRANCH  33  34
ENDBRANCH  18  33
TORSDOF 5
ENDMDL
MODEL 4
REMARK VINA RESULT:      -7.3      2.218      4.009
REMARK  5 active torsions:
REMARK  status: ('A' for Active; 'I' for Inactive)
REMARK    1  A    between atoms: C2_2  and  C3_3 
REMARK    2  A    between atoms: C3_3  and  C4_4 
REMARK    3  A    between atoms: C4_4  and  C5_5 
REMARK    4  A    between atoms: C18_22  and  O2_23 
REMARK    5  A    between atoms: O2_23  and  C19_24 
ROOT
HETATM    1  C5  UNL     1      22.337   2.874  48.547  1.00  0.00     0.025 C 
HETATM    2  C6  UNL     1      22.386   3.521  47.141  1.00  0.00     0.176 C 
HETATM    3  N1  UNL     1      22.317   4.857  47.744  1.00  0.00    -0.334 N 
HETATM    4  C7  UNL     1      23.382   4.926  48.726  1.00  0.00     0.049 C 
HETATM    5  C8  UNL     1      24.094   6.218  49.184  1.00  0.00     0.094 A 
HETATM    6  C9  UNL     1      24.861   6.769  48.078  1.00  0.00     0.071 C 
HETATM    7  C10 UNL     1      25.854   5.696  48.740  1.00  0.00    -0.052 A 
HETATM    8  C11 UNL     1      26.880   4.947  48.555  1.00  0.00     0.002 A 
HETATM    9  C12 UNL     1      26.999   3.930  49.437  1.00  0.00    -0.012 A 
HETATM   10  C13 UNL     1      26.388   3.391  50.495  1.00  0.00     0.028 A 
HETATM   11  C14 UNL     1      25.337   4.503  50.385  1.00  0.00     0.064 A 
HETATM   12  C15 UNL     1      24.756   5.698  49.758  1.00  0.00     0.080 A 
HETATM   13  N2  UNL     1      23.494   5.965  50.377  1.00  0.00    -0.218 NA
HETATM   14  C16 UNL     1      22.355   6.631  50.464  1.00  0.00     0.219 C 
HETATM   15  O1  UNL     1      22.864   7.015  51.585  1.00  0.00    -0.278 OA
HETATM   16  C17 UNL     1      21.081   6.955  49.852  1.00  0.00     0.215 C 
HETATM   17  N3  UNL     1      20.599   6.317  48.718  1.00  0.00    -0.373 N 
HETATM   18  C18 UNL     1      21.348   5.968  47.568  1.00  0.00     0.327 C 
HETATM   19  C21 UNL     1      25.308   3.069  51.308  1.00  0.00     0.065 A 
HETATM   20  C22 UNL     1      24.088   2.685  50.299  1.00  0.00     0.019 C 
HETATM   21  C23 UNL     1      23.444   3.491  49.357  1.00  0.00     0.004 C 
HETATM   22  C24 UNL     1      25.613   1.584  51.781  1.00  0.00     0.305 C 
HETATM   23  N4  UNL     1      24.607   1.349  52.782  1.00  0.00     0.103 N 
HETATM   24  C25 UNL     1      24.153   2.617  53.252  1.00  0.00     0.388 C 
HETATM   25  N5  UNL     1      24.859   3.585  52.475  1.00  0.00    -0.385 N 
HETATM   26  H14 UNL     1      19.616   6.576  48.518  1.00  0.00     0.158 HD
HETATM   27  H24 UNL     1      23.782   0.777  52.417  1.00  0.00     0.318 HD
HETATM   28  H27 UNL     1      25.487   4.226  53.012  1.00  0.00     0.156 HD
ENDROOT
BRANCH   1  29
HETATM   29  C4  UNL     1      21.428   1.990  48.821  1.00  0.00    -0.068 C 
BRANCH  29  30
HETATM   30  C3  UNL     1      20.426   1.310  49.253  1.00  0.00    -0.096 C 
BRANCH  30  31
HETATM   31  C2  UNL     1      19.481   0.764  50.006  1.00  0.00     0.076 C 
HETATM   32  C1  UNL     1      19.813   0.351  51.390  1.00  0.00     0.025 C 
ENDBRANCH  30  31
ENDBRANCH  29  30
ENDBRANCH   1  29
BRANCH  18  33
HETATM   33  O2  UNL     1      22.072   7.052  47.134  1.00  0.00    -0.350 OA
BRANCH  33  34
HETATM   34  C19 UNL     1      21.872   7.470  45.857  1.00  0.00     0.167 C 
HETATM   35  C20 UNL     1      22.853   6.939  44.855  1.00  0.00     0.033 C 
ENDBRANCH  33  34
ENDBRANCH  18  33
TORSDOF 5
ENDMDL
MODEL 5
REMARK VINA RESULT:      -7.3      2.631      5.792
REMARK  5 active torsions:
REMARK  status: ('A' for Active; 'I' for Inactive)
REMARK    1  A    between atoms: C2_2  and  C3_3 
REMARK    2  A    between atoms: C3_3  and  C4_4 
REMARK    3  A    between atoms: C4_4  and  C5_5 
REMARK    4  A    between atoms: C18_22  and  O2_23 
REMARK    5  A    between atoms: O2_23  and  C19_24 
ROOT
HETATM    1  C5  UNL     1      20.890   4.668  51.299  1.00  0.00     0.025 C 
HETATM    2  C6  UNL     1      19.353   4.511  51.392  1.00  0.00     0.176 C 
HETATM    3  N1  UNL     1      19.375   3.552  50.282  1.00  0.00    -0.334 N 
HETATM    4  C7  UNL     1      20.336   2.526  50.639  1.00  0.00     0.049 C 
HETATM    5  C8  UNL     1      20.308   1.063  50.144  1.00  0.00     0.094 A 
HETATM    6  C9  UNL     1      19.142   0.387  50.690  1.00  0.00     0.071 C 
HETATM    7  C10 UNL     1      20.252   0.233  51.839  1.00  0.00    -0.052 A 
HETATM    8  C11 UNL     1      20.461   0.026  53.088  1.00  0.00     0.002 A 
HETATM    9  C12 UNL     1      21.678   0.418  53.526  1.00  0.00    -0.012 A 
HETATM   10  C13 UNL     1      22.808   0.984  53.095  1.00  0.00     0.028 A 
HETATM   11  C14 UNL     1      22.184   1.035  51.695  1.00  0.00     0.064 A 
HETATM   12  C15 UNL     1      21.092   0.803  50.739  1.00  0.00     0.080 A 
HETATM   13  N2  UNL     1      21.449   1.404  49.491  1.00  0.00    -0.218 NA
HETATM   14  C16 UNL     1      21.173   1.768  48.251  1.00  0.00     0.219 C 
HETATM   15  O1  UNL     1      22.092   0.905  47.974  1.00  0.00    -0.278 OA
HETATM   16  C17 UNL     1      20.379   2.606  47.372  1.00  0.00     0.215 C 
HETATM   17  N3  UNL     1      19.551   3.619  47.834  1.00  0.00    -0.373 N 
HETATM   18  C18 UNL     1      18.697   3.558  48.962  1.00  0.00     0.327 C 
HETATM   19  C21 UNL     1      23.590   1.800  52.285  1.00  0.00     0.065 A 
HETATM   20  C22 UNL     1      22.714   3.151  52.033  1.00  0.00     0.019 C 
HETATM   21  C23 UNL     1      21.482   3.289  51.391  1.00  0.00     0.004 C 
HETATM   22  C24 UNL     1      24.631   2.454  53.289  1.00  0.00     0.305 C 
HETATM   23  N4  UNL     1      25.557   3.118  52.411  1.00  0.00     0.103 N 
HETATM   24  C25 UNL     1      25.452   2.509  51.125  1.00  0.00     0.388 C 
HETATM   25  N5  UNL     1      24.418   1.531  51.250  1.00  0.00    -0.385 N 
HETATM   26  H14 UNL     1      19.184   4.201  47.059  1.00  0.00     0.158 HD
HETATM   27  H24 UNL     1      25.379   4.168  52.334  1.00  0.00     0.318 HD
HETATM   28  H27 UNL     1      24.712   0.540  51.089  1.00  0.00     0.156 HD
ENDROOT
BRANCH   1  29
HETATM   29  C4  UNL     1      21.413   5.846  51.150  1.00  0.00    -0.068 C 
BRANCH  29  30
HETATM   30  C3  UNL     1      21.953   6.939  50.741  1.00  0.00    -0.096 C 
BRANCH  30  31
HETATM   31  C2  UNL     1      22.810   7.890  50.398  1.00  0.00     0.076 C 
HETATM   32  C1  UNL     1      24.254   7.690  50.670  1.00  0.00     0.025 C 
ENDBRANCH  30  31
ENDBRANCH  29  30
ENDBRANCH   1  29
BRANCH  18  33
HETATM   33  O2  UNL     1      17.934   2.416  48.909  1.00  0.00    -0.350 OA
BRANCH  33  34
HETATM   34  C19 UNL     1      16.584   2.561  48.947  1.00  0.00     0.167 C 
HETATM   35  C20 UNL     1      15.966   2.384  50.302  1.00  0.00     0.033 C 
ENDBRANCH  33  34
ENDBRANCH  18  33
TORSDOF 5
ENDMDL
MODEL 6
REMARK VINA RESULT:      -7.1      2.456      4.221
REMARK  5 active torsions:
REMARK  status: ('A' for Active; 'I' for Inactive)
REMARK    1  A    between atoms: C2_2  and  C3_3 
REMARK    2  A    between atoms: C3_3  and  C4_4 
REMARK    3  A    between atoms: C4_4  and  C5_5 
REMARK    4  A    between atoms: C18_22  and  O2_23 
REMARK    5  A    between atoms: O2_23  and  C19_24 
ROOT
HETATM    1  C5  UNL     1      22.244   3.927  48.301  1.00  0.00     0.025 C 
HETATM    2  C6  UNL     1      22.528   4.580  46.926  1.00  0.00     0.176 C 
HETATM    3  N1  UNL     1      22.765   5.872  47.579  1.00  0.00    -0.334 N 
HETATM    4  C7  UNL     1      23.761   5.640  48.608  1.00  0.00     0.049 C 
HETATM    5  C8  UNL     1      24.751   6.696  49.149  1.00  0.00     0.094 A 
HETATM    6  C9  UNL     1      25.688   7.065  48.101  1.00  0.00     0.071 C 
HETATM    7  C10 UNL     1      26.343   5.757  48.761  1.00  0.00    -0.052 A 
HETATM    8  C11 UNL     1      27.155   4.779  48.590  1.00  0.00     0.002 A 
HETATM    9  C12 UNL     1      26.969   3.740  49.434  1.00  0.00    -0.012 A 
HETATM   10  C13 UNL     1      26.187   3.343  50.441  1.00  0.00     0.028 A 
HETATM   11  C14 UNL     1      25.457   4.688  50.331  1.00  0.00     0.064 A 
HETATM   12  C15 UNL     1      25.229   6.009  49.729  1.00  0.00     0.080 A 
HETATM   13  N2  UNL     1      24.044   6.569  50.303  1.00  0.00    -0.218 NA
HETATM   14  C16 UNL     1      23.108   7.499  50.368  1.00  0.00     0.219 C 
HETATM   15  O1  UNL     1      23.638   7.710  51.525  1.00  0.00    -0.278 OA
HETATM   16  C17 UNL     1      21.990   8.154  49.715  1.00  0.00     0.215 C 
HETATM   17  N3  UNL     1      21.423   7.691  48.536  1.00  0.00    -0.373 N 
HETATM   18  C18 UNL     1      22.118   7.197  47.407  1.00  0.00     0.327 C 
HETATM   19  C21 UNL     1      25.019   3.283  51.193  1.00  0.00     0.065 A 
HETATM   20  C22 UNL     1      23.796   3.250  50.117  1.00  0.00     0.019 C 
HETATM   21  C23 UNL     1      23.426   4.219  49.182  1.00  0.00     0.004 C 
HETATM   22  C24 UNL     1      24.915   1.756  51.618  1.00  0.00     0.305 C 
HETATM   23  N4  UNL     1      23.832   1.755  52.564  1.00  0.00     0.103 N 
HETATM   24  C25 UNL     1      23.688   3.083  53.065  1.00  0.00     0.388 C 
HETATM   25  N5  UNL     1      24.654   3.862  52.359  1.00  0.00    -0.385 N 
HETATM   26  H14 UNL     1      20.548   8.197  48.304  1.00  0.00     0.158 HD
HETATM   27  H24 UNL     1      22.910   1.422  52.141  1.00  0.00     0.318 HD
HETATM   28  H27 UNL     1      25.395   4.307  52.950  1.00  0.00     0.156 HD
ENDROOT
BRANCH   1  29
HETATM   29  C4  UNL     1      21.128   3.295  48.499  1.00  0.00    -0.068 C 
BRANCH  29  30
HETATM   30  C3  UNL     1      20.096   2.679  48.957  1.00  0.00    -0.096 C 
BRANCH  30  31
HETATM   31  C2  UNL     1      19.280   1.859  49.604  1.00  0.00     0.076 C 
HETATM   32  C1  UNL     1      19.851   0.894  50.574  1.00  0.00     0.025 C 
ENDBRANCH  30  31
ENDBRANCH  29  30
ENDBRANCH   1  29
BRANCH  18  33
HETATM   33  O2  UNL     1      23.114   8.074  47.049  1.00  0.00    -0.350 OA
BRANCH  33  34
HETATM   34  C19 UNL     1      23.071   8.594  45.795  1.00  0.00     0.167 C 
HETATM   35  C20 UNL     1      23.621   7.704  44.721  1.00  0.00     0.033 C 
ENDBRANCH  33  34
ENDBRANCH  18  33
TORSDOF 5
ENDMDL
MODEL 7
REMARK VINA RESULT:      -7.1      2.655      7.481
REMARK  5 active torsions:
REMARK  status: ('A' for Active; 'I' for Inactive)
REMARK    1  A    between atoms: C2_2  and  C3_3 
REMARK    2  A    between atoms: C3_3  and  C4_4 
REMARK    3  A    between atoms: C4_4  and  C5_5 
REMARK    4  A    between atoms: C18_22  and  O2_23 
REMARK    5  A    between atoms: O2_23  and  C19_24 
ROOT
HETATM    1  C5  UNL     1      25.298   5.924  49.293  1.00  0.00     0.025 C 
HETATM    2  C6  UNL     1      25.951   4.520  49.312  1.00  0.00     0.176 C 
HETATM    3  N1  UNL     1      24.828   3.999  50.100  1.00  0.00    -0.334 N 
HETATM    4  C7  UNL     1      23.619   4.341  49.376  1.00  0.00     0.049 C 
HETATM    5  C8  UNL     1      22.287   3.562  49.440  1.00  0.00     0.094 A 
HETATM    6  C9  UNL     1      22.463   2.248  48.843  1.00  0.00     0.071 C 
HETATM    7  C10 UNL     1      22.129   3.198  47.594  1.00  0.00    -0.052 A 
HETATM    8  C11 UNL     1      22.222   3.347  46.322  1.00  0.00     0.002 A 
HETATM    9  C12 UNL     1      22.075   4.620  45.894  1.00  0.00    -0.012 A 
HETATM   10  C13 UNL     1      21.859   5.856  46.353  1.00  0.00     0.028 A 
HETATM   11  C14 UNL     1      21.797   5.261  47.766  1.00  0.00     0.064 A 
HETATM   12  C15 UNL     1      21.863   4.146  48.721  1.00  0.00     0.080 A 
HETATM   13  N2  UNL     1      21.816   4.683  50.047  1.00  0.00    -0.218 NA
HETATM   14  C16 UNL     1      21.887   4.554  51.360  1.00  0.00     0.219 C 
HETATM   15  O1  UNL     1      20.648   4.905  51.290  1.00  0.00    -0.278 OA
HETATM   16  C17 UNL     1      22.707   4.233  52.512  1.00  0.00     0.215 C 
HETATM   17  N3  UNL     1      24.080   4.046  52.438  1.00  0.00    -0.373 N 
HETATM   18  C18 UNL     1      24.779   3.340  51.429  1.00  0.00     0.327 C 
HETATM   19  C21 UNL     1      21.908   6.892  47.280  1.00  0.00     0.065 A 
HETATM   20  C22 UNL     1      23.373   6.791  47.986  1.00  0.00     0.019 C 
HETATM   21  C23 UNL     1      23.903   5.756  48.760  1.00  0.00     0.004 C 
HETATM   22  C24 UNL     1      22.229   8.176  46.402  1.00  0.00     0.305 C 
HETATM   23  N4  UNL     1      22.063   9.257  47.336  1.00  0.00     0.103 N 
HETATM   24  C25 UNL     1      21.238   8.791  48.402  1.00  0.00     0.388 C 
HETATM   25  N5  UNL     1      20.979   7.417  48.110  1.00  0.00    -0.385 N 
HETATM   26  H14 UNL     1      24.511   3.973  53.378  1.00  0.00     0.158 HD
HETATM   27  H24 UNL     1      22.989   9.620  47.722  1.00  0.00     0.318 HD
HETATM   28  H27 UNL     1      19.974   7.169  47.956  1.00  0.00     0.156 HD
ENDROOT
BRANCH   1  29
HETATM   29  C4  UNL     1      25.965   6.953  49.716  1.00  0.00    -0.068 C 
BRANCH  29  30
HETATM   30  C3  UNL     1      26.478   8.109  49.951  1.00  0.00    -0.096 C 
BRANCH  30  31
HETATM   31  C2  UNL     1      27.225   9.204  49.931  1.00  0.00     0.076 C 
HETATM   32  C1  UNL     1      28.594   9.129  49.369  1.00  0.00     0.025 C 
ENDBRANCH  30  31
ENDBRANCH  29  30
ENDBRANCH   1  29
BRANCH  18  33
HETATM   33  O2  UNL     1      24.200   2.109  51.233  1.00  0.00    -0.350 OA
BRANCH  33  34
HETATM   34  C19 UNL     1      24.643   1.079  52.000  1.00  0.00     0.167 C 
HETATM   35  C20 UNL     1      23.622   0.498  52.932  1.00  0.00     0.033 C 
ENDBRANCH  33  34
ENDBRANCH  18  33
TORSDOF 5
ENDMDL
MODEL 8
REMARK VINA RESULT:      -6.8      2.642      3.943
REMARK  5 active torsions:
REMARK  status: ('A' for Active; 'I' for Inactive)
REMARK    1  A    between atoms: C2_2  and  C3_3 
REMARK    2  A    between atoms: C3_3  and  C4_4 
REMARK    3  A    between atoms: C4_4  and  C5_5 
REMARK    4  A    between atoms: C18_22  and  O2_23 
REMARK    5  A    between atoms: O2_23  and  C19_24 
ROOT
HETATM    1  C5  UNL     1      21.275   2.797  48.127  1.00  0.00     0.025 C 
HETATM    2  C6  UNL     1      22.681   2.198  47.879  1.00  0.00     0.176 C 
HETATM    3  N1  UNL     1      23.222   2.985  48.993  1.00  0.00    -0.334 N 
HETATM    4  C7  UNL     1      22.391   2.698  50.146  1.00  0.00     0.049 C 
HETATM    5  C8  UNL     1      22.847   2.779  51.620  1.00  0.00     0.094 A 
HETATM    6  C9  UNL     1      23.840   1.749  51.879  1.00  0.00     0.071 C 
HETATM    7  C10 UNL     1      22.438   0.999  52.099  1.00  0.00    -0.052 A 
HETATM    8  C11 UNL     1      21.838  -0.135  52.130  1.00  0.00     0.002 A 
HETATM    9  C12 UNL     1      20.496  -0.063  51.982  1.00  0.00    -0.012 A 
HETATM   10  C13 UNL     1      19.514   0.823  51.798  1.00  0.00     0.028 A 
HETATM   11  C14 UNL     1      20.577   1.928  51.840  1.00  0.00     0.064 A 
HETATM   12  C15 UNL     1      21.960   2.411  51.958  1.00  0.00     0.080 A 
HETATM   13  N2  UNL     1      21.972   3.817  51.693  1.00  0.00    -0.218 NA
HETATM   14  C16 UNL     1      22.604   4.960  51.495  1.00  0.00     0.219 C 
HETATM   15  O1  UNL     1      22.008   5.282  52.593  1.00  0.00    -0.278 OA
HETATM   16  C17 UNL     1      23.500   5.730  50.653  1.00  0.00     0.215 C 
HETATM   17  N3  UNL     1      23.920   5.303  49.402  1.00  0.00    -0.373 N 
HETATM   18  C18 UNL     1      24.314   3.989  49.051  1.00  0.00     0.327 C 
HETATM   19  C21 UNL     1      18.943   2.011  51.357  1.00  0.00     0.065 A 
HETATM   20  C22 UNL     1      19.602   2.309  49.897  1.00  0.00     0.019 C 
HETATM   21  C23 UNL     1      20.938   2.552  49.572  1.00  0.00     0.004 C 
HETATM   22  C24 UNL     1      17.516   1.574  50.816  1.00  0.00     0.305 C 
HETATM   23  N4  UNL     1      16.863   2.832  50.567  1.00  0.00     0.103 N 
HETATM   24  C25 UNL     1      17.523   3.828  51.346  1.00  0.00     0.388 C 
HETATM   25  N5  UNL     1      18.597   3.150  52.000  1.00  0.00    -0.385 N 
HETATM   26  H14 UNL     1      24.432   6.047  48.892  1.00  0.00     0.158 HD
HETATM   27  H24 UNL     1      16.872   3.109  49.536  1.00  0.00     0.318 HD
HETATM   28  H27 UNL     1      18.557   3.142  53.045  1.00  0.00     0.156 HD
ENDROOT
BRANCH   1  29
HETATM   29  C4  UNL     1      20.644   3.390  47.161  1.00  0.00    -0.068 C 
BRANCH  29  30
HETATM   30  C3  UNL     1      20.263   4.082  46.146  1.00  0.00    -0.096 C 
BRANCH  30  31
HETATM   31  C2  UNL     1      19.964   4.500  44.924  1.00  0.00     0.076 C 
HETATM   32  C1  UNL     1      20.669   3.901  43.766  1.00  0.00     0.025 C 
ENDBRANCH  30  31
ENDBRANCH  29  30
ENDBRANCH   1  29
BRANCH  18  33
HETATM   33  O2  UNL     1      25.231   3.517  49.959  1.00  0.00    -0.350 OA
BRANCH  33  34
HETATM   34  C19 UNL     1      26.487   3.265  49.508  1.00  0.00     0.167 C 
HETATM   35  C20 UNL     1      27.217   4.459  48.968  1.00  0.00     0.033 C 
ENDBRANCH  33  34
ENDBRANCH  18  33
TORSDOF 5
ENDMDL
MODEL 9
REMARK VINA RESULT:      -6.8      3.389      5.543
REMARK  5 active torsions:
REMARK  status: ('A' for Active; 'I' for Inactive)
REMARK    1  A    between atoms: C2_2  and  C3_3 
REMARK    2  A    between atoms: C3_3  and  C4_4 
REMARK    3  A    between atoms: C4_4  and  C5_5 
REMARK    4  A    between atoms: C18_22  and  O2_23 
REMARK    5  A    between atoms: O2_23  and  C19_24 
ROOT
HETATM    1  C5  UNL     1      21.331   7.104  49.345  1.00  0.00     0.025 C 
HETATM    2  C6  UNL     1      22.689   7.264  48.617  1.00  0.00     0.176 C 
HETATM    3  N1  UNL     1      23.326   6.370  49.590  1.00  0.00    -0.334 N 
HETATM    4  C7  UNL     1      22.537   5.153  49.615  1.00  0.00     0.049 C 
HETATM    5  C8  UNL     1      23.068   3.750  49.985  1.00  0.00     0.094 A 
HETATM    6  C9  UNL     1      24.014   3.306  48.974  1.00  0.00     0.071 C 
HETATM    7  C10 UNL     1      22.585   2.877  48.382  1.00  0.00    -0.052 A 
HETATM    8  C11 UNL     1      21.925   2.576  47.323  1.00  0.00     0.002 A 
HETATM    9  C12 UNL     1      20.584   2.689  47.448  1.00  0.00    -0.012 A 
HETATM   10  C13 UNL     1      19.644   3.029  48.334  1.00  0.00     0.028 A 
HETATM   11  C14 UNL     1      20.768   3.268  49.350  1.00  0.00     0.064 A 
HETATM   12  C15 UNL     1      22.180   3.309  49.757  1.00  0.00     0.080 A 
HETATM   13  N2  UNL     1      22.257   3.877  51.068  1.00  0.00    -0.218 NA
HETATM   14  C16 UNL     1      22.941   4.344  52.098  1.00  0.00     0.219 C 
HETATM   15  O1  UNL     1      22.418   3.323  52.688  1.00  0.00    -0.278 OA
HETATM   16  C17 UNL     1      23.836   5.365  52.606  1.00  0.00     0.215 C 
HETATM   17  N3  UNL     1      24.170   6.506  51.891  1.00  0.00    -0.373 N 
HETATM   18  C18 UNL     1      24.473   6.573  50.510  1.00  0.00     0.327 C 
HETATM   19  C21 UNL     1      19.120   3.700  49.433  1.00  0.00     0.065 A 
HETATM   20  C22 UNL     1      19.722   5.212  49.362  1.00  0.00     0.019 C 
HETATM   21  C23 UNL     1      21.052   5.629  49.442  1.00  0.00     0.004 C 
HETATM   22  C24 UNL     1      17.646   4.081  48.982  1.00  0.00     0.305 C 
HETATM   23  N4  UNL     1      17.053   4.577  50.194  1.00  0.00     0.103 N 
HETATM   24  C25 UNL     1      17.804   4.060  51.291  1.00  0.00     0.388 C 
HETATM   25  N5  UNL     1      18.869   3.312  50.704  1.00  0.00    -0.385 N 
HETATM   26  H14 UNL     1      24.698   7.184  52.471  1.00  0.00     0.158 HD
HETATM   27  H24 UNL     1      17.027   5.643  50.240  1.00  0.00     0.318 HD
HETATM   28  H27 UNL     1      18.880   2.289  50.926  1.00  0.00     0.156 HD
ENDROOT
BRANCH   1  29
HETATM   29  C4  UNL     1      20.688   8.154  49.753  1.00  0.00    -0.068 C 
BRANCH  29  30
HETATM   30  C3  UNL     1      19.830   9.039  50.118  1.00  0.00    -0.096 C 
BRANCH  30  31
HETATM   31  C2  UNL     1      18.854   9.935  50.152  1.00  0.00     0.076 C 
HETATM   32  C1  UNL     1      18.085  10.208  48.914  1.00  0.00     0.025 C 
ENDBRANCH  30  31
ENDBRANCH  29  30
ENDBRANCH   1  29
BRANCH  18  33
HETATM   33  O2  UNL     1      25.406   5.616  50.188  1.00  0.00    -0.350 OA
BRANCH  33  34
HETATM   34  C19 UNL     1      26.338   5.938  49.253  1.00  0.00     0.167 C 
HETATM   35  C20 UNL     1      27.245   4.814  48.850  1.00  0.00     0.033 C 
ENDBRANCH  33  34
ENDBRANCH  18  33
TORSDOF 5
ENDMDL
