MODEL 1
REMARK VINA RESULT:      -8.7      0.000      0.000
REMARK  3 active torsions:
REMARK  status: ('A' for Active; 'I' for Inactive)
REMARK    1  A    between atoms: N2_6  and  C5_7 
REMARK    2  A    between atoms: C10_14  and  N4_15 
REMARK    3  A    between atoms: C13_18  and  O2_19 
ROOT
HETATM    1  C1  UNL     1      26.702   3.609  49.439  1.00  0.00     0.045 C 
HETATM    2  C2  UNL     1      25.979   3.078  50.656  1.00  0.00    -0.065 C 
HETATM    3  C3  UNL     1      24.869   3.443  51.277  1.00  0.00     0.087 C 
HETATM    4  N1  UNL     1      23.694   3.707  52.066  1.00  0.00    -0.383 N 
HETATM    5  C4  UNL     1      22.546   2.783  52.028  1.00  0.00     0.247 C 
HETATM    6  N2  UNL     1      22.932   1.573  52.729  1.00  0.00    -0.353 N 
HETATM    7  C9  UNL     1      24.153   1.672  53.500  1.00  0.00     0.203 C 
HETATM    8  N3  UNL     1      24.799   1.477  52.406  1.00  0.00    -0.259 NA
HETATM    9  C10 UNL     1      26.235   1.477  52.519  1.00  0.00     0.214 C 
HETATM   10  C16 UNL     1      26.773   1.908  51.151  1.00  0.00     0.084 C 
HETATM   11  H5  UNL     1      23.672   4.572  52.682  1.00  0.00     0.160 HD
ENDROOT
BRANCH   9  12
HETATM   12  N4  UNL     1      26.828   0.228  52.855  1.00  0.00    -0.346 N 
HETATM   13  C11 UNL     1      26.472  -0.884  51.987  1.00  0.00     0.129 C 
HETATM   14  C12 UNL     1      26.996  -2.128  52.719  1.00  0.00     0.052 C 
HETATM   15  C13 UNL     1      28.479  -2.063  52.879  1.00  0.00     0.126 C 
HETATM   16  C14 UNL     1      28.862  -0.933  53.788  1.00  0.00     0.109 C 
HETATM   17  C15 UNL     1      27.712   0.027  53.953  1.00  0.00     0.098 C 
HETATM   18  N5  UNL     1      27.428   0.719  55.027  1.00  0.00    -0.288 NA
HETATM   19  H25 UNL     1      28.082   0.566  55.829  1.00  0.00     0.188 HD
BRANCH  15  20
HETATM   20  O2  UNL     1      28.897  -3.271  53.434  1.00  0.00    -0.395 OA
HETATM   21  H22 UNL     1      28.127  -3.728  53.880  1.00  0.00     0.210 HD
ENDBRANCH  15  20
ENDBRANCH   9  12
BRANCH   6  22
HETATM   22  C5  UNL     1      22.130   0.391  52.688  1.00  0.00     0.112 C 
HETATM   23  C6  UNL     1      20.645   0.634  52.705  1.00  0.00     0.053 C 
HETATM   24  C7  UNL     1      20.144  -0.578  53.460  1.00  0.00     0.169 C 
HETATM   25  O1  UNL     1      21.174  -1.125  54.168  1.00  0.00    -0.389 OA
HETATM   26  C8  UNL     1      22.306  -0.344  53.997  1.00  0.00     0.193 C 
ENDBRANCH   6  22
TORSDOF 3
ENDMDL
MODEL 2
REMARK VINA RESULT:      -8.2      3.010      5.986
REMARK  3 active torsions:
REMARK  status: ('A' for Active; 'I' for Inactive)
REMARK    1  A    between atoms: N2_6  and  C5_7 
REMARK    2  A    between atoms: C10_14  and  N4_15 
REMARK    3  A    between atoms: C13_18  and  O2_19 
ROOT
HETATM    1  C1  UNL     1      21.226   0.910  49.318  1.00  0.00     0.045 C 
HETATM    2  C2  UNL     1      22.125   1.390  50.434  1.00  0.00    -0.065 C 
HETATM    3  C3  UNL     1      22.315   0.984  51.679  1.00  0.00     0.087 C 
HETATM    4  N1  UNL     1      22.639   0.673  53.047  1.00  0.00    -0.383 N 
HETATM    5  C4  UNL     1      23.946   0.083  53.389  1.00  0.00     0.247 C 
HETATM    6  N2  UNL     1      24.951   1.116  53.225  1.00  0.00    -0.353 N 
HETATM    7  C9  UNL     1      24.434   2.458  53.067  1.00  0.00     0.203 C 
HETATM    8  N3  UNL     1      24.235   2.181  51.827  1.00  0.00    -0.259 NA
HETATM    9  C10 UNL     1      23.652   3.235  51.036  1.00  0.00     0.214 C 
HETATM   10  C16 UNL     1      22.905   2.547  49.890  1.00  0.00     0.084 C 
HETATM   11  H5  UNL     1      21.926   0.884  53.805  1.00  0.00     0.160 HD
ENDROOT
BRANCH   9  12
HETATM   12  N4  UNL     1      24.572   4.163  50.473  1.00  0.00    -0.346 N 
HETATM   13  C11 UNL     1      25.601   3.584  49.624  1.00  0.00     0.129 C 
HETATM   14  C12 UNL     1      26.599   4.728  49.391  1.00  0.00     0.052 C 
HETATM   15  C13 UNL     1      25.941   5.867  48.685  1.00  0.00     0.126 C 
HETATM   16  C14 UNL     1      24.890   6.490  49.555  1.00  0.00     0.109 C 
HETATM   17  C15 UNL     1      24.532   5.570  50.693  1.00  0.00     0.098 C 
HETATM   18  N5  UNL     1      24.175   5.931  51.900  1.00  0.00    -0.288 NA
HETATM   19  H25 UNL     1      24.148   6.965  52.054  1.00  0.00     0.188 HD
BRANCH  15  20
HETATM   20  O2  UNL     1      26.926   6.810  48.396  1.00  0.00    -0.395 OA
HETATM   21  H22 UNL     1      26.783   7.634  48.945  1.00  0.00     0.210 HD
ENDBRANCH  15  20
ENDBRANCH   9  12
BRANCH   6  22
HETATM   22  C5  UNL     1      26.349   0.819  53.262  1.00  0.00     0.112 C 
HETATM   23  C6  UNL     1      26.776  -0.323  52.379  1.00  0.00     0.053 C 
HETATM   24  C7  UNL     1      27.919  -0.915  53.174  1.00  0.00     0.169 C 
HETATM   25  O1  UNL     1      27.821  -0.512  54.474  1.00  0.00    -0.389 OA
HETATM   26  C8  UNL     1      26.674   0.251  54.625  1.00  0.00     0.193 C 
ENDBRANCH   6  22
TORSDOF 3
ENDMDL
MODEL 3
REMARK VINA RESULT:      -7.9      2.582      4.486
REMARK  3 active torsions:
REMARK  status: ('A' for Active; 'I' for Inactive)
REMARK    1  A    between atoms: N2_6  and  C5_7 
REMARK    2  A    between atoms: C10_14  and  N4_15 
REMARK    3  A    between atoms: C13_18  and  O2_19 
ROOT
HETATM    1  C1  UNL     1      21.805  -0.994  54.597  1.00  0.00     0.045 C 
HETATM    2  C2  UNL     1      22.531  -0.190  53.542  1.00  0.00    -0.065 C 
HETATM    3  C3  UNL     1      22.119   0.506  52.495  1.00  0.00     0.087 C 
HETATM    4  N1  UNL     1      21.841   1.299  51.325  1.00  0.00    -0.383 N 
HETATM    5  C4  UNL     1      22.020   2.762  51.355  1.00  0.00     0.247 C 
HETATM    6  N2  UNL     1      23.445   3.029  51.387  1.00  0.00    -0.353 N 
HETATM    7  C9  UNL     1      24.292   1.892  51.100  1.00  0.00     0.203 C 
HETATM    8  N3  UNL     1      24.135   1.530  52.323  1.00  0.00    -0.259 NA
HETATM    9  C10 UNL     1      24.800   0.311  52.706  1.00  0.00     0.214 C 
HETATM   10  C16 UNL     1      23.990  -0.272  53.868  1.00  0.00     0.084 C 
HETATM   11  H5  UNL     1      21.515   0.811  50.440  1.00  0.00     0.160 HD
ENDROOT
BRANCH   9  12
HETATM   12  N4  UNL     1      26.150   0.453  53.132  1.00  0.00    -0.346 N 
HETATM   13  C11 UNL     1      26.935  -0.771  53.132  1.00  0.00     0.129 C 
HETATM   14  C12 UNL     1      28.223  -0.404  53.884  1.00  0.00     0.052 C 
HETATM   15  C13 UNL     1      28.965   0.676  53.168  1.00  0.00     0.126 C 
HETATM   16  C14 UNL     1      28.177   1.952  53.176  1.00  0.00     0.109 C 
HETATM   17  C15 UNL     1      26.739   1.684  53.539  1.00  0.00     0.098 C 
HETATM   18  N5  UNL     1      25.946   2.482  54.207  1.00  0.00    -0.288 NA
HETATM   19  H25 UNL     1      26.386   3.384  54.504  1.00  0.00     0.188 HD
BRANCH  15  20
HETATM   20  O2  UNL     1      30.174   0.869  53.833  1.00  0.00    -0.395 OA
HETATM   21  H22 UNL     1      30.005   1.091  54.793  1.00  0.00     0.210 HD
ENDBRANCH  15  20
ENDBRANCH   9  12
BRANCH   6  22
HETATM   22  C5  UNL     1      23.959   4.339  51.642  1.00  0.00     0.112 C 
HETATM   23  C6  UNL     1      22.940   5.444  51.567  1.00  0.00     0.053 C 
HETATM   24  C7  UNL     1      23.772   6.595  51.046  1.00  0.00     0.169 C 
HETATM   25  O1  UNL     1      24.903   6.106  50.462  1.00  0.00    -0.389 OA
HETATM   26  C8  UNL     1      24.866   4.720  50.494  1.00  0.00     0.193 C 
ENDBRANCH   6  22
TORSDOF 3
ENDMDL
MODEL 4
REMARK VINA RESULT:      -7.8      2.561      5.570
REMARK  3 active torsions:
REMARK  status: ('A' for Active; 'I' for Inactive)
REMARK    1  A    between atoms: N2_6  and  C5_7 
REMARK    2  A    between atoms: C10_14  and  N4_15 
REMARK    3  A    between atoms: C13_18  and  O2_19 
ROOT
HETATM    1  C1  UNL     1      27.153  -2.342  52.414  1.00  0.00     0.045 C 
HETATM    2  C2  UNL     1      26.536  -0.987  52.673  1.00  0.00    -0.065 C 
HETATM    3  C3  UNL     1      26.986   0.250  52.542  1.00  0.00     0.087 C 
HETATM    4  N1  UNL     1      27.317   1.649  52.458  1.00  0.00    -0.383 N 
HETATM    5  C4  UNL     1      26.697   2.503  51.428  1.00  0.00     0.247 C 
HETATM    6  N2  UNL     1      25.308   2.697  51.797  1.00  0.00    -0.353 N 
HETATM    7  C9  UNL     1      24.964   2.285  53.141  1.00  0.00     0.203 C 
HETATM    8  N3  UNL     1      24.882   1.082  52.698  1.00  0.00    -0.259 NA
HETATM    9  C10 UNL     1      24.545   0.077  53.673  1.00  0.00     0.214 C 
HETATM   10  C16 UNL     1      25.141  -1.236  53.159  1.00  0.00     0.084 C 
HETATM   11  H5  UNL     1      28.007   2.056  53.155  1.00  0.00     0.160 HD
ENDROOT
BRANCH   9  12
HETATM   12  N4  UNL     1      23.153  -0.124  53.896  1.00  0.00    -0.346 N 
HETATM   13  C11 UNL     1      22.271   0.796  53.195  1.00  0.00     0.129 C 
HETATM   14  C12 UNL     1      20.888   0.554  53.816  1.00  0.00     0.052 C 
HETATM   15  C13 UNL     1      20.443  -0.853  53.584  1.00  0.00     0.126 C 
HETATM   16  C14 UNL     1      21.331  -1.814  54.317  1.00  0.00     0.109 C 
HETATM   17  C15 UNL     1      22.611  -1.139  54.734  1.00  0.00     0.098 C 
HETATM   18  N5  UNL     1      23.304  -1.391  55.816  1.00  0.00    -0.288 NA
HETATM   19  H25 UNL     1      22.899  -2.137  56.428  1.00  0.00     0.188 HD
BRANCH  15  20
HETATM   20  O2  UNL     1      19.138  -0.966  54.060  1.00  0.00    -0.395 OA
HETATM   21  H22 UNL     1      18.844  -1.922  54.030  1.00  0.00     0.210 HD
ENDBRANCH  15  20
ENDBRANCH   9  12
BRANCH   6  22
HETATM   22  C5  UNL     1      24.368   3.293  50.900  1.00  0.00     0.112 C 
HETATM   23  C6  UNL     1      24.981   4.028  49.739  1.00  0.00     0.053 C 
HETATM   24  C7  UNL     1      23.981   5.141  49.517  1.00  0.00     0.169 C 
HETATM   25  O1  UNL     1      23.230   5.304  50.644  1.00  0.00    -0.389 OA
HETATM   26  C8  UNL     1      23.687   4.434  51.622  1.00  0.00     0.193 C 
ENDBRANCH   6  22
TORSDOF 3
ENDMDL
MODEL 5
REMARK VINA RESULT:      -7.1      3.570      5.994
REMARK  3 active torsions:
REMARK  status: ('A' for Active; 'I' for Inactive)
REMARK    1  A    between atoms: N2_6  and  C5_7 
REMARK    2  A    between atoms: C10_14  and  N4_15 
REMARK    3  A    between atoms: C13_18  and  O2_19 
ROOT
HETATM    1  C1  UNL     1      19.699   5.183  48.204  1.00  0.00     0.045 C 
HETATM    2  C2  UNL     1      20.494   4.821  49.437  1.00  0.00    -0.065 C 
HETATM    3  C3  UNL     1      20.190   4.171  50.550  1.00  0.00     0.087 C 
HETATM    4  N1  UNL     1      20.026   3.493  51.809  1.00  0.00    -0.383 N 
HETATM    5  C4  UNL     1      20.668   2.187  52.044  1.00  0.00     0.247 C 
HETATM    6  N2  UNL     1      22.094   2.416  52.178  1.00  0.00    -0.353 N 
HETATM    7  C9  UNL     1      22.482   3.801  52.337  1.00  0.00     0.203 C 
HETATM    8  N3  UNL     1      22.385   3.923  51.061  1.00  0.00    -0.259 NA
HETATM    9  C10 UNL     1      22.668   5.233  50.534  1.00  0.00     0.214 C 
HETATM   10  C16 UNL     1      21.879   5.348  49.226  1.00  0.00     0.084 C 
HETATM   11  H5  UNL     1      19.443   3.954  52.569  1.00  0.00     0.160 HD
ENDROOT
BRANCH   9  12
HETATM   12  N4  UNL     1      24.037   5.502  50.253  1.00  0.00    -0.346 N 
HETATM   13  C11 UNL     1      24.674   4.582  49.323  1.00  0.00     0.129 C 
HETATM   14  C12 UNL     1      26.170   4.914  49.418  1.00  0.00     0.052 C 
HETATM   15  C13 UNL     1      26.428   6.322  48.995  1.00  0.00     0.126 C 
HETATM   16  C14 UNL     1      25.794   7.285  49.955  1.00  0.00     0.109 C 
HETATM   17  C15 UNL     1      24.776   6.582  50.814  1.00  0.00     0.098 C 
HETATM   18  N5  UNL     1      24.485   6.863  52.059  1.00  0.00    -0.288 NA
HETATM   19  H25 UNL     1      25.033   7.657  52.465  1.00  0.00     0.188 HD
BRANCH  15  20
HETATM   20  O2  UNL     1      27.809   6.514  48.985  1.00  0.00    -0.395 OA
HETATM   21  H22 UNL     1      28.196   6.170  48.129  1.00  0.00     0.210 HD
ENDBRANCH  15  20
ENDBRANCH   9  12
BRANCH   6  22
HETATM   22  C5  UNL     1      23.031   1.337  52.193  1.00  0.00     0.112 C 
HETATM   23  C6  UNL     1      22.579   0.118  52.951  1.00  0.00     0.053 C 
HETATM   24  C7  UNL     1      23.887  -0.407  53.498  1.00  0.00     0.169 C 
HETATM   25  O1  UNL     1      24.816   0.592  53.483  1.00  0.00    -0.389 OA
HETATM   26  C8  UNL     1      24.219   1.757  53.029  1.00  0.00     0.193 C 
ENDBRANCH   6  22
TORSDOF 3
ENDMDL
MODEL 6
REMARK VINA RESULT:      -7.0      7.852     10.572
REMARK  3 active torsions:
REMARK  status: ('A' for Active; 'I' for Inactive)
REMARK    1  A    between atoms: N2_6  and  C5_7 
REMARK    2  A    between atoms: C10_14  and  N4_15 
REMARK    3  A    between atoms: C13_18  and  O2_19 
ROOT
HETATM    1  C1  UNL     1      26.525   5.067  49.093  1.00  0.00     0.045 C 
HETATM    2  C2  UNL     1      27.572   5.867  48.353  1.00  0.00    -0.065 C 
HETATM    3  C3  UNL     1      27.526   6.995  47.663  1.00  0.00     0.087 C 
HETATM    4  N1  UNL     1      27.649   8.201  46.884  1.00  0.00    -0.383 N 
HETATM    5  C4  UNL     1      28.355   9.374  47.431  1.00  0.00     0.247 C 
HETATM    6  N2  UNL     1      29.771   9.062  47.455  1.00  0.00    -0.353 N 
HETATM    7  C9  UNL     1      30.154   7.880  46.714  1.00  0.00     0.203 C 
HETATM    8  N3  UNL     1      29.785   7.185  47.730  1.00  0.00    -0.259 NA
HETATM    9  C10 UNL     1      29.920   5.757  47.595  1.00  0.00     0.214 C 
HETATM   10  C16 UNL     1      28.869   5.137  48.520  1.00  0.00     0.084 C 
HETATM   11  H5  UNL     1      27.231   8.227  45.908  1.00  0.00     0.160 HD
ENDROOT
BRANCH   9  12
HETATM   12  N4  UNL     1      31.192   5.223  47.945  1.00  0.00    -0.346 N 
HETATM   13  C11 UNL     1      31.685   4.168  47.073  1.00  0.00     0.129 C 
HETATM   14  C12 UNL     1      32.897   3.588  47.818  1.00  0.00     0.052 C 
HETATM   15  C13 UNL     1      33.952   4.628  48.003  1.00  0.00     0.126 C 
HETATM   16  C14 UNL     1      33.466   5.715  48.916  1.00  0.00     0.109 C 
HETATM   17  C15 UNL     1      31.967   5.655  49.058  1.00  0.00     0.098 C 
HETATM   18  N5  UNL     1      31.276   5.968  50.125  1.00  0.00    -0.288 NA
HETATM   19  H25 UNL     1      31.852   6.285  50.939  1.00  0.00     0.188 HD
BRANCH  15  20
HETATM   20  O2  UNL     1      35.063   4.006  48.568  1.00  0.00    -0.395 OA
HETATM   21  H22 UNL     1      35.896   4.296  48.095  1.00  0.00     0.210 HD
ENDBRANCH  15  20
ENDBRANCH   9  12
BRANCH   6  22
HETATM   22  C5  UNL     1      30.714   9.898  48.130  1.00  0.00     0.112 C 
HETATM   23  C6  UNL     1      30.105  10.927  49.044  1.00  0.00     0.053 C 
HETATM   24  C7  UNL     1      31.093  12.067  48.924  1.00  0.00     0.169 C 
HETATM   25  O1  UNL     1      31.827  11.910  47.785  1.00  0.00    -0.389 OA
HETATM   26  C8  UNL     1      31.370  10.793  47.103  1.00  0.00     0.193 C 
ENDBRANCH   6  22
TORSDOF 3
ENDMDL
MODEL 7
REMARK VINA RESULT:      -7.0      3.065      5.190
REMARK  3 active torsions:
REMARK  status: ('A' for Active; 'I' for Inactive)
REMARK    1  A    between atoms: N2_6  and  C5_7 
REMARK    2  A    between atoms: C10_14  and  N4_15 
REMARK    3  A    between atoms: C13_18  and  O2_19 
ROOT
HETATM    1  C1  UNL     1      20.305   1.662  52.570  1.00  0.00     0.045 C 
HETATM    2  C2  UNL     1      21.580   1.962  51.817  1.00  0.00    -0.065 C 
HETATM    3  C3  UNL     1      21.830   2.574  50.670  1.00  0.00     0.087 C 
HETATM    4  N1  UNL     1      22.272   3.205  49.454  1.00  0.00    -0.383 N 
HETATM    5  C4  UNL     1      22.995   4.489  49.499  1.00  0.00     0.247 C 
HETATM    6  N2  UNL     1      24.320   4.229  50.027  1.00  0.00    -0.353 N 
HETATM    7  C9  UNL     1      24.692   2.832  50.096  1.00  0.00     0.203 C 
HETATM    8  N3  UNL     1      24.028   2.762  51.195  1.00  0.00    -0.259 NA
HETATM    9  C10 UNL     1      24.000   1.468  51.827  1.00  0.00     0.214 C 
HETATM   10  C16 UNL     1      22.705   1.418  52.643  1.00  0.00     0.084 C 
HETATM   11  H5  UNL     1      22.077   2.726  48.526  1.00  0.00     0.160 HD
ENDROOT
BRANCH   9  12
HETATM   12  N4  UNL     1      25.087   1.185  52.701  1.00  0.00    -0.346 N 
HETATM   13  C11 UNL     1      25.375  -0.226  52.901  1.00  0.00     0.129 C 
HETATM   14  C12 UNL     1      26.368  -0.256  54.072  1.00  0.00     0.052 C 
HETATM   15  C13 UNL     1      27.623   0.473  53.719  1.00  0.00     0.126 C 
HETATM   16  C14 UNL     1      27.347   1.935  53.529  1.00  0.00     0.109 C 
HETATM   17  C15 UNL     1      25.870   2.177  53.357  1.00  0.00     0.098 C 
HETATM   18  N5  UNL     1      25.206   3.232  53.756  1.00  0.00    -0.288 NA
HETATM   19  H25 UNL     1      25.787   3.956  54.237  1.00  0.00     0.188 HD
BRANCH  15  20
HETATM   20  O2  UNL     1      28.521   0.300  54.771  1.00  0.00    -0.395 OA
HETATM   21  H22 UNL     1      28.400  -0.605  55.179  1.00  0.00     0.210 HD
ENDBRANCH  15  20
ENDBRANCH   9  12
BRANCH   6  22
HETATM   22  C5  UNL     1      25.201   5.289  50.406  1.00  0.00     0.112 C 
HETATM   23  C6  UNL     1      24.533   6.622  50.611  1.00  0.00     0.053 C 
HETATM   24  C7  UNL     1      25.617   7.580  50.169  1.00  0.00     0.169 C 
HETATM   25  O1  UNL     1      26.519   6.913  49.392  1.00  0.00    -0.389 OA
HETATM   26  C8  UNL     1      26.094   5.604  49.228  1.00  0.00     0.193 C 
ENDBRANCH   6  22
TORSDOF 3
ENDMDL
MODEL 8
REMARK VINA RESULT:      -6.7      3.342      6.367
REMARK  3 active torsions:
REMARK  status: ('A' for Active; 'I' for Inactive)
REMARK    1  A    between atoms: N2_6  and  C5_7 
REMARK    2  A    between atoms: C10_14  and  N4_15 
REMARK    3  A    between atoms: C13_18  and  O2_19 
ROOT
HETATM    1  C1  UNL     1      25.992  -0.162  53.078  1.00  0.00     0.045 C 
HETATM    2  C2  UNL     1      24.893   0.861  52.901  1.00  0.00    -0.065 C 
HETATM    3  C3  UNL     1      24.901   2.173  52.725  1.00  0.00     0.087 C 
HETATM    4  N1  UNL     1      24.733   3.590  52.530  1.00  0.00    -0.383 N 
HETATM    5  C4  UNL     1      24.271   4.115  51.232  1.00  0.00     0.247 C 
HETATM    6  N2  UNL     1      22.869   3.774  51.093  1.00  0.00    -0.353 N 
HETATM    7  C9  UNL     1      22.228   3.298  52.301  1.00  0.00     0.203 C 
HETATM    8  N3  UNL     1      22.735   2.143  52.054  1.00  0.00    -0.259 NA
HETATM    9  C10 UNL     1      22.439   1.112  53.016  1.00  0.00     0.214 C 
HETATM   10  C16 UNL     1      23.597   0.112  52.942  1.00  0.00     0.084 C 
HETATM   11  H5  UNL     1      24.937   4.247  53.339  1.00  0.00     0.160 HD
ENDROOT
BRANCH   9  12
HETATM   12  N4  UNL     1      21.225   0.401  52.803  1.00  0.00    -0.346 N 
HETATM   13  C11 UNL     1      20.685  -0.274  53.974  1.00  0.00     0.129 C 
HETATM   14  C12 UNL     1      19.569  -1.172  53.421  1.00  0.00     0.052 C 
HETATM   15  C13 UNL     1      18.503  -0.352  52.771  1.00  0.00     0.126 C 
HETATM   16  C14 UNL     1      19.038   0.335  51.549  1.00  0.00     0.109 C 
HETATM   17  C15 UNL     1      20.545   0.326  51.555  1.00  0.00     0.098 C 
HETATM   18  N5  UNL     1      21.323   0.255  50.505  1.00  0.00    -0.288 NA
HETATM   19  H25 UNL     1      20.817   0.199  49.591  1.00  0.00     0.188 HD
BRANCH  15  20
HETATM   20  O2  UNL     1      17.471  -1.215  52.406  1.00  0.00    -0.395 OA
HETATM   21  H22 UNL     1      17.752  -2.165  52.548  1.00  0.00     0.210 HD
ENDBRANCH  15  20
ENDBRANCH   9  12
BRANCH   6  22
HETATM   22  C5  UNL     1      22.172   3.942  49.857  1.00  0.00     0.112 C 
HETATM   23  C6  UNL     1      22.923   3.474  48.639  1.00  0.00     0.053 C 
HETATM   24  C7  UNL     1      22.440   4.447  47.587  1.00  0.00     0.169 C 
HETATM   25  O1  UNL     1      21.921   5.551  48.197  1.00  0.00    -0.389 OA
HETATM   26  C8  UNL     1      22.074   5.423  49.569  1.00  0.00     0.193 C 
ENDBRANCH   6  22
TORSDOF 3
ENDMDL
MODEL 9
REMARK VINA RESULT:      -6.7      2.801      4.659
REMARK  3 active torsions:
REMARK  status: ('A' for Active; 'I' for Inactive)
REMARK    1  A    between atoms: N2_6  and  C5_7 
REMARK    2  A    between atoms: C10_14  and  N4_15 
REMARK    3  A    between atoms: C13_18  and  O2_19 
ROOT
HETATM    1  C1  UNL     1      26.947   4.082  49.101  1.00  0.00     0.045 C 
HETATM    2  C2  UNL     1      25.790   4.317  50.044  1.00  0.00    -0.065 C 
HETATM    3  C3  UNL     1      25.112   5.399  50.390  1.00  0.00     0.087 C 
HETATM    4  N1  UNL     1      24.280   6.471  50.872  1.00  0.00    -0.383 N 
HETATM    5  C4  UNL     1      22.866   6.561  50.465  1.00  0.00     0.247 C 
HETATM    6  N2  UNL     1      22.147   5.495  51.136  1.00  0.00    -0.353 N 
HETATM    7  C9  UNL     1      22.875   4.835  52.198  1.00  0.00     0.203 C 
HETATM    8  N3  UNL     1      23.460   4.134  51.293  1.00  0.00    -0.259 NA
HETATM    9  C10 UNL     1      24.433   3.183  51.768  1.00  0.00     0.214 C 
HETATM   10  C16 UNL     1      25.431   2.983  50.624  1.00  0.00     0.084 C 
HETATM   11  H5  UNL     1      24.699   7.189  51.533  1.00  0.00     0.160 HD
ENDROOT
BRANCH   9  12
HETATM   12  N4  UNL     1      23.918   1.909  52.137  1.00  0.00    -0.346 N 
HETATM   13  C11 UNL     1      24.670   1.208  53.167  1.00  0.00     0.129 C 
HETATM   14  C12 UNL     1      24.090  -0.213  53.169  1.00  0.00     0.052 C 
HETATM   15  C13 UNL     1      22.639  -0.193  53.524  1.00  0.00     0.126 C 
HETATM   16  C14 UNL     1      21.847   0.509  52.462  1.00  0.00     0.109 C 
HETATM   17  C15 UNL     1      22.755   1.316  51.570  1.00  0.00     0.098 C 
HETATM   18  N5  UNL     1      22.586   1.541  50.292  1.00  0.00    -0.288 NA
HETATM   19  H25 UNL     1      21.729   1.102  49.882  1.00  0.00     0.188 HD
BRANCH  15  20
HETATM   20  O2  UNL     1      22.212  -1.515  53.629  1.00  0.00    -0.395 OA
HETATM   21  H22 UNL     1      22.999  -2.133  53.599  1.00  0.00     0.210 HD
ENDBRANCH  15  20
ENDBRANCH   9  12
BRANCH   6  22
HETATM   22  C5  UNL     1      20.800   5.162  50.791  1.00  0.00     0.112 C 
HETATM   23  C6  UNL     1      20.212   4.018  51.573  1.00  0.00     0.053 C 
HETATM   24  C7  UNL     1      19.291   3.389  50.551  1.00  0.00     0.169 C 
HETATM   25  O1  UNL     1      19.667   3.784  49.301  1.00  0.00    -0.389 OA
HETATM   26  C8  UNL     1      20.802   4.575  49.398  1.00  0.00     0.193 C 
ENDBRANCH   6  22
TORSDOF 3
ENDMDL
