MODEL 1
REMARK VINA RESULT:      -8.2      0.000      0.000
REMARK  9 active torsions:
REMARK  status: ('A' for Active; 'I' for Inactive)
REMARK    1  A    between atoms: C2_2  and  C3_3 
REMARK    2  A    between atoms: C3_3  and  C4_5 
REMARK    3  A    between atoms: C4_5  and  C5_6 
REMARK    4  A    between atoms: C5_6  and  C6_7 
REMARK    5  A    between atoms: C5_6  and  N3_19 
REMARK    6  A    between atoms: C6_7  and  C7_8 
REMARK    7  A    between atoms: C7_8  and  C8_9 
REMARK    8  A    between atoms: N3_19  and  C16_20 
REMARK    9  A    between atoms: C21_25  and  O1_26 
ROOT
HETATM    1  C5  UNL     1      23.794   2.537  52.176  1.00  0.00     0.076 C 
ENDROOT
BRANCH   1   2
HETATM    2  C4  UNL     1      22.439   2.476  52.591  1.00  0.00     0.057 C 
BRANCH   2   3
HETATM    3  C3  UNL     1      21.739   1.356  52.487  1.00  0.00     0.010 C 
HETATM    4 BR1  UNL     1      21.164   0.632  50.821  1.00  0.00    -0.051 Br
BRANCH   3   5
HETATM    5  C2  UNL     1      21.332   0.559  53.638  1.00  0.00    -0.007 C 
HETATM    6  C1  UNL     1      21.787  -0.650  54.000  1.00  0.00     0.032 C 
ENDBRANCH   3   5
ENDBRANCH   2   3
ENDBRANCH   1   2
BRANCH   1   7
HETATM    7  C6  UNL     1      24.528   1.431  52.240  1.00  0.00    -0.097 C 
BRANCH   7   8
HETATM    8  C7  UNL     1      25.338   0.456  52.624  1.00  0.00     0.090 C 
BRANCH   8   9
HETATM    9  C8  UNL     1      26.681   0.771  53.026  1.00  0.00     0.078 A 
HETATM   10  N1  UNL     1      27.051   2.012  53.309  1.00  0.00    -0.241 NA
HETATM   11  C9  UNL     1      28.341   2.255  53.686  1.00  0.00     0.234 A 
HETATM   12  N2  UNL     1      29.260   1.264  53.780  1.00  0.00    -0.241 NA
HETATM   13  C10 UNL     1      28.874   0.007  53.490  1.00  0.00     0.070 A 
HETATM   14  C11 UNL     1      29.760  -1.057  53.565  1.00  0.00     0.032 A 
HETATM   15  C15 UNL     1      27.571  -0.277  53.104  1.00  0.00     0.022 A 
HETATM   16  C12 UNL     1      29.370  -2.350  53.268  1.00  0.00     0.002 A 
HETATM   17  C13 UNL     1      28.062  -2.631  52.881  1.00  0.00     0.001 A 
HETATM   18  C14 UNL     1      27.168  -1.581  52.802  1.00  0.00     0.016 A 
ENDBRANCH   8   9
ENDBRANCH   7   8
ENDBRANCH   1   7
BRANCH   1  19
HETATM   19  N3  UNL     1      24.523   3.607  51.691  1.00  0.00    -0.373 N 
HETATM   20  H11 UNL     1      24.913   4.377  52.276  1.00  0.00     0.161 HD
BRANCH  19  21
HETATM   21  C16 UNL     1      24.781   3.692  50.265  1.00  0.00     0.142 A 
HETATM   22  C17 UNL     1      23.684   4.425  49.538  1.00  0.00     0.059 A 
HETATM   23  C18 UNL     1      24.278   5.511  48.731  1.00  0.00    -0.024 A 
HETATM   24  C19 UNL     1      25.488   5.984  48.498  1.00  0.00    -0.001 A 
HETATM   25  C20 UNL     1      26.539   5.271  49.206  1.00  0.00     0.034 A 
HETATM   26  C21 UNL     1      26.074   4.284  49.948  1.00  0.00     0.066 A 
BRANCH  26  27
HETATM   27  O1  UNL     1      27.030   3.544  50.666  1.00  0.00    -0.363 OA
HETATM   28  H18 UNL     1      27.735   4.060  51.177  1.00  0.00     0.217 HD
ENDBRANCH  26  27
ENDBRANCH  19  21
ENDBRANCH   1  19
TORSDOF 9
ENDMDL
MODEL 2
REMARK VINA RESULT:      -7.9      1.894      6.372
REMARK  9 active torsions:
REMARK  status: ('A' for Active; 'I' for Inactive)
REMARK    1  A    between atoms: C2_2  and  C3_3 
REMARK    2  A    between atoms: C3_3  and  C4_5 
REMARK    3  A    between atoms: C4_5  and  C5_6 
REMARK    4  A    between atoms: C5_6  and  C6_7 
REMARK    5  A    between atoms: C5_6  and  N3_19 
REMARK    6  A    between atoms: C6_7  and  C7_8 
REMARK    7  A    between atoms: C7_8  and  C8_9 
REMARK    8  A    between atoms: N3_19  and  C16_20 
REMARK    9  A    between atoms: C21_25  and  O1_26 
ROOT
HETATM    1  C5  UNL     1      25.411   2.387  51.920  1.00  0.00     0.076 C 
ENDROOT
BRANCH   1   2
HETATM    2  C4  UNL     1      24.376   2.417  52.890  1.00  0.00     0.057 C 
BRANCH   2   3
HETATM    3  C3  UNL     1      23.331   1.606  52.805  1.00  0.00     0.010 C 
HETATM    4 BR1  UNL     1      21.602   2.183  52.252  1.00  0.00    -0.051 Br
BRANCH   3   5
HETATM    5  C2  UNL     1      23.396   0.186  53.126  1.00  0.00    -0.007 C 
HETATM    6  C1  UNL     1      22.372  -0.670  53.263  1.00  0.00     0.032 C 
ENDBRANCH   3   5
ENDBRANCH   2   3
ENDBRANCH   1   2
BRANCH   1   7
HETATM    7  C6  UNL     1      25.162   2.879  50.711  1.00  0.00    -0.097 C 
BRANCH   7   8
HETATM    8  C7  UNL     1      25.260   3.438  49.515  1.00  0.00     0.090 C 
BRANCH   8   9
HETATM    9  C8  UNL     1      25.234   4.870  49.400  1.00  0.00     0.078 A 
HETATM   10  N1  UNL     1      24.146   5.572  49.680  1.00  0.00    -0.241 NA
HETATM   11  C9  UNL     1      24.177   6.932  49.554  1.00  0.00     0.234 A 
HETATM   12  N2  UNL     1      25.291   7.590  49.149  1.00  0.00    -0.241 NA
HETATM   13  C10 UNL     1      26.391   6.867  48.868  1.00  0.00     0.070 A 
HETATM   14  C11 UNL     1      27.566   7.473  48.450  1.00  0.00     0.032 A 
HETATM   15  C15 UNL     1      26.396   5.484  48.985  1.00  0.00     0.022 A 
HETATM   16  C12 UNL     1      28.700   6.736  48.159  1.00  0.00     0.002 A 
HETATM   17  C13 UNL     1      28.701   5.348  48.278  1.00  0.00     0.001 A 
HETATM   18  C14 UNL     1      27.537   4.731  48.694  1.00  0.00     0.016 A 
ENDBRANCH   8   9
ENDBRANCH   7   8
ENDBRANCH   1   7
BRANCH   1  19
HETATM   19  N3  UNL     1      26.703   1.907  52.021  1.00  0.00    -0.373 N 
HETATM   20  H11 UNL     1      27.469   2.109  51.344  1.00  0.00     0.161 HD
BRANCH  19  21
HETATM   21  C16 UNL     1      27.050   1.055  53.144  1.00  0.00     0.142 A 
HETATM   22  C17 UNL     1      27.078  -0.401  52.757  1.00  0.00     0.059 A 
HETATM   23  C18 UNL     1      28.376  -0.984  53.157  1.00  0.00    -0.024 A 
HETATM   24  C19 UNL     1      29.478  -0.562  53.747  1.00  0.00    -0.001 A 
HETATM   25  C20 UNL     1      29.441   0.845  54.115  1.00  0.00     0.034 A 
HETATM   26  C21 UNL     1      28.304   1.426  53.785  1.00  0.00     0.066 A 
BRANCH  26  27
HETATM   27  O1  UNL     1      28.189   2.791  54.107  1.00  0.00    -0.363 OA
HETATM   28  H18 UNL     1      29.003   3.376  53.967  1.00  0.00     0.217 HD
ENDBRANCH  26  27
ENDBRANCH  19  21
ENDBRANCH   1  19
TORSDOF 9
ENDMDL
MODEL 3
REMARK VINA RESULT:      -7.8      2.665      6.750
REMARK  9 active torsions:
REMARK  status: ('A' for Active; 'I' for Inactive)
REMARK    1  A    between atoms: C2_2  and  C3_3 
REMARK    2  A    between atoms: C3_3  and  C4_5 
REMARK    3  A    between atoms: C4_5  and  C5_6 
REMARK    4  A    between atoms: C5_6  and  C6_7 
REMARK    5  A    between atoms: C5_6  and  N3_19 
REMARK    6  A    between atoms: C6_7  and  C7_8 
REMARK    7  A    between atoms: C7_8  and  C8_9 
REMARK    8  A    between atoms: N3_19  and  C16_20 
REMARK    9  A    between atoms: C21_25  and  O1_26 
ROOT
HETATM    1  C5  UNL     1      25.741   0.378  52.916  1.00  0.00     0.076 C 
ENDROOT
BRANCH   1   2
HETATM    2  C4  UNL     1      26.688  -0.522  53.468  1.00  0.00     0.057 C 
BRANCH   2   3
HETATM    3  C3  UNL     1      27.920  -0.130  53.759  1.00  0.00     0.010 C 
HETATM    4 BR1  UNL     1      29.463  -1.193  53.415  1.00  0.00    -0.051 Br
BRANCH   3   5
HETATM    5  C2  UNL     1      28.224   1.156  54.374  1.00  0.00    -0.007 C 
HETATM    6  C1  UNL     1      28.976   2.147  53.872  1.00  0.00     0.032 C 
ENDBRANCH   3   5
ENDBRANCH   2   3
ENDBRANCH   1   2
BRANCH   1   7
HETATM    7  C6  UNL     1      26.060   1.029  51.802  1.00  0.00    -0.097 C 
BRANCH   7   8
HETATM    8  C7  UNL     1      26.282   1.958  50.885  1.00  0.00     0.090 C 
BRANCH   8   9
HETATM    9  C8  UNL     1      25.508   3.168  50.903  1.00  0.00     0.078 A 
HETATM   10  N1  UNL     1      24.421   3.289  51.652  1.00  0.00    -0.241 NA
HETATM   11  C9  UNL     1      23.723   4.462  51.631  1.00  0.00     0.234 A 
HETATM   12  N2  UNL     1      24.106   5.513  50.865  1.00  0.00    -0.241 NA
HETATM   13  C10 UNL     1      25.211   5.379  50.108  1.00  0.00     0.070 A 
HETATM   14  C11 UNL     1      25.663   6.412  49.301  1.00  0.00     0.032 A 
HETATM   15  C15 UNL     1      25.947   4.202  50.104  1.00  0.00     0.022 A 
HETATM   16  C12 UNL     1      26.798   6.282  48.521  1.00  0.00     0.002 A 
HETATM   17  C13 UNL     1      27.532   5.099  48.520  1.00  0.00     0.001 A 
HETATM   18  C14 UNL     1      27.094   4.061  49.320  1.00  0.00     0.016 A 
ENDBRANCH   8   9
ENDBRANCH   7   8
ENDBRANCH   1   7
BRANCH   1  19
HETATM   19  N3  UNL     1      24.476   0.715  53.361  1.00  0.00    -0.373 N 
HETATM   20  H11 UNL     1      24.226   1.617  53.820  1.00  0.00     0.161 HD
BRANCH  19  21
HETATM   21  C16 UNL     1      23.396  -0.239  53.191  1.00  0.00     0.142 A 
HETATM   22  C17 UNL     1      23.045  -0.928  54.485  1.00  0.00     0.059 A 
HETATM   23  C18 UNL     1      21.594  -0.791  54.729  1.00  0.00    -0.024 A 
HETATM   24  C19 UNL     1      20.565  -0.234  54.119  1.00  0.00    -0.001 A 
HETATM   25  C20 UNL     1      20.914   0.430  52.873  1.00  0.00     0.034 A 
HETATM   26  C21 UNL     1      22.201   0.343  52.595  1.00  0.00     0.066 A 
BRANCH  26  27
HETATM   27  O1  UNL     1      22.620   0.962  51.403  1.00  0.00    -0.363 OA
HETATM   28  H18 UNL     1      22.607   0.406  50.557  1.00  0.00     0.217 HD
ENDBRANCH  26  27
ENDBRANCH  19  21
ENDBRANCH   1  19
TORSDOF 9
ENDMDL
MODEL 4
REMARK VINA RESULT:      -7.7      2.830      6.698
REMARK  9 active torsions:
REMARK  status: ('A' for Active; 'I' for Inactive)
REMARK    1  A    between atoms: C2_2  and  C3_3 
REMARK    2  A    between atoms: C3_3  and  C4_5 
REMARK    3  A    between atoms: C4_5  and  C5_6 
REMARK    4  A    between atoms: C5_6  and  C6_7 
REMARK    5  A    between atoms: C5_6  and  N3_19 
REMARK    6  A    between atoms: C6_7  and  C7_8 
REMARK    7  A    between atoms: C7_8  and  C8_9 
REMARK    8  A    between atoms: N3_19  and  C16_20 
REMARK    9  A    between atoms: C21_25  and  O1_26 
ROOT
HETATM    1  C5  UNL     1      24.541   2.778  52.495  1.00  0.00     0.076 C 
ENDROOT
BRANCH   1   2
HETATM    2  C4  UNL     1      24.428   3.895  51.628  1.00  0.00     0.057 C 
BRANCH   2   3
HETATM    3  C3  UNL     1      24.674   3.785  50.331  1.00  0.00     0.010 C 
HETATM    4 BR1  UNL     1      26.424   3.565  49.613  1.00  0.00    -0.051 Br
BRANCH   3   5
HETATM    5  C2  UNL     1      23.629   3.823  49.315  1.00  0.00    -0.007 C 
HETATM    6  C1  UNL     1      23.068   2.784  48.678  1.00  0.00     0.032 C 
ENDBRANCH   3   5
ENDBRANCH   2   3
ENDBRANCH   1   2
BRANCH   1   7
HETATM    7  C6  UNL     1      23.630   1.815  52.411  1.00  0.00    -0.097 C 
BRANCH   7   8
HETATM    8  C7  UNL     1      22.719   0.952  51.987  1.00  0.00     0.090 C 
BRANCH   8   9
HETATM    9  C8  UNL     1      22.111   0.051  52.926  1.00  0.00     0.078 A 
HETATM   10  N1  UNL     1      22.804  -0.506  53.909  1.00  0.00    -0.241 NA
HETATM   11  C9  UNL     1      22.176  -1.355  54.773  1.00  0.00     0.234 A 
HETATM   12  N2  UNL     1      20.857  -1.650  54.659  1.00  0.00    -0.241 NA
HETATM   13  C10 UNL     1      20.162  -1.080  53.657  1.00  0.00     0.070 A 
HETATM   14  C11 UNL     1      18.810  -1.334  53.480  1.00  0.00     0.032 A 
HETATM   15  C15 UNL     1      20.768  -0.211  52.760  1.00  0.00     0.022 A 
HETATM   16  C12 UNL     1      18.089  -0.751  52.453  1.00  0.00     0.002 A 
HETATM   17  C13 UNL     1      18.702   0.119  51.555  1.00  0.00     0.001 A 
HETATM   18  C14 UNL     1      20.048   0.383  51.720  1.00  0.00     0.016 A 
ENDBRANCH   8   9
ENDBRANCH   7   8
ENDBRANCH   1   7
BRANCH   1  19
HETATM   19  N3  UNL     1      25.485   2.506  53.467  1.00  0.00    -0.373 N 
HETATM   20  H11 UNL     1      25.484   2.906  54.430  1.00  0.00     0.161 HD
BRANCH  19  21
HETATM   21  C16 UNL     1      26.572   1.596  53.155  1.00  0.00     0.142 A 
HETATM   22  C17 UNL     1      27.852   2.333  52.853  1.00  0.00     0.059 A 
HETATM   23  C18 UNL     1      28.933   1.797  53.706  1.00  0.00    -0.024 A 
HETATM   24  C19 UNL     1      29.053   0.867  54.634  1.00  0.00    -0.001 A 
HETATM   25  C20 UNL     1      27.812   0.164  54.920  1.00  0.00     0.034 A 
HETATM   26  C21 UNL     1      26.804   0.596  54.188  1.00  0.00     0.066 A 
BRANCH  26  27
HETATM   27  O1  UNL     1      25.565  -0.035  54.404  1.00  0.00    -0.363 OA
HETATM   28  H18 UNL     1      25.197  -0.612  53.659  1.00  0.00     0.217 HD
ENDBRANCH  26  27
ENDBRANCH  19  21
ENDBRANCH   1  19
TORSDOF 9
ENDMDL
MODEL 5
REMARK VINA RESULT:      -7.7      2.171      6.758
REMARK  9 active torsions:
REMARK  status: ('A' for Active; 'I' for Inactive)
REMARK    1  A    between atoms: C2_2  and  C3_3 
REMARK    2  A    between atoms: C3_3  and  C4_5 
REMARK    3  A    between atoms: C4_5  and  C5_6 
REMARK    4  A    between atoms: C5_6  and  C6_7 
REMARK    5  A    between atoms: C5_6  and  N3_19 
REMARK    6  A    between atoms: C6_7  and  C7_8 
REMARK    7  A    between atoms: C7_8  and  C8_9 
REMARK    8  A    between atoms: N3_19  and  C16_20 
REMARK    9  A    between atoms: C21_25  and  O1_26 
ROOT
HETATM    1  C5  UNL     1      26.355   2.566  51.651  1.00  0.00     0.076 C 
ENDROOT
BRANCH   1   2
HETATM    2  C4  UNL     1      26.136   2.548  50.250  1.00  0.00     0.057 C 
BRANCH   2   3
HETATM    3  C3  UNL     1      25.573   3.574  49.629  1.00  0.00     0.010 C 
HETATM    4 BR1  UNL     1      23.723   3.640  49.182  1.00  0.00    -0.051 Br
BRANCH   3   5
HETATM    5  C2  UNL     1      26.313   4.762  49.220  1.00  0.00    -0.007 C 
HETATM    6  C1  UNL     1      27.549   4.819  48.701  1.00  0.00     0.032 C 
ENDBRANCH   3   5
ENDBRANCH   2   3
ENDBRANCH   1   2
BRANCH   1   7
HETATM    7  C6  UNL     1      25.315   2.765  52.453  1.00  0.00    -0.097 C 
BRANCH   7   8
HETATM    8  C7  UNL     1      24.107   2.796  52.995  1.00  0.00     0.090 C 
BRANCH   8   9
HETATM    9  C8  UNL     1      23.295   1.611  52.975  1.00  0.00     0.078 A 
HETATM   10  N1  UNL     1      23.784   0.424  53.303  1.00  0.00    -0.241 NA
HETATM   11  C9  UNL     1      22.967  -0.669  53.267  1.00  0.00     0.234 A 
HETATM   12  N2  UNL     1      21.664  -0.580  52.904  1.00  0.00    -0.241 NA
HETATM   13  C10 UNL     1      21.177   0.630  52.573  1.00  0.00     0.070 A 
HETATM   14  C11 UNL     1      19.853   0.797  52.193  1.00  0.00     0.032 A 
HETATM   15  C15 UNL     1      21.978   1.764  52.599  1.00  0.00     0.022 A 
HETATM   16  C12 UNL     1      19.346   2.038  51.852  1.00  0.00     0.002 A 
HETATM   17  C13 UNL     1      20.154   3.172  51.878  1.00  0.00     0.001 A 
HETATM   18  C14 UNL     1      21.475   3.021  52.255  1.00  0.00     0.016 A 
ENDBRANCH   8   9
ENDBRANCH   7   8
ENDBRANCH   1   7
BRANCH   1  19
HETATM   19  N3  UNL     1      27.529   2.406  52.364  1.00  0.00    -0.373 N 
HETATM   20  H11 UNL     1      28.377   3.004  52.260  1.00  0.00     0.161 HD
BRANCH  19  21
HETATM   21  C16 UNL     1      27.617   1.334  53.339  1.00  0.00     0.142 A 
HETATM   22  C17 UNL     1      27.124   0.024  52.780  1.00  0.00     0.059 A 
HETATM   23  C18 UNL     1      28.161  -1.009  52.982  1.00  0.00    -0.024 A 
HETATM   24  C19 UNL     1      29.368  -1.069  53.510  1.00  0.00    -0.001 A 
HETATM   25  C20 UNL     1      29.835   0.200  54.045  1.00  0.00     0.034 A 
HETATM   26  C21 UNL     1      28.952   1.169  53.897  1.00  0.00     0.066 A 
BRANCH  26  27
HETATM   27  O1  UNL     1      29.329   2.432  54.389  1.00  0.00    -0.363 OA
HETATM   28  H18 UNL     1      30.181   2.488  54.931  1.00  0.00     0.217 HD
ENDBRANCH  26  27
ENDBRANCH  19  21
ENDBRANCH   1  19
TORSDOF 9
ENDMDL
MODEL 6
REMARK VINA RESULT:      -7.6      2.053      6.594
REMARK  9 active torsions:
REMARK  status: ('A' for Active; 'I' for Inactive)
REMARK    1  A    between atoms: C2_2  and  C3_3 
REMARK    2  A    between atoms: C3_3  and  C4_5 
REMARK    3  A    between atoms: C4_5  and  C5_6 
REMARK    4  A    between atoms: C5_6  and  C6_7 
REMARK    5  A    between atoms: C5_6  and  N3_19 
REMARK    6  A    between atoms: C6_7  and  C7_8 
REMARK    7  A    between atoms: C7_8  and  C8_9 
REMARK    8  A    between atoms: N3_19  and  C16_20 
REMARK    9  A    between atoms: C21_25  and  O1_26 
ROOT
HETATM    1  C5  UNL     1      25.761   2.614  51.213  1.00  0.00     0.076 C 
ENDROOT
BRANCH   1   2
HETATM    2  C4  UNL     1      25.457   3.193  49.955  1.00  0.00     0.057 C 
BRANCH   2   3
HETATM    3  C3  UNL     1      25.452   4.507  49.786  1.00  0.00     0.010 C 
HETATM    4 BR1  UNL     1      24.157   5.659  50.577  1.00  0.00    -0.051 Br
BRANCH   3   5
HETATM    5  C2  UNL     1      26.439   5.210  48.976  1.00  0.00    -0.007 C 
HETATM    6  C1  UNL     1      27.689   4.819  48.685  1.00  0.00     0.032 C 
ENDBRANCH   3   5
ENDBRANCH   2   3
ENDBRANCH   1   2
BRANCH   1   7
HETATM    7  C6  UNL     1      24.766   2.377  52.061  1.00  0.00    -0.097 C 
BRANCH   7   8
HETATM    8  C7  UNL     1      23.749   2.494  52.901  1.00  0.00     0.090 C 
BRANCH   8   9
HETATM    9  C8  UNL     1      22.423   2.164  52.456  1.00  0.00     0.078 A 
HETATM   10  N1  UNL     1      21.780   2.909  51.569  1.00  0.00    -0.241 NA
HETATM   11  C9  UNL     1      20.522   2.550  51.181  1.00  0.00     0.234 A 
HETATM   12  N2  UNL     1      19.905   1.448  51.675  1.00  0.00    -0.241 NA
HETATM   13  C10 UNL     1      20.567   0.698  52.575  1.00  0.00     0.070 A 
HETATM   14  C11 UNL     1      19.999  -0.443  53.123  1.00  0.00     0.032 A 
HETATM   15  C15 UNL     1      21.848   1.033  52.993  1.00  0.00     0.022 A 
HETATM   16  C12 UNL     1      20.674  -1.219  54.048  1.00  0.00     0.002 A 
HETATM   17  C13 UNL     1      21.959  -0.879  54.464  1.00  0.00     0.001 A 
HETATM   18  C14 UNL     1      22.538   0.255  53.927  1.00  0.00     0.016 A 
ENDBRANCH   8   9
ENDBRANCH   7   8
ENDBRANCH   1   7
BRANCH   1  19
HETATM   19  N3  UNL     1      26.982   2.234  51.740  1.00  0.00    -0.373 N 
HETATM   20  H11 UNL     1      27.908   2.576  51.405  1.00  0.00     0.161 HD
BRANCH  19  21
HETATM   21  C16 UNL     1      27.008   1.291  52.843  1.00  0.00     0.142 A 
HETATM   22  C17 UNL     1      26.937  -0.136  52.363  1.00  0.00     0.059 A 
HETATM   23  C18 UNL     1      28.058  -0.900  52.949  1.00  0.00    -0.024 A 
HETATM   24  C19 UNL     1      29.071  -0.654  53.758  1.00  0.00    -0.001 A 
HETATM   25  C20 UNL     1      29.131   0.727  54.213  1.00  0.00     0.034 A 
HETATM   26  C21 UNL     1      28.154   1.466  53.725  1.00  0.00     0.066 A 
BRANCH  26  27
HETATM   27  O1  UNL     1      28.141   2.816  54.118  1.00  0.00    -0.363 OA
HETATM   28  H18 UNL     1      29.033   3.284  54.216  1.00  0.00     0.217 HD
ENDBRANCH  26  27
ENDBRANCH  19  21
ENDBRANCH   1  19
TORSDOF 9
ENDMDL
MODEL 7
REMARK VINA RESULT:      -7.5      2.046      6.756
REMARK  9 active torsions:
REMARK  status: ('A' for Active; 'I' for Inactive)
REMARK    1  A    between atoms: C2_2  and  C3_3 
REMARK    2  A    between atoms: C3_3  and  C4_5 
REMARK    3  A    between atoms: C4_5  and  C5_6 
REMARK    4  A    between atoms: C5_6  and  C6_7 
REMARK    5  A    between atoms: C5_6  and  N3_19 
REMARK    6  A    between atoms: C6_7  and  C7_8 
REMARK    7  A    between atoms: C7_8  and  C8_9 
REMARK    8  A    between atoms: N3_19  and  C16_20 
REMARK    9  A    between atoms: C21_25  and  O1_26 
ROOT
HETATM    1  C5  UNL     1      25.501   2.306  51.736  1.00  0.00     0.076 C 
ENDROOT
BRANCH   1   2
HETATM    2  C4  UNL     1      24.349   2.134  52.544  1.00  0.00     0.057 C 
BRANCH   2   3
HETATM    3  C3  UNL     1      23.385   1.294  52.197  1.00  0.00     0.010 C 
HETATM    4 BR1  UNL     1      22.319   1.513  50.633  1.00  0.00    -0.051 Br
BRANCH   3   5
HETATM    5  C2  UNL     1      23.038   0.112  52.977  1.00  0.00    -0.007 C 
HETATM    6  C1  UNL     1      23.792  -0.516  53.892  1.00  0.00     0.032 C 
ENDBRANCH   3   5
ENDBRANCH   2   3
ENDBRANCH   1   2
BRANCH   1   7
HETATM    7  C6  UNL     1      25.443   3.161  50.721  1.00  0.00    -0.097 C 
BRANCH   7   8
HETATM    8  C7  UNL     1      25.280   3.725  49.534  1.00  0.00     0.090 C 
BRANCH   8   9
HETATM    9  C8  UNL     1      26.268   4.651  49.052  1.00  0.00     0.078 A 
HETATM   10  N1  UNL     1      27.548   4.322  48.965  1.00  0.00    -0.241 NA
HETATM   11  C9  UNL     1      28.444   5.242  48.499  1.00  0.00     0.234 A 
HETATM   12  N2  UNL     1      28.065   6.487  48.121  1.00  0.00    -0.241 NA
HETATM   13  C10 UNL     1      26.761   6.810  48.213  1.00  0.00     0.070 A 
HETATM   14  C11 UNL     1      26.300   8.065  47.843  1.00  0.00     0.032 A 
HETATM   15  C15 UNL     1      25.822   5.901  48.681  1.00  0.00     0.022 A 
HETATM   16  C12 UNL     1      24.962   8.404  47.935  1.00  0.00     0.002 A 
HETATM   17  C13 UNL     1      24.024   7.489  48.406  1.00  0.00     0.001 A 
HETATM   18  C14 UNL     1      24.469   6.235  48.778  1.00  0.00     0.016 A 
ENDBRANCH   8   9
ENDBRANCH   7   8
ENDBRANCH   1   7
BRANCH   1  19
HETATM   19  N3  UNL     1      26.742   1.703  51.826  1.00  0.00    -0.373 N 
HETATM   20  H11 UNL     1      27.489   1.763  51.101  1.00  0.00     0.161 HD
BRANCH  19  21
HETATM   21  C16 UNL     1      27.059   0.923  53.008  1.00  0.00     0.142 A 
HETATM   22  C17 UNL     1      27.266  -0.534  52.680  1.00  0.00     0.059 A 
HETATM   23  C18 UNL     1      28.569  -0.973  53.222  1.00  0.00    -0.024 A 
HETATM   24  C19 UNL     1      29.563  -0.426  53.897  1.00  0.00    -0.001 A 
HETATM   25  C20 UNL     1      29.355   0.980  54.206  1.00  0.00     0.034 A 
HETATM   26  C21 UNL     1      28.204   1.435  53.748  1.00  0.00     0.066 A 
BRANCH  26  27
HETATM   27  O1  UNL     1      27.927   2.790  54.007  1.00  0.00    -0.363 OA
HETATM   28  H18 UNL     1      28.529   3.275  54.659  1.00  0.00     0.217 HD
ENDBRANCH  26  27
ENDBRANCH  19  21
ENDBRANCH   1  19
TORSDOF 9
ENDMDL
MODEL 8
REMARK VINA RESULT:      -7.4      1.834      5.980
REMARK  9 active torsions:
REMARK  status: ('A' for Active; 'I' for Inactive)
REMARK    1  A    between atoms: C2_2  and  C3_3 
REMARK    2  A    between atoms: C3_3  and  C4_5 
REMARK    3  A    between atoms: C4_5  and  C5_6 
REMARK    4  A    between atoms: C5_6  and  C6_7 
REMARK    5  A    between atoms: C5_6  and  N3_19 
REMARK    6  A    between atoms: C6_7  and  C7_8 
REMARK    7  A    between atoms: C7_8  and  C8_9 
REMARK    8  A    between atoms: N3_19  and  C16_20 
REMARK    9  A    between atoms: C21_25  and  O1_26 
ROOT
HETATM    1  C5  UNL     1      24.272   1.455  52.102  1.00  0.00     0.076 C 
ENDROOT
BRANCH   1   2
HETATM    2  C4  UNL     1      23.124   1.382  52.931  1.00  0.00     0.057 C 
BRANCH   2   3
HETATM    3  C3  UNL     1      22.258   0.386  52.819  1.00  0.00     0.010 C 
HETATM    4 BR1  UNL     1      20.750   0.436  51.655  1.00  0.00    -0.051 Br
BRANCH   3   5
HETATM    5  C2  UNL     1      22.367  -0.855  53.576  1.00  0.00    -0.007 C 
HETATM    6  C1  UNL     1      22.258  -1.017  54.904  1.00  0.00     0.032 C 
ENDBRANCH   3   5
ENDBRANCH   2   3
ENDBRANCH   1   2
BRANCH   1   7
HETATM    7  C6  UNL     1      24.175   2.084  50.936  1.00  0.00    -0.097 C 
BRANCH   7   8
HETATM    8  C7  UNL     1      23.920   2.956  49.972  1.00  0.00     0.090 C 
BRANCH   8   9
HETATM    9  C8  UNL     1      23.971   4.362  50.262  1.00  0.00     0.078 A 
HETATM   10  N1  UNL     1      23.006   4.970  50.937  1.00  0.00    -0.241 NA
HETATM   11  C9  UNL     1      23.106   6.310  51.185  1.00  0.00     0.234 A 
HETATM   12  N2  UNL     1      24.165   7.042  50.760  1.00  0.00    -0.241 NA
HETATM   13  C10 UNL     1      25.139   6.414  50.075  1.00  0.00     0.070 A 
HETATM   14  C11 UNL     1      26.252   7.099  49.610  1.00  0.00     0.032 A 
HETATM   15  C15 UNL     1      25.072   5.054  49.805  1.00  0.00     0.022 A 
HETATM   16  C12 UNL     1      27.257   6.460  48.906  1.00  0.00     0.002 A 
HETATM   17  C13 UNL     1      27.185   5.096  48.637  1.00  0.00     0.001 A 
HETATM   18  C14 UNL     1      26.081   4.400  49.094  1.00  0.00     0.016 A 
ENDBRANCH   8   9
ENDBRANCH   7   8
ENDBRANCH   1   7
BRANCH   1  19
HETATM   19  N3  UNL     1      25.545   0.955  52.309  1.00  0.00    -0.373 N 
HETATM   20  H11 UNL     1      26.014   0.247  51.704  1.00  0.00     0.161 HD
BRANCH  19  21
HETATM   21  C16 UNL     1      26.311   1.435  53.445  1.00  0.00     0.142 A 
HETATM   22  C17 UNL     1      26.377   0.412  54.550  1.00  0.00     0.059 A 
HETATM   23  C18 UNL     1      27.790   0.189  54.920  1.00  0.00    -0.024 A 
HETATM   24  C19 UNL     1      28.968   0.645  54.537  1.00  0.00    -0.001 A 
HETATM   25  C20 UNL     1      28.893   1.629  53.469  1.00  0.00     0.034 A 
HETATM   26  C21 UNL     1      27.654   1.876  53.091  1.00  0.00     0.066 A 
BRANCH  26  27
HETATM   27  O1  UNL     1      27.496   2.819  52.059  1.00  0.00    -0.363 OA
HETATM   28  H18 UNL     1      26.597   3.276  51.976  1.00  0.00     0.217 HD
ENDBRANCH  26  27
ENDBRANCH  19  21
ENDBRANCH   1  19
TORSDOF 9
ENDMDL
MODEL 9
REMARK VINA RESULT:      -7.2      2.120      2.936
REMARK  9 active torsions:
REMARK  status: ('A' for Active; 'I' for Inactive)
REMARK    1  A    between atoms: C2_2  and  C3_3 
REMARK    2  A    between atoms: C3_3  and  C4_5 
REMARK    3  A    between atoms: C4_5  and  C5_6 
REMARK    4  A    between atoms: C5_6  and  C6_7 
REMARK    5  A    between atoms: C5_6  and  N3_19 
REMARK    6  A    between atoms: C6_7  and  C7_8 
REMARK    7  A    between atoms: C7_8  and  C8_9 
REMARK    8  A    between atoms: N3_19  and  C16_20 
REMARK    9  A    between atoms: C21_25  and  O1_26 
ROOT
HETATM    1  C5  UNL     1      23.681   3.297  51.221  1.00  0.00     0.076 C 
ENDROOT
BRANCH   1   2
HETATM    2  C4  UNL     1      23.584   2.173  50.362  1.00  0.00     0.057 C 
BRANCH   2   3
HETATM    3  C3  UNL     1      22.440   1.855  49.773  1.00  0.00     0.010 C 
HETATM    4 BR1  UNL     1      22.074   2.214  47.939  1.00  0.00    -0.051 Br
BRANCH   3   5
HETATM    5  C2  UNL     1      21.341   1.197  50.468  1.00  0.00    -0.007 C 
HETATM    6  C1  UNL     1      21.420   0.262  51.427  1.00  0.00     0.032 C 
ENDBRANCH   3   5
ENDBRANCH   2   3
ENDBRANCH   1   2
BRANCH   1   7
HETATM    7  C6  UNL     1      24.186   3.124  52.438  1.00  0.00    -0.097 C 
BRANCH   7   8
HETATM    8  C7  UNL     1      24.911   2.739  53.477  1.00  0.00     0.090 C 
BRANCH   8   9
HETATM    9  C8  UNL     1      25.372   1.381  53.552  1.00  0.00     0.078 A 
HETATM   10  N1  UNL     1      24.532   0.356  53.526  1.00  0.00    -0.241 NA
HETATM   11  C9  UNL     1      25.025  -0.915  53.600  1.00  0.00     0.234 A 
HETATM   12  N2  UNL     1      26.354  -1.165  53.699  1.00  0.00    -0.241 NA
HETATM   13  C10 UNL     1      27.199  -0.117  53.724  1.00  0.00     0.070 A 
HETATM   14  C11 UNL     1      28.570  -0.298  53.822  1.00  0.00     0.032 A 
HETATM   15  C15 UNL     1      26.733   1.188  53.650  1.00  0.00     0.022 A 
HETATM   16  C12 UNL     1      29.444   0.774  53.848  1.00  0.00     0.002 A 
HETATM   17  C13 UNL     1      28.973   2.083  53.775  1.00  0.00     0.001 A 
HETATM   18  C14 UNL     1      27.608   2.278  53.676  1.00  0.00     0.016 A 
ENDBRANCH   8   9
ENDBRANCH   7   8
ENDBRANCH   1   7
BRANCH   1  19
HETATM   19  N3  UNL     1      23.320   4.613  50.999  1.00  0.00    -0.373 N 
HETATM   20  H11 UNL     1      22.388   5.022  51.224  1.00  0.00     0.161 HD
BRANCH  19  21
HETATM   21  C16 UNL     1      24.291   5.517  50.411  1.00  0.00     0.142 A 
HETATM   22  C17 UNL     1      24.148   5.598  48.912  1.00  0.00     0.059 A 
HETATM   23  C18 UNL     1      24.024   7.015  48.513  1.00  0.00    -0.024 A 
HETATM   24  C19 UNL     1      24.006   8.187  49.120  1.00  0.00    -0.001 A 
HETATM   25  C20 UNL     1      24.142   8.098  50.565  1.00  0.00     0.034 A 
HETATM   26  C21 UNL     1      24.259   6.854  50.988  1.00  0.00     0.066 A 
BRANCH  26  27
HETATM   27  O1  UNL     1      24.396   6.683  52.378  1.00  0.00    -0.363 OA
HETATM   28  H18 UNL     1      25.252   7.008  52.808  1.00  0.00     0.217 HD
ENDBRANCH  26  27
ENDBRANCH  19  21
ENDBRANCH   1  19
TORSDOF 9
ENDMDL
