MODEL 1
REMARK VINA RESULT:      -8.6      0.000      0.000
REMARK  4 active torsions:
REMARK  status: ('A' for Active; 'I' for Inactive)
REMARK    1  A    between atoms: C2_2  and  C3_3 
REMARK       I    between atoms: C3_3  and  N1_5 
REMARK    2  A    between atoms: C8_11  and  O3_12 
REMARK    3  A    between atoms: O3_12  and  C9_13 
REMARK    4  A    between atoms: C19_24  and  N3_25 
ROOT
HETATM    1  C3  UNL     1      27.563   7.988  48.054  1.00  0.00     0.242 C 
HETATM    2  O1  UNL     1      28.400   8.166  48.973  1.00  0.00    -0.268 OA
HETATM    3  N1  UNL     1      26.321   7.930  48.715  1.00  0.00    -0.347 N 
HETATM    4  C4  UNL     1      26.339   8.072  50.146  1.00  0.00     0.127 C 
HETATM    5  C5  UNL     1      25.266   7.192  50.743  1.00  0.00     0.029 C 
HETATM    6  C6  UNL     1      25.057   5.922  49.906  1.00  0.00     0.036 C 
HETATM    7  C7  UNL     1      24.164   5.037  50.698  1.00  0.00     0.184 C 
HETATM    8  O2  UNL     1      24.304   3.662  50.347  1.00  0.00    -0.330 OA
HETATM    9  C8  UNL     1      23.840   2.662  51.189  1.00  0.00     0.182 C 
HETATM   10  C15 UNL     1      23.080   1.879  51.913  1.00  0.00     0.043 C 
HETATM   11  C16 UNL     1      21.687   1.699  52.272  1.00  0.00     0.087 C 
HETATM   12  C17 UNL     1      20.722   2.626  51.617  1.00  0.00     0.019 C 
HETATM   13  N2  UNL     1      20.125   3.365  52.551  1.00  0.00    -0.308 NA
HETATM   14  C18 UNL     1      20.944   2.189  50.214  1.00  0.00     0.113 C 
HETATM   15  C19 UNL     1      20.661   2.264  48.920  1.00  0.00     0.089 C 
HETATM   16  N4  UNL     1      19.900   2.826  47.835  1.00  0.00    -0.237 NA
HETATM   17  C20 UNL     1      20.553   2.913  46.752  1.00  0.00     0.106 C 
HETATM   18  C21 UNL     1      21.844   3.084  46.802  1.00  0.00     0.151 C 
HETATM   19  N5  UNL     1      22.244   3.787  47.998  1.00  0.00    -0.254 NA
HETATM   20  C22 UNL     1      22.641   5.008  47.752  1.00  0.00     0.202 C 
HETATM   21  N6  UNL     1      23.142   6.198  48.394  1.00  0.00    -0.378 N 
HETATM   22  C23 UNL     1      24.573   6.309  48.553  1.00  0.00     0.106 C 
HETATM   23  C24 UNL     1      24.966   7.743  48.199  1.00  0.00     0.151 C 
HETATM   24  H19 UNL     1      19.418   4.068  52.251  1.00  0.00     0.186 HD
HETATM   25  H25 UNL     1      22.509   6.960  48.737  1.00  0.00     0.160 HD
ENDROOT
BRANCH   9  26
HETATM   26  O3  UNL     1      25.211   2.486  51.104  1.00  0.00    -0.288 OA
BRANCH  26  27
HETATM   27  C9  UNL     1      25.882   1.761  52.077  1.00  0.00     0.078 A 
HETATM   28  C10 UNL     1      26.374   0.555  51.630  1.00  0.00     0.037 A 
HETATM   29  C11 UNL     1      27.067  -0.297  52.456  1.00  0.00     0.003 A 
HETATM   30  C12 UNL     1      27.283   0.064  53.782  1.00  0.00     0.000 A 
HETATM   31  C13 UNL     1      26.785   1.268  54.198  1.00  0.00     0.003 A 
HETATM   32  C14 UNL     1      26.082   2.142  53.383  1.00  0.00     0.037 A 
ENDBRANCH  26  27
ENDBRANCH   9  26
BRANCH  15  33
HETATM   33  N3  UNL     1      21.653   1.263  48.714  1.00  0.00    -0.290 NA
HETATM   34  H21 UNL     1      22.573   0.878  49.010  1.00  0.00     0.125 HD
HETATM   35  H22 UNL     1      22.583   0.828  48.975  1.00  0.00     0.125 HD
ENDBRANCH  15  33
BRANCH   1  36
HETATM   36  C2  UNL     1      28.162   7.916  46.739  1.00  0.00     0.064 C 
HETATM   37  C1  UNL     1      29.346   7.349  47.002  1.00  0.00     0.017 C 
ENDBRANCH   1  36
TORSDOF 4
ENDMDL
MODEL 2
REMARK VINA RESULT:      -8.0      6.189      9.742
REMARK  4 active torsions:
REMARK  status: ('A' for Active; 'I' for Inactive)
REMARK    1  A    between atoms: C2_2  and  C3_3 
REMARK       I    between atoms: C3_3  and  N1_5 
REMARK    2  A    between atoms: C8_11  and  O3_12 
REMARK    3  A    between atoms: O3_12  and  C9_13 
REMARK    4  A    between atoms: C19_24  and  N3_25 
ROOT
HETATM    1  C3  UNL     1      34.088   4.937  46.928  1.00  0.00     0.242 C 
HETATM    2  O1  UNL     1      33.689   3.991  47.651  1.00  0.00    -0.268 OA
HETATM    3  N1  UNL     1      33.792   6.097  47.669  1.00  0.00    -0.347 N 
HETATM    4  C4  UNL     1      33.160   5.908  48.946  1.00  0.00     0.127 C 
HETATM    5  C5  UNL     1      32.188   7.039  49.188  1.00  0.00     0.029 C 
HETATM    6  C6  UNL     1      31.568   7.532  47.872  1.00  0.00     0.036 C 
HETATM    7  C7  UNL     1      30.474   8.466  48.245  1.00  0.00     0.184 C 
HETATM    8  O2  UNL     1      29.483   8.583  47.228  1.00  0.00    -0.330 OA
HETATM    9  C8  UNL     1      28.231   9.109  47.511  1.00  0.00     0.182 C 
HETATM   10  C15 UNL     1      27.249   9.904  47.855  1.00  0.00     0.043 C 
HETATM   11  C16 UNL     1      27.021  11.263  48.306  1.00  0.00     0.087 C 
HETATM   12  C17 UNL     1      28.228  12.132  48.387  1.00  0.00     0.019 C 
HETATM   13  N2  UNL     1      28.412  12.504  49.653  1.00  0.00    -0.308 NA
HETATM   14  C18 UNL     1      28.577  12.129  46.943  1.00  0.00     0.113 C 
HETATM   15  C19 UNL     1      29.343  12.530  45.937  1.00  0.00     0.089 C 
HETATM   16  N4  UNL     1      30.450  13.300  45.435  1.00  0.00    -0.237 NA
HETATM   17  C20 UNL     1      31.040  12.759  44.453  1.00  0.00     0.106 C 
HETATM   18  C21 UNL     1      31.054  11.458  44.361  1.00  0.00     0.151 C 
HETATM   19  N5  UNL     1      30.989  10.830  45.660  1.00  0.00    -0.254 NA
HETATM   20  C22 UNL     1      32.121  10.273  46.004  1.00  0.00     0.202 C 
HETATM   21  N6  UNL     1      32.750   9.526  47.063  1.00  0.00    -0.378 N 
HETATM   22  C23 UNL     1      32.646   8.087  47.009  1.00  0.00     0.106 C 
HETATM   23  C24 UNL     1      34.015   7.511  47.370  1.00  0.00     0.151 C 
HETATM   24  H19 UNL     1      29.222  13.119  49.877  1.00  0.00     0.186 HD
HETATM   25  H25 UNL     1      33.267   9.991  47.848  1.00  0.00     0.160 HD
ENDROOT
BRANCH   9  26
HETATM   26  O3  UNL     1      28.015   7.799  47.115  1.00  0.00    -0.288 OA
BRANCH  26  27
HETATM   27  C9  UNL     1      27.203   6.968  47.870  1.00  0.00     0.078 A 
HETATM   28  C10 UNL     1      27.817   5.800  48.263  1.00  0.00     0.037 A 
HETATM   29  C11 UNL     1      27.163   4.856  49.019  1.00  0.00     0.003 A 
HETATM   30  C12 UNL     1      25.846   5.082  49.403  1.00  0.00     0.000 A 
HETATM   31  C13 UNL     1      25.262   6.251  49.000  1.00  0.00     0.003 A 
HETATM   32  C14 UNL     1      25.900   7.217  48.236  1.00  0.00     0.037 A 
ENDBRANCH  26  27
ENDBRANCH   9  26
BRANCH  15  33
HETATM   33  N3  UNL     1      28.522  11.735  45.085  1.00  0.00    -0.290 NA
HETATM   34  H21 UNL     1      27.610  11.251  44.963  1.00  0.00     0.125 HD
HETATM   35  H22 UNL     1      27.611  11.227  44.907  1.00  0.00     0.125 HD
ENDBRANCH  15  33
BRANCH   1  36
HETATM   36  C2  UNL     1      34.669   4.497  45.678  1.00  0.00     0.064 C 
HETATM   37  C1  UNL     1      35.076   3.258  45.979  1.00  0.00     0.017 C 
ENDBRANCH   1  36
TORSDOF 4
ENDMDL
MODEL 3
REMARK VINA RESULT:      -7.8      2.072      2.890
REMARK  4 active torsions:
REMARK  status: ('A' for Active; 'I' for Inactive)
REMARK    1  A    between atoms: C2_2  and  C3_3 
REMARK       I    between atoms: C3_3  and  N1_5 
REMARK    2  A    between atoms: C8_11  and  O3_12 
REMARK    3  A    between atoms: O3_12  and  C9_13 
REMARK    4  A    between atoms: C19_24  and  N3_25 
ROOT
HETATM    1  C3  UNL     1      24.553   7.610  49.118  1.00  0.00     0.242 C 
HETATM    2  O1  UNL     1      25.694   7.811  49.603  1.00  0.00    -0.268 OA
HETATM    3  N1  UNL     1      23.774   7.190  50.213  1.00  0.00    -0.347 N 
HETATM    4  C4  UNL     1      24.436   7.104  51.486  1.00  0.00     0.127 C 
HETATM    5  C5  UNL     1      23.869   5.937  52.259  1.00  0.00     0.029 C 
HETATM    6  C6  UNL     1      23.442   4.800  51.319  1.00  0.00     0.036 C 
HETATM    7  C7  UNL     1      23.124   3.634  52.184  1.00  0.00     0.184 C 
HETATM    8  O2  UNL     1      23.241   2.392  51.494  1.00  0.00    -0.330 OA
HETATM    9  C8  UNL     1      23.336   1.197  52.191  1.00  0.00     0.182 C 
HETATM   10  C15 UNL     1      23.092   0.168  52.963  1.00  0.00     0.043 C 
HETATM   11  C16 UNL     1      22.054  -0.353  53.831  1.00  0.00     0.087 C 
HETATM   12  C17 UNL     1      20.797   0.444  53.891  1.00  0.00     0.019 C 
HETATM   13  N2  UNL     1      20.620   0.886  55.136  1.00  0.00    -0.308 NA
HETATM   14  C18 UNL     1      20.392   0.292  52.470  1.00  0.00     0.113 C 
HETATM   15  C19 UNL     1      19.536   0.511  51.481  1.00  0.00     0.089 C 
HETATM   16  N4  UNL     1      18.302   1.067  50.993  1.00  0.00    -0.237 NA
HETATM   17  C20 UNL     1      18.364   1.459  49.789  1.00  0.00     0.106 C 
HETATM   18  C21 UNL     1      19.504   1.885  49.319  1.00  0.00     0.151 C 
HETATM   19  N5  UNL     1      20.329   2.457  50.357  1.00  0.00    -0.254 NA
HETATM   20  C22 UNL     1      20.425   3.757  50.261  1.00  0.00     0.202 C 
HETATM   21  N6  UNL     1      21.027   4.907  50.887  1.00  0.00    -0.378 N 
HETATM   22  C23 UNL     1      22.346   5.288  50.438  1.00  0.00     0.106 C 
HETATM   23  C24 UNL     1      22.365   6.810  50.300  1.00  0.00     0.151 C 
HETATM   24  H19 UNL     1      19.780   1.464  55.343  1.00  0.00     0.186 HD
HETATM   25  H25 UNL     1      20.543   5.457  51.637  1.00  0.00     0.160 HD
ENDROOT
BRANCH   9  26
HETATM   26  O3  UNL     1      24.523   1.326  51.488  1.00  0.00    -0.288 OA
BRANCH  26  27
HETATM   27  C9  UNL     1      25.730   1.019  52.095  1.00  0.00     0.078 A 
HETATM   28  C10 UNL     1      26.336   2.096  52.702  1.00  0.00     0.037 A 
HETATM   29  C11 UNL     1      27.539   1.978  53.355  1.00  0.00     0.003 A 
HETATM   30  C12 UNL     1      28.167   0.738  53.410  1.00  0.00     0.000 A 
HETATM   31  C13 UNL     1      27.543  -0.314  52.800  1.00  0.00     0.003 A 
HETATM   32  C14 UNL     1      26.330  -0.219  52.134  1.00  0.00     0.037 A 
ENDBRANCH  26  27
ENDBRANCH   9  26
BRANCH  15  33
HETATM   33  N3  UNL     1      20.427  -0.216  50.639  1.00  0.00    -0.290 NA
HETATM   34  H21 UNL     1      21.036  -0.197  49.796  1.00  0.00     0.125 HD
HETATM   35  H22 UNL     1      21.062  -0.252  49.793  1.00  0.00     0.125 HD
ENDBRANCH  15  33
BRANCH   1  36
HETATM   36  C2  UNL     1      24.480   7.874  47.697  1.00  0.00     0.064 C 
HETATM   37  C1  UNL     1      25.737   7.637  47.303  1.00  0.00     0.017 C 
ENDBRANCH   1  36
TORSDOF 4
ENDMDL
MODEL 4
REMARK VINA RESULT:      -7.8      4.183      8.209
REMARK  4 active torsions:
REMARK  status: ('A' for Active; 'I' for Inactive)
REMARK    1  A    between atoms: C2_2  and  C3_3 
REMARK       I    between atoms: C3_3  and  N1_5 
REMARK    2  A    between atoms: C8_11  and  O3_12 
REMARK    3  A    between atoms: O3_12  and  C9_13 
REMARK    4  A    between atoms: C19_24  and  N3_25 
ROOT
HETATM    1  C3  UNL     1      14.421   3.320  52.779  1.00  0.00     0.242 C 
HETATM    2  O1  UNL     1      14.219   2.192  53.292  1.00  0.00    -0.268 OA
HETATM    3  N1  UNL     1      15.124   3.046  51.590  1.00  0.00    -0.347 N 
HETATM    4  C4  UNL     1      15.405   1.665  51.305  1.00  0.00     0.127 C 
HETATM    5  C5  UNL     1      16.753   1.565  50.629  1.00  0.00     0.029 C 
HETATM    6  C6  UNL     1      17.709   2.658  51.128  1.00  0.00     0.036 C 
HETATM    7  C7  UNL     1      19.051   2.326  50.581  1.00  0.00     0.184 C 
HETATM    8  O2  UNL     1      20.110   2.886  51.353  1.00  0.00    -0.330 OA
HETATM    9  C8  UNL     1      21.409   2.413  51.228  1.00  0.00     0.182 C 
HETATM   10  C15 UNL     1      22.591   2.090  50.767  1.00  0.00     0.043 C 
HETATM   11  C16 UNL     1      23.370   2.165  49.546  1.00  0.00     0.087 C 
HETATM   12  C17 UNL     1      22.721   2.865  48.403  1.00  0.00     0.019 C 
HETATM   13  N2  UNL     1      22.559   2.003  47.400  1.00  0.00    -0.308 NA
HETATM   14  C18 UNL     1      22.618   4.211  49.022  1.00  0.00     0.113 C 
HETATM   15  C19 UNL     1      22.283   5.493  48.955  1.00  0.00     0.089 C 
HETATM   16  N4  UNL     1      21.755   6.613  48.222  1.00  0.00    -0.237 NA
HETATM   17  C20 UNL     1      21.123   7.440  48.945  1.00  0.00     0.106 C 
HETATM   18  C21 UNL     1      20.508   7.008  50.011  1.00  0.00     0.151 C 
HETATM   19  N5  UNL     1      20.085   5.635  49.864  1.00  0.00    -0.254 NA
HETATM   20  C22 UNL     1      18.789   5.522  49.734  1.00  0.00     0.202 C 
HETATM   21  N6  UNL     1      17.739   4.549  49.562  1.00  0.00    -0.378 N 
HETATM   22  C23 UNL     1      17.156   3.989  50.759  1.00  0.00     0.106 C 
HETATM   23  C24 UNL     1      15.642   3.937  50.553  1.00  0.00     0.151 C 
HETATM   24  H19 UNL     1      22.115   2.341  46.521  1.00  0.00     0.186 HD
HETATM   25  H25 UNL     1      17.400   4.250  48.617  1.00  0.00     0.160 HD
ENDROOT
BRANCH   9  26
HETATM   26  O3  UNL     1      21.031   2.155  52.535  1.00  0.00    -0.288 OA
BRANCH  26  27
HETATM   27  C9  UNL     1      21.344   0.940  53.124  1.00  0.00     0.078 A 
HETATM   28  C10 UNL     1      20.253   0.127  53.335  1.00  0.00     0.037 A 
HETATM   29  C11 UNL     1      20.375  -1.116  53.909  1.00  0.00     0.003 A 
HETATM   30  C12 UNL     1      21.633  -1.573  54.287  1.00  0.00     0.000 A 
HETATM   31  C13 UNL     1      22.699  -0.746  54.065  1.00  0.00     0.003 A 
HETATM   32  C14 UNL     1      22.600   0.513  53.489  1.00  0.00     0.037 A 
ENDBRANCH  26  27
ENDBRANCH   9  26
BRANCH  15  33
HETATM   33  N3  UNL     1      22.739   5.612  50.300  1.00  0.00    -0.290 NA
HETATM   34  H21 UNL     1      22.475   5.700  51.302  1.00  0.00     0.125 HD
HETATM   35  H22 UNL     1      22.528   5.700  51.333  1.00  0.00     0.125 HD
ENDBRANCH  15  33
BRANCH   1  36
HETATM   36  C2  UNL     1      13.882   4.411  53.562  1.00  0.00     0.064 C 
HETATM   37  C1  UNL     1      12.593   4.403  53.203  1.00  0.00     0.017 C 
ENDBRANCH   1  36
TORSDOF 4
ENDMDL
MODEL 5
REMARK VINA RESULT:      -7.8      3.043      4.488
REMARK  4 active torsions:
REMARK  status: ('A' for Active; 'I' for Inactive)
REMARK    1  A    between atoms: C2_2  and  C3_3 
REMARK       I    between atoms: C3_3  and  N1_5 
REMARK    2  A    between atoms: C8_11  and  O3_12 
REMARK    3  A    between atoms: O3_12  and  C9_13 
REMARK    4  A    between atoms: C19_24  and  N3_25 
ROOT
HETATM    1  C3  UNL     1      25.960   3.467  50.445  1.00  0.00     0.242 C 
HETATM    2  O1  UNL     1      26.423   2.891  51.462  1.00  0.00    -0.268 OA
HETATM    3  N1  UNL     1      24.794   4.109  50.904  1.00  0.00    -0.347 N 
HETATM    4  C4  UNL     1      24.467   3.946  52.294  1.00  0.00     0.127 C 
HETATM    5  C5  UNL     1      22.965   3.881  52.444  1.00  0.00     0.029 C 
HETATM    6  C6  UNL     1      22.311   3.226  51.219  1.00  0.00     0.036 C 
HETATM    7  C7  UNL     1      20.883   3.006  51.570  1.00  0.00     0.184 C 
HETATM    8  O2  UNL     1      20.286   1.961  50.807  1.00  0.00    -0.330 OA
HETATM    9  C8  UNL     1      19.100   1.369  51.216  1.00  0.00     0.182 C 
HETATM   10  C15 UNL     1      17.854   1.151  51.551  1.00  0.00     0.043 C 
HETATM   11  C16 UNL     1      16.592   1.856  51.670  1.00  0.00     0.087 C 
HETATM   12  C17 UNL     1      16.603   3.284  51.248  1.00  0.00     0.019 C 
HETATM   13  N2  UNL     1      16.310   4.051  52.298  1.00  0.00    -0.308 NA
HETATM   14  C18 UNL     1      16.930   3.069  49.815  1.00  0.00     0.113 C 
HETATM   15  C19 UNL     1      17.145   3.540  48.594  1.00  0.00     0.089 C 
HETATM   16  N4  UNL     1      17.223   4.643  47.673  1.00  0.00    -0.237 NA
HETATM   17  C20 UNL     1      18.088   4.480  46.760  1.00  0.00     0.106 C 
HETATM   18  C21 UNL     1      19.146   3.761  47.011  1.00  0.00     0.151 C 
HETATM   19  N5  UNL     1      19.504   3.808  48.409  1.00  0.00    -0.254 NA
HETATM   20  C22 UNL     1      20.593   4.500  48.624  1.00  0.00     0.202 C 
HETATM   21  N6  UNL     1      21.478   4.942  49.672  1.00  0.00    -0.378 N 
HETATM   22  C23 UNL     1      22.574   4.069  50.022  1.00  0.00     0.106 C 
HETATM   23  C24 UNL     1      23.817   4.940  50.204  1.00  0.00     0.151 C 
HETATM   24  H19 UNL     1      16.278   5.083  52.165  1.00  0.00     0.186 HD
HETATM   25  H25 UNL     1      21.347   5.854  50.171  1.00  0.00     0.160 HD
ENDROOT
BRANCH   9  26
HETATM   26  O3  UNL     1      20.055   0.366  51.236  1.00  0.00    -0.288 OA
BRANCH  26  27
HETATM   27  C9  UNL     1      20.702   0.043  52.418  1.00  0.00     0.078 A 
HETATM   28  C10 UNL     1      21.975  -0.450  52.238  1.00  0.00     0.037 A 
HETATM   29  C11 UNL     1      22.765  -0.822  53.299  1.00  0.00     0.003 A 
HETATM   30  C12 UNL     1      22.273  -0.698  54.594  1.00  0.00     0.000 A 
HETATM   31  C13 UNL     1      21.006  -0.204  54.744  1.00  0.00     0.003 A 
HETATM   32  C14 UNL     1      20.190   0.176  53.688  1.00  0.00     0.037 A 
ENDBRANCH  26  27
ENDBRANCH   9  26
BRANCH  15  33
HETATM   33  N3  UNL     1      17.366   2.193  48.186  1.00  0.00    -0.290 NA
HETATM   34  H21 UNL     1      18.032   1.395  48.151  1.00  0.00     0.125 HD
HETATM   35  H22 UNL     1      18.001   1.348  48.124  1.00  0.00     0.125 HD
ENDBRANCH  15  33
BRANCH   1  36
HETATM   36  C2  UNL     1      26.760   3.261  49.257  1.00  0.00     0.064 C 
HETATM   37  C1  UNL     1      27.175   4.503  48.980  1.00  0.00     0.017 C 
ENDBRANCH   1  36
TORSDOF 4
ENDMDL
MODEL 6
REMARK VINA RESULT:      -7.5      3.683      6.284
REMARK  4 active torsions:
REMARK  status: ('A' for Active; 'I' for Inactive)
REMARK    1  A    between atoms: C2_2  and  C3_3 
REMARK       I    between atoms: C3_3  and  N1_5 
REMARK    2  A    between atoms: C8_11  and  O3_12 
REMARK    3  A    between atoms: O3_12  and  C9_13 
REMARK    4  A    between atoms: C19_24  and  N3_25 
ROOT
HETATM    1  C3  UNL     1      26.102   0.605  52.764  1.00  0.00     0.242 C 
HETATM    2  O1  UNL     1      25.854   0.457  53.986  1.00  0.00    -0.268 OA
HETATM    3  N1  UNL     1      25.632   1.898  52.463  1.00  0.00    -0.347 N 
HETATM    4  C4  UNL     1      25.038   2.640  53.542  1.00  0.00     0.127 C 
HETATM    5  C5  UNL     1      23.904   3.477  53.000  1.00  0.00     0.029 C 
HETATM    6  C6  UNL     1      23.213   2.781  51.818  1.00  0.00     0.036 C 
HETATM    7  C7  UNL     1      21.989   3.570  51.520  1.00  0.00     0.184 C 
HETATM    8  O2  UNL     1      20.990   2.800  50.856  1.00  0.00    -0.330 OA
HETATM    9  C8  UNL     1      19.672   3.232  50.811  1.00  0.00     0.182 C 
HETATM   10  C15 UNL     1      18.580   3.916  50.582  1.00  0.00     0.043 C 
HETATM   11  C16 UNL     1      18.146   5.138  49.932  1.00  0.00     0.087 C 
HETATM   12  C17 UNL     1      19.204   5.908  49.221  1.00  0.00     0.019 C 
HETATM   13  N2  UNL     1      19.331   7.104  49.794  1.00  0.00    -0.308 NA
HETATM   14  C18 UNL     1      19.548   4.885  48.200  1.00  0.00     0.113 C 
HETATM   15  C19 UNL     1      20.241   4.498  47.138  1.00  0.00     0.089 C 
HETATM   16  N4  UNL     1      21.216   4.765  46.113  1.00  0.00    -0.237 NA
HETATM   17  C20 UNL     1      21.881   3.742  45.768  1.00  0.00     0.106 C 
HETATM   18  C21 UNL     1      22.095   2.801  46.645  1.00  0.00     0.151 C 
HETATM   19  N5  UNL     1      22.129   3.322  47.991  1.00  0.00    -0.254 NA
HETATM   20  C22 UNL     1      23.334   3.316  48.500  1.00  0.00     0.202 C 
HETATM   21  N6  UNL     1      24.073   3.655  49.690  1.00  0.00    -0.378 N 
HETATM   22  C23 UNL     1      24.192   2.635  50.706  1.00  0.00     0.106 C 
HETATM   23  C24 UNL     1      25.633   2.654  51.213  1.00  0.00     0.151 C 
HETATM   24  H19 UNL     1      20.037   7.766  49.410  1.00  0.00     0.186 HD
HETATM   25  H25 UNL     1      24.513   4.596  49.829  1.00  0.00     0.160 HD
ENDROOT
BRANCH   9  26
HETATM   26  O3  UNL     1      19.661   2.038  51.513  1.00  0.00    -0.288 OA
BRANCH  26  27
HETATM   27  C9  UNL     1      18.701   1.077  51.237  1.00  0.00     0.078 A 
HETATM   28  C10 UNL     1      18.409   0.261  52.307  1.00  0.00     0.037 A 
HETATM   29  C11 UNL     1      17.480  -0.748  52.217  1.00  0.00     0.003 A 
HETATM   30  C12 UNL     1      16.811  -0.955  51.015  1.00  0.00     0.000 A 
HETATM   31  C13 UNL     1      17.119  -0.129  49.970  1.00  0.00     0.003 A 
HETATM   32  C14 UNL     1      18.054   0.894  50.036  1.00  0.00     0.037 A 
ENDBRANCH  26  27
ENDBRANCH   9  26
BRANCH  15  33
HETATM   33  N3  UNL     1      19.552   3.254  47.226  1.00  0.00    -0.290 NA
HETATM   34  H21 UNL     1      19.387   2.390  47.781  1.00  0.00     0.125 HD
HETATM   35  H22 UNL     1      19.345   2.357  47.749  1.00  0.00     0.125 HD
ENDBRANCH  15  33
BRANCH   1  36
HETATM   36  C2  UNL     1      26.742  -0.546  52.165  1.00  0.00     0.064 C 
HETATM   37  C1  UNL     1      27.763  -0.766  53.002  1.00  0.00     0.017 C 
ENDBRANCH   1  36
TORSDOF 4
ENDMDL
MODEL 7
REMARK VINA RESULT:      -7.3      6.587     10.227
REMARK  4 active torsions:
REMARK  status: ('A' for Active; 'I' for Inactive)
REMARK    1  A    between atoms: C2_2  and  C3_3 
REMARK       I    between atoms: C3_3  and  N1_5 
REMARK    2  A    between atoms: C8_11  and  O3_12 
REMARK    3  A    between atoms: O3_12  and  C9_13 
REMARK    4  A    between atoms: C19_24  and  N3_25 
ROOT
HETATM    1  C3  UNL     1      20.585  -0.149  53.715  1.00  0.00     0.242 C 
HETATM    2  O1  UNL     1      20.947   0.669  54.596  1.00  0.00    -0.268 OA
HETATM    3  N1  UNL     1      20.377   0.639  52.566  1.00  0.00    -0.347 N 
HETATM    4  C4  UNL     1      20.610   2.051  52.697  1.00  0.00     0.127 C 
HETATM    5  C5  UNL     1      19.615   2.798  51.840  1.00  0.00     0.029 C 
HETATM    6  C6  UNL     1      18.277   2.048  51.759  1.00  0.00     0.036 C 
HETATM    7  C7  UNL     1      17.317   2.969  51.098  1.00  0.00     0.184 C 
HETATM    8  O2  UNL     1      15.961   2.671  51.421  1.00  0.00    -0.330 OA
HETATM    9  C8  UNL     1      14.956   3.603  51.205  1.00  0.00     0.182 C 
HETATM   10  C15 UNL     1      14.112   4.437  50.652  1.00  0.00     0.043 C 
HETATM   11  C16 UNL     1      13.743   4.948  49.345  1.00  0.00     0.087 C 
HETATM   12  C17 UNL     1      14.467   4.352  48.187  1.00  0.00     0.019 C 
HETATM   13  N2  UNL     1      15.163   5.307  47.572  1.00  0.00    -0.308 NA
HETATM   14  C18 UNL     1      13.983   2.957  48.342  1.00  0.00     0.113 C 
HETATM   15  C19 UNL     1      13.931   1.697  47.929  1.00  0.00     0.089 C 
HETATM   16  N4  UNL     1      14.300   0.671  46.989  1.00  0.00    -0.237 NA
HETATM   17  C20 UNL     1      14.418  -0.477  47.513  1.00  0.00     0.106 C 
HETATM   18  C21 UNL     1      14.788  -0.569  48.760  1.00  0.00     0.151 C 
HETATM   19  N5  UNL     1      15.618   0.545  49.154  1.00  0.00    -0.254 NA
HETATM   20  C22 UNL     1      16.869   0.202  49.326  1.00  0.00     0.202 C 
HETATM   21  N6  UNL     1      18.159   0.732  49.689  1.00  0.00    -0.378 N 
HETATM   22  C23 UNL     1      18.500   0.736  51.092  1.00  0.00     0.106 C 
HETATM   23  C24 UNL     1      19.952   0.276  51.216  1.00  0.00     0.151 C 
HETATM   24  H19 UNL     1      15.727   5.049  46.736  1.00  0.00     0.186 HD
HETATM   25  H25 UNL     1      18.835   1.102  48.978  1.00  0.00     0.160 HD
ENDROOT
BRANCH   9  26
HETATM   26  O3  UNL     1      14.989   3.385  52.572  1.00  0.00    -0.288 OA
BRANCH  26  27
HETATM   27  C9  UNL     1      13.808   3.335  53.298  1.00  0.00     0.078 A 
HETATM   28  C10 UNL     1      13.259   2.076  53.379  1.00  0.00     0.037 A 
HETATM   29  C11 UNL     1      12.089   1.838  54.059  1.00  0.00     0.003 A 
HETATM   30  C12 UNL     1      11.438   2.894  54.688  1.00  0.00     0.000 A 
HETATM   31  C13 UNL     1      12.007   4.134  54.593  1.00  0.00     0.003 A 
HETATM   32  C14 UNL     1      13.185   4.398  53.910  1.00  0.00     0.037 A 
ENDBRANCH  26  27
ENDBRANCH   9  26
BRANCH  15  33
HETATM   33  N3  UNL     1      13.084   1.437  49.044  1.00  0.00    -0.290 NA
HETATM   34  H21 UNL     1      12.762   0.740  49.747  1.00  0.00     0.125 HD
HETATM   35  H22 UNL     1      12.722   0.770  49.783  1.00  0.00     0.125 HD
ENDBRANCH  15  33
BRANCH   1  36
HETATM   36  C2  UNL     1      20.523  -1.514  54.190  1.00  0.00     0.064 C 
HETATM   37  C1  UNL     1      21.799  -1.757  54.513  1.00  0.00     0.017 C 
ENDBRANCH   1  36
TORSDOF 4
ENDMDL
MODEL 8
REMARK VINA RESULT:      -7.3      2.784      7.976
REMARK  4 active torsions:
REMARK  status: ('A' for Active; 'I' for Inactive)
REMARK    1  A    between atoms: C2_2  and  C3_3 
REMARK       I    between atoms: C3_3  and  N1_5 
REMARK    2  A    between atoms: C8_11  and  O3_12 
REMARK    3  A    between atoms: O3_12  and  C9_13 
REMARK    4  A    between atoms: C19_24  and  N3_25 
ROOT
HETATM    1  C3  UNL     1      23.438   1.765  52.528  1.00  0.00     0.242 C 
HETATM    2  O1  UNL     1      22.441   1.062  52.231  1.00  0.00    -0.268 OA
HETATM    3  N1  UNL     1      22.947   3.085  52.541  1.00  0.00    -0.347 N 
HETATM    4  C4  UNL     1      21.554   3.263  52.232  1.00  0.00     0.127 C 
HETATM    5  C5  UNL     1      21.380   4.554  51.466  1.00  0.00     0.029 C 
HETATM    6  C6  UNL     1      22.605   4.851  50.589  1.00  0.00     0.036 C 
HETATM    7  C7  UNL     1      22.234   5.998  49.719  1.00  0.00     0.184 C 
HETATM    8  O2  UNL     1      23.005   6.050  48.522  1.00  0.00    -0.330 OA
HETATM    9  C8  UNL     1      22.587   6.807  47.438  1.00  0.00     0.182 C 
HETATM   10  C15 UNL     1      22.234   7.795  46.655  1.00  0.00     0.043 C 
HETATM   11  C16 UNL     1      22.080   9.237  46.681  1.00  0.00     0.087 C 
HETATM   12  C17 UNL     1      22.476   9.911  47.949  1.00  0.00     0.019 C 
HETATM   13  N2  UNL     1      21.407  10.505  48.478  1.00  0.00    -0.308 NA
HETATM   14  C18 UNL     1      23.918   9.555  47.926  1.00  0.00     0.113 C 
HETATM   15  C19 UNL     1      25.134   9.617  48.452  1.00  0.00     0.089 C 
HETATM   16  N4  UNL     1      26.035  10.090  49.469  1.00  0.00    -0.237 NA
HETATM   17  C20 UNL     1      26.966   9.273  49.740  1.00  0.00     0.106 C 
HETATM   18  C21 UNL     1      26.747   7.995  49.603  1.00  0.00     0.151 C 
HETATM   19  N5  UNL     1      25.355   7.668  49.803  1.00  0.00    -0.254 NA
HETATM   20  C22 UNL     1      25.146   7.029  50.924  1.00  0.00     0.202 C 
HETATM   21  N6  UNL     1      24.105   6.431  51.722  1.00  0.00    -0.378 N 
HETATM   22  C23 UNL     1      23.791   5.045  51.467  1.00  0.00     0.106 C 
HETATM   23  C24 UNL     1      23.614   4.355  52.819  1.00  0.00     0.151 C 
HETATM   24  H19 UNL     1      21.520  11.023  49.375  1.00  0.00     0.186 HD
HETATM   25  H25 UNL     1      23.587   6.965  52.461  1.00  0.00     0.160 HD
ENDROOT
BRANCH   9  26
HETATM   26  O3  UNL     1      22.602   5.492  47.003  1.00  0.00    -0.288 OA
BRANCH  26  27
HETATM   27  C9  UNL     1      21.513   4.970  46.323  1.00  0.00     0.078 A 
HETATM   28  C10 UNL     1      21.782   4.644  45.013  1.00  0.00     0.037 A 
HETATM   29  C11 UNL     1      20.821   4.113  44.186  1.00  0.00     0.003 A 
HETATM   30  C12 UNL     1      19.539   3.895  44.682  1.00  0.00     0.000 A 
HETATM   31  C13 UNL     1      19.301   4.227  45.986  1.00  0.00     0.003 A 
HETATM   32  C14 UNL     1      20.254   4.765  46.838  1.00  0.00     0.037 A 
ENDBRANCH  26  27
ENDBRANCH   9  26
BRANCH  15  33
HETATM   33  N3  UNL     1      25.570   8.797  47.371  1.00  0.00    -0.290 NA
HETATM   34  H21 UNL     1      26.379   8.442  46.823  1.00  0.00     0.125 HD
HETATM   35  H22 UNL     1      26.355   8.403  46.781  1.00  0.00     0.125 HD
ENDBRANCH  15  33
BRANCH   1  36
HETATM   36  C2  UNL     1      24.643   0.992  52.734  1.00  0.00     0.064 C 
HETATM   37  C1  UNL     1      24.168  -0.122  53.304  1.00  0.00     0.017 C 
ENDBRANCH   1  36
TORSDOF 4
ENDMDL
MODEL 9
REMARK VINA RESULT:      -7.3     24.493     27.156
REMARK  4 active torsions:
REMARK  status: ('A' for Active; 'I' for Inactive)
REMARK    1  A    between atoms: C2_2  and  C3_3 
REMARK       I    between atoms: C3_3  and  N1_5 
REMARK    2  A    between atoms: C8_11  and  O3_12 
REMARK    3  A    between atoms: O3_12  and  C9_13 
REMARK    4  A    between atoms: C19_24  and  N3_25 
ROOT
HETATM    1  C3  UNL     1      37.792   4.496  72.840  1.00  0.00     0.242 C 
HETATM    2  O1  UNL     1      38.402   5.083  73.767  1.00  0.00    -0.268 OA
HETATM    3  N1  UNL     1      38.147   3.141  72.988  1.00  0.00    -0.347 N 
HETATM    4  C4  UNL     1      39.040   2.817  74.067  1.00  0.00     0.127 C 
HETATM    5  C5  UNL     1      39.954   1.696  73.631  1.00  0.00     0.029 C 
HETATM    6  C6  UNL     1      40.251   1.771  72.127  1.00  0.00     0.036 C 
HETATM    7  C7  UNL     1      41.325   0.779  71.859  1.00  0.00     0.184 C 
HETATM    8  O2  UNL     1      42.075   1.087  70.686  1.00  0.00    -0.330 OA
HETATM    9  C8  UNL     1      43.315   0.508  70.462  1.00  0.00     0.182 C 
HETATM   10  C15 UNL     1      44.284  -0.346  70.246  1.00  0.00     0.043 C 
HETATM   11  C16 UNL     1      44.498  -1.770  70.072  1.00  0.00     0.087 C 
HETATM   12  C17 UNL     1      43.271  -2.615  70.071  1.00  0.00     0.019 C 
HETATM   13  N2  UNL     1      43.324  -3.460  71.100  1.00  0.00    -0.308 NA
HETATM   14  C18 UNL     1      42.634  -2.046  68.856  1.00  0.00     0.113 C 
HETATM   15  C19 UNL     1      41.650  -2.025  67.966  1.00  0.00     0.089 C 
HETATM   16  N4  UNL     1      40.409  -2.548  67.460  1.00  0.00    -0.237 NA
HETATM   17  C20 UNL     1      39.672  -1.670  66.920  1.00  0.00     0.106 C 
HETATM   18  C21 UNL     1      39.737  -0.439  67.346  1.00  0.00     0.151 C 
HETATM   19  N5  UNL     1      40.114  -0.375  68.738  1.00  0.00    -0.254 NA
HETATM   20  C22 UNL     1      39.122  -0.014  69.510  1.00  0.00     0.202 C 
HETATM   21  N6  UNL     1      38.782   0.245  70.886  1.00  0.00    -0.378 N 
HETATM   22  C23 UNL     1      38.980   1.589  71.374  1.00  0.00     0.106 C 
HETATM   23  C24 UNL     1      37.763   1.958  72.220  1.00  0.00     0.151 C 
HETATM   24  H19 UNL     1      42.533  -4.123  71.238  1.00  0.00     0.186 HD
HETATM   25  H25 UNL     1      38.404  -0.499  71.521  1.00  0.00     0.160 HD
ENDROOT
BRANCH   9  26
HETATM   26  O3  UNL     1      43.542   1.870  70.569  1.00  0.00    -0.288 OA
BRANCH  26  27
HETATM   27  C9  UNL     1      43.927   2.602  69.457  1.00  0.00     0.078 A 
HETATM   28  C10 UNL     1      43.957   3.962  69.670  1.00  0.00     0.037 A 
HETATM   29  C11 UNL     1      44.316   4.843  68.678  1.00  0.00     0.003 A 
HETATM   30  C12 UNL     1      44.661   4.354  67.423  1.00  0.00     0.000 A 
HETATM   31  C13 UNL     1      44.624   3.000  67.240  1.00  0.00     0.003 A 
HETATM   32  C14 UNL     1      44.263   2.092  68.224  1.00  0.00     0.037 A 
ENDBRANCH  26  27
ENDBRANCH   9  26
BRANCH  15  33
HETATM   33  N3  UNL     1      42.335  -0.948  67.333  1.00  0.00    -0.290 NA
HETATM   34  H21 UNL     1      42.515  -0.434  66.447  1.00  0.00     0.125 HD
HETATM   35  H22 UNL     1      42.552  -0.388  66.462  1.00  0.00     0.125 HD
ENDBRANCH  15  33
BRANCH   1  36
HETATM   36  C2  UNL     1      37.002   5.387  72.019  1.00  0.00     0.064 C 
HETATM   37  C1  UNL     1      37.663   5.356  70.855  1.00  0.00     0.017 C 
ENDBRANCH   1  36
TORSDOF 4
ENDMDL
