MODEL 1
REMARK VINA RESULT:      -8.4      0.000      0.000
REMARK  5 active torsions:
REMARK  status: ('A' for Active; 'I' for Inactive)
REMARK    1  A    between atoms: O1_2  and  C2_3 
REMARK    2  A    between atoms: C10_12  and  N2_13 
REMARK    3  A    between atoms: N2_13  and  C11_14 
REMARK    4  A    between atoms: C11_14  and  C12_15 
REMARK    5  A    between atoms: C13_16  and  C14_17 
ROOT
HETATM    1  C2  UNL     1      20.648  -0.621  53.552  1.00  0.00     0.069 A 
HETATM    2  C3  UNL     1      21.384  -1.282  54.529  1.00  0.00     0.039 A 
HETATM    3  C4  UNL     1      22.744  -1.060  54.585  1.00  0.00     0.040 A 
HETATM    4  C5  UNL     1      23.371  -0.213  53.709  1.00  0.00     0.086 A 
HETATM    5  C6  UNL     1      22.690   0.470  52.719  1.00  0.00    -0.004 A 
HETATM    6  C7  UNL     1      21.313   0.225  52.686  1.00  0.00     0.048 A 
HETATM    7  C8  UNL     1      23.042   1.414  51.658  1.00  0.00     0.161 C 
HETATM    8  N1  UNL     1      24.219   2.224  51.952  1.00  0.00    -0.379 N 
HETATM    9  C9  UNL     1      25.485   1.746  52.448  1.00  0.00     0.128 A 
HETATM   10  C10 UNL     1      26.521   2.497  51.916  1.00  0.00     0.156 A 
HETATM   11  N3  UNL     1      27.749   2.135  52.329  1.00  0.00    -0.222 NA
HETATM   12  C16 UNL     1      27.968   1.126  53.189  1.00  0.00     0.238 A 
HETATM   13  N4  UNL     1      26.970   0.388  53.711  1.00  0.00    -0.215 NA
HETATM   14  C17 UNL     1      25.689   0.689  53.346  1.00  0.00     0.202 A 
HETATM   15  O2  UNL     1      24.737  -0.143  53.950  1.00  0.00    -0.289 OA
HETATM   16  H9  UNL     1      24.288   3.281  51.837  1.00  0.00     0.160 HD
ENDROOT
BRANCH  10  17
HETATM   17  N2  UNL     1      26.361   3.556  51.002  1.00  0.00    -0.369 N 
HETATM   18  H10 UNL     1      26.133   4.556  51.116  1.00  0.00     0.161 HD
BRANCH  17  19
HETATM   19  C11 UNL     1      26.529   3.251  49.600  1.00  0.00     0.148 C 
BRANCH  19  20
HETATM   20  C12 UNL     1      27.214   4.404  48.952  1.00  0.00    -0.010 C 
HETATM   21  C13 UNL     1      26.821   5.665  48.790  1.00  0.00    -0.010 C 
BRANCH  21  22
HETATM   22  C14 UNL     1      27.655   6.692  48.106  1.00  0.00     0.100 C 
HETATM   23  C15 UNL     1      27.584   7.961  48.912  1.00  0.00     0.031 C 
HETATM   24 CL1  UNL     1      29.336   6.096  48.104  1.00  0.00    -0.121 Cl
ENDBRANCH  21  22
ENDBRANCH  19  20
ENDBRANCH  17  19
ENDBRANCH  10  17
BRANCH   1  25
HETATM   25  O1  UNL     1      19.275  -0.782  53.420  1.00  0.00    -0.356 OA
HETATM   26  C1  UNL     1      18.646  -0.269  52.235  1.00  0.00     0.210 C 
ENDBRANCH   1  25
TORSDOF 5
ENDMDL
MODEL 2
REMARK VINA RESULT:      -7.5      2.709      4.636
REMARK  5 active torsions:
REMARK  status: ('A' for Active; 'I' for Inactive)
REMARK    1  A    between atoms: O1_2  and  C2_3 
REMARK    2  A    between atoms: C10_12  and  N2_13 
REMARK    3  A    between atoms: N2_13  and  C11_14 
REMARK    4  A    between atoms: C11_14  and  C12_15 
REMARK    5  A    between atoms: C13_16  and  C14_17 
ROOT
HETATM    1  C2  UNL     1      27.074  -1.027  53.111  1.00  0.00     0.069 A 
HETATM    2  C3  UNL     1      25.752  -1.393  53.339  1.00  0.00     0.039 A 
HETATM    3  C4  UNL     1      24.769  -0.447  53.137  1.00  0.00     0.040 A 
HETATM    4  C5  UNL     1      25.069   0.825  52.722  1.00  0.00     0.086 A 
HETATM    5  C6  UNL     1      26.364   1.242  52.480  1.00  0.00    -0.004 A 
HETATM    6  C7  UNL     1      27.339   0.262  52.693  1.00  0.00     0.048 A 
HETATM    7  C8  UNL     1      27.007   2.482  52.045  1.00  0.00     0.161 C 
HETATM    8  N1  UNL     1      26.163   3.325  51.206  1.00  0.00    -0.379 N 
HETATM    9  C9  UNL     1      24.795   3.697  51.468  1.00  0.00     0.128 A 
HETATM   10  C10 UNL     1      24.553   4.983  51.011  1.00  0.00     0.156 A 
HETATM   11  N3  UNL     1      23.295   5.420  51.200  1.00  0.00    -0.222 NA
HETATM   12  C16 UNL     1      22.339   4.680  51.785  1.00  0.00     0.238 A 
HETATM   13  N4  UNL     1      22.562   3.431  52.234  1.00  0.00    -0.215 NA
HETATM   14  C17 UNL     1      23.813   2.906  52.082  1.00  0.00     0.202 A 
HETATM   15  O2  UNL     1      23.927   1.604  52.586  1.00  0.00    -0.289 OA
HETATM   16  H9  UNL     1      26.454   3.773  50.285  1.00  0.00     0.160 HD
ENDROOT
BRANCH  10  17
HETATM   17  N2  UNL     1      25.512   5.815  50.403  1.00  0.00    -0.369 N 
HETATM   18  H10 UNL     1      26.350   6.299  50.758  1.00  0.00     0.161 HD
BRANCH  17  19
HETATM   19  C11 UNL     1      25.348   6.097  48.995  1.00  0.00     0.148 C 
BRANCH  19  20
HETATM   20  C12 UNL     1      26.653   6.577  48.461  1.00  0.00    -0.010 C 
HETATM   21  C13 UNL     1      27.831   5.966  48.380  1.00  0.00    -0.010 C 
BRANCH  21  22
HETATM   22  C14 UNL     1      29.043   6.616  47.806  1.00  0.00     0.100 C 
HETATM   23  C15 UNL     1      29.302   7.881  48.580  1.00  0.00     0.031 C 
HETATM   24 CL1  UNL     1      30.410   5.496  48.046  1.00  0.00    -0.121 Cl
ENDBRANCH  21  22
ENDBRANCH  19  20
ENDBRANCH  17  19
ENDBRANCH  10  17
BRANCH   1  25
HETATM   25  O1  UNL     1      28.130  -1.913  53.287  1.00  0.00    -0.356 OA
HETATM   26  C1  UNL     1      29.447  -1.367  53.460  1.00  0.00     0.210 C 
ENDBRANCH   1  25
TORSDOF 5
ENDMDL
MODEL 3
REMARK VINA RESULT:      -7.5      3.845      6.993
REMARK  5 active torsions:
REMARK  status: ('A' for Active; 'I' for Inactive)
REMARK    1  A    between atoms: O1_2  and  C2_3 
REMARK    2  A    between atoms: C10_12  and  N2_13 
REMARK    3  A    between atoms: N2_13  and  C11_14 
REMARK    4  A    between atoms: C11_14  and  C12_15 
REMARK    5  A    between atoms: C13_16  and  C14_17 
ROOT
HETATM    1  C2  UNL     1      24.324   4.408  49.879  1.00  0.00     0.069 A 
HETATM    2  C3  UNL     1      25.586   4.310  49.302  1.00  0.00     0.039 A 
HETATM    3  C4  UNL     1      26.555   3.591  49.969  1.00  0.00     0.040 A 
HETATM    4  C5  UNL     1      26.299   2.982  51.171  1.00  0.00     0.086 A 
HETATM    5  C6  UNL     1      25.065   3.047  51.789  1.00  0.00    -0.004 A 
HETATM    6  C7  UNL     1      24.102   3.782  51.090  1.00  0.00     0.048 A 
HETATM    7  C8  UNL     1      24.478   2.531  53.026  1.00  0.00     0.161 C 
HETATM    8  N1  UNL     1      25.087   1.294  53.501  1.00  0.00    -0.379 N 
HETATM    9  C9  UNL     1      26.499   1.028  53.629  1.00  0.00     0.128 A 
HETATM   10  C10 UNL     1      26.734   0.213  54.725  1.00  0.00     0.156 A 
HETATM   11  N3  UNL     1      28.027  -0.102  54.924  1.00  0.00    -0.222 NA
HETATM   12  C16 UNL     1      29.020   0.332  54.131  1.00  0.00     0.238 A 
HETATM   13  N4  UNL     1      28.804   1.125  53.065  1.00  0.00    -0.215 NA
HETATM   14  C17 UNL     1      27.519   1.494  52.788  1.00  0.00     0.202 A 
HETATM   15  O2  UNL     1      27.416   2.317  51.658  1.00  0.00    -0.289 OA
HETATM   16  H9  UNL     1      24.560   0.422  53.812  1.00  0.00     0.160 HD
ENDROOT
BRANCH  10  17
HETATM   17  N2  UNL     1      25.742  -0.264  55.601  1.00  0.00    -0.369 N 
HETATM   18  H10 UNL     1      25.407   0.052  56.525  1.00  0.00     0.161 HD
BRANCH  17  19
HETATM   19  C11 UNL     1      25.005  -1.437  55.192  1.00  0.00     0.148 C 
BRANCH  19  20
HETATM   20  C12 UNL     1      23.550  -1.140  55.315  1.00  0.00    -0.010 C 
HETATM   21  C13 UNL     1      22.655  -0.804  54.390  1.00  0.00    -0.010 C 
BRANCH  21  22
HETATM   22  C14 UNL     1      21.223  -0.541  54.707  1.00  0.00     0.100 C 
HETATM   23  C15 UNL     1      20.792   0.676  53.934  1.00  0.00     0.031 C 
HETATM   24 CL1  UNL     1      20.287  -1.951  54.145  1.00  0.00    -0.121 Cl
ENDBRANCH  21  22
ENDBRANCH  19  20
ENDBRANCH  17  19
ENDBRANCH  10  17
BRANCH   1  25
HETATM   25  O1  UNL     1      23.286   5.110  49.279  1.00  0.00    -0.356 OA
HETATM   26  C1  UNL     1      23.595   5.927  48.138  1.00  0.00     0.210 C 
ENDBRANCH   1  25
TORSDOF 5
ENDMDL
MODEL 4
REMARK VINA RESULT:      -7.5      3.804      5.355
REMARK  5 active torsions:
REMARK  status: ('A' for Active; 'I' for Inactive)
REMARK    1  A    between atoms: O1_2  and  C2_3 
REMARK    2  A    between atoms: C10_12  and  N2_13 
REMARK    3  A    between atoms: N2_13  and  C11_14 
REMARK    4  A    between atoms: C11_14  and  C12_15 
REMARK    5  A    between atoms: C13_16  and  C14_17 
ROOT
HETATM    1  C2  UNL     1      16.623  -0.159  51.126  1.00  0.00     0.069 A 
HETATM    2  C3  UNL     1      16.351  -0.837  52.309  1.00  0.00     0.039 A 
HETATM    3  C4  UNL     1      17.406  -1.138  53.146  1.00  0.00     0.040 A 
HETATM    4  C5  UNL     1      18.694  -0.787  52.835  1.00  0.00     0.086 A 
HETATM    5  C6  UNL     1      19.021  -0.113  51.674  1.00  0.00    -0.004 A 
HETATM    6  C7  UNL     1      17.933   0.180  50.845  1.00  0.00     0.048 A 
HETATM    7  C8  UNL     1      20.249   0.393  51.061  1.00  0.00     0.161 C 
HETATM    8  N1  UNL     1      21.292   0.740  52.019  1.00  0.00    -0.379 N 
HETATM    9  C9  UNL     1      21.744  -0.070  53.123  1.00  0.00     0.128 A 
HETATM   10  C10 UNL     1      23.103   0.109  53.323  1.00  0.00     0.156 A 
HETATM   11  N3  UNL     1      23.620  -0.599  54.343  1.00  0.00    -0.222 NA
HETATM   12  C16 UNL     1      22.889  -1.419  55.114  1.00  0.00     0.238 A 
HETATM   13  N4  UNL     1      21.568  -1.603  54.929  1.00  0.00    -0.215 NA
HETATM   14  C17 UNL     1      20.960  -0.922  53.915  1.00  0.00     0.202 A 
HETATM   15  O2  UNL     1      19.588  -1.191  53.818  1.00  0.00    -0.289 OA
HETATM   16  H9  UNL     1      21.853   1.645  52.025  1.00  0.00     0.160 HD
ENDROOT
BRANCH  10  17
HETATM   17  N2  UNL     1      23.928   0.942  52.543  1.00  0.00    -0.369 N 
HETATM   18  H10 UNL     1      24.280   0.877  51.576  1.00  0.00     0.161 HD
BRANCH  17  19
HETATM   19  C11 UNL     1      24.428   2.148  53.164  1.00  0.00     0.148 C 
BRANCH  19  20
HETATM   20  C12 UNL     1      25.899   2.002  53.347  1.00  0.00    -0.010 C 
HETATM   21  C13 UNL     1      26.703   0.970  53.103  1.00  0.00    -0.010 C 
BRANCH  21  22
HETATM   22  C14 UNL     1      28.171   1.010  53.353  1.00  0.00     0.100 C 
HETATM   23  C15 UNL     1      28.564   2.445  53.584  1.00  0.00     0.031 C 
HETATM   24 CL1  UNL     1      28.481   0.075  54.840  1.00  0.00    -0.121 Cl
ENDBRANCH  21  22
ENDBRANCH  19  20
ENDBRANCH  17  19
ENDBRANCH  10  17
BRANCH   1  25
HETATM   25  O1  UNL     1      15.626   0.188  50.223  1.00  0.00    -0.356 OA
HETATM   26  C1  UNL     1      14.280  -0.216  50.518  1.00  0.00     0.210 C 
ENDBRANCH   1  25
TORSDOF 5
ENDMDL
MODEL 5
REMARK VINA RESULT:      -7.4      2.377      2.742
REMARK  5 active torsions:
REMARK  status: ('A' for Active; 'I' for Inactive)
REMARK    1  A    between atoms: O1_2  and  C2_3 
REMARK    2  A    between atoms: C10_12  and  N2_13 
REMARK    3  A    between atoms: N2_13  and  C11_14 
REMARK    4  A    between atoms: C11_14  and  C12_15 
REMARK    5  A    between atoms: C13_16  and  C14_17 
ROOT
HETATM    1  C2  UNL     1      19.896  -0.654  53.478  1.00  0.00     0.069 A 
HETATM    2  C3  UNL     1      20.545  -1.645  54.208  1.00  0.00     0.039 A 
HETATM    3  C4  UNL     1      21.923  -1.639  54.234  1.00  0.00     0.040 A 
HETATM    4  C5  UNL     1      22.651  -0.690  53.564  1.00  0.00     0.086 A 
HETATM    5  C6  UNL     1      22.060   0.316  52.824  1.00  0.00    -0.004 A 
HETATM    6  C7  UNL     1      20.661   0.286  52.816  1.00  0.00     0.048 A 
HETATM    7  C8  UNL     1      22.526   1.445  52.019  1.00  0.00     0.161 C 
HETATM    8  N1  UNL     1      23.819   1.976  52.434  1.00  0.00    -0.379 N 
HETATM    9  C9  UNL     1      25.009   1.211  52.713  1.00  0.00     0.128 A 
HETATM   10  C10 UNL     1      26.135   1.921  52.325  1.00  0.00     0.156 A 
HETATM   11  N3  UNL     1      27.302   1.293  52.555  1.00  0.00    -0.222 NA
HETATM   12  C16 UNL     1      27.385   0.074  53.114  1.00  0.00     0.238 A 
HETATM   13  N4  UNL     1      26.299  -0.625  53.493  1.00  0.00    -0.215 NA
HETATM   14  C17 UNL     1      25.071  -0.062  53.297  1.00  0.00     0.202 A 
HETATM   15  O2  UNL     1      24.017  -0.879  53.729  1.00  0.00    -0.289 OA
HETATM   16  H9  UNL     1      24.047   3.005  52.588  1.00  0.00     0.160 HD
ENDROOT
BRANCH  10  17
HETATM   17  N2  UNL     1      26.117   3.193  51.722  1.00  0.00    -0.369 N 
HETATM   18  H10 UNL     1      26.029   4.149  52.099  1.00  0.00     0.161 HD
BRANCH  17  19
HETATM   19  C11 UNL     1      26.232   3.245  50.283  1.00  0.00     0.148 C 
BRANCH  19  20
HETATM   20  C12 UNL     1      24.858   3.249  49.707  1.00  0.00    -0.010 C 
HETATM   21  C13 UNL     1      24.206   4.193  49.032  1.00  0.00    -0.010 C 
BRANCH  21  22
HETATM   22  C14 UNL     1      22.815   4.013  48.528  1.00  0.00     0.100 C 
HETATM   23  C15 UNL     1      22.668   2.588  48.067  1.00  0.00     0.031 C 
HETATM   24 CL1  UNL     1      21.713   4.299  49.901  1.00  0.00    -0.121 Cl
ENDBRANCH  21  22
ENDBRANCH  19  20
ENDBRANCH  17  19
ENDBRANCH  10  17
BRANCH   1  25
HETATM   25  O1  UNL     1      18.511  -0.580  53.396  1.00  0.00    -0.356 OA
HETATM   26  C1  UNL     1      17.918  -0.466  52.094  1.00  0.00     0.210 C 
ENDBRANCH   1  25
TORSDOF 5
ENDMDL
MODEL 6
REMARK VINA RESULT:      -7.3      4.367      8.977
REMARK  5 active torsions:
REMARK  status: ('A' for Active; 'I' for Inactive)
REMARK    1  A    between atoms: O1_2  and  C2_3 
REMARK    2  A    between atoms: C10_12  and  N2_13 
REMARK    3  A    between atoms: N2_13  and  C11_14 
REMARK    4  A    between atoms: C11_14  and  C12_15 
REMARK    5  A    between atoms: C13_16  and  C14_17 
ROOT
HETATM    1  C2  UNL     1      29.647   6.481  47.695  1.00  0.00     0.069 A 
HETATM    2  C3  UNL     1      29.187   7.790  47.777  1.00  0.00     0.039 A 
HETATM    3  C4  UNL     1      27.943   8.012  48.330  1.00  0.00     0.040 A 
HETATM    4  C5  UNL     1      27.167   6.981  48.792  1.00  0.00     0.086 A 
HETATM    5  C6  UNL     1      27.574   5.661  48.736  1.00  0.00    -0.004 A 
HETATM    6  C7  UNL     1      28.839   5.466  48.170  1.00  0.00     0.048 A 
HETATM    7  C8  UNL     1      27.011   4.368  49.125  1.00  0.00     0.161 C 
HETATM    8  N1  UNL     1      26.076   4.440  50.242  1.00  0.00    -0.379 N 
HETATM    9  C9  UNL     1      24.984   5.371  50.386  1.00  0.00     0.128 A 
HETATM   10  C10 UNL     1      23.918   4.762  51.030  1.00  0.00     0.156 A 
HETATM   11  N3  UNL     1      22.849   5.555  51.222  1.00  0.00    -0.222 NA
HETATM   12  C16 UNL     1      22.804   6.837  50.825  1.00  0.00     0.238 A 
HETATM   13  N4  UNL     1      23.831   7.439  50.198  1.00  0.00    -0.215 NA
HETATM   14  C17 UNL     1      24.959   6.707  49.962  1.00  0.00     0.202 A 
HETATM   15  O2  UNL     1      25.959   7.436  49.305  1.00  0.00    -0.289 OA
HETATM   16  H9  UNL     1      26.085   3.810  51.100  1.00  0.00     0.160 HD
ENDROOT
BRANCH  10  17
HETATM   17  N2  UNL     1      23.897   3.421  51.457  1.00  0.00    -0.369 N 
HETATM   18  H10 UNL     1      23.795   2.524  50.958  1.00  0.00     0.161 HD
BRANCH  17  19
HETATM   19  C11 UNL     1      24.031   3.176  52.875  1.00  0.00     0.148 C 
BRANCH  19  20
HETATM   20  C12 UNL     1      24.933   2.005  53.062  1.00  0.00    -0.010 C 
HETATM   21  C13 UNL     1      24.653   0.725  53.291  1.00  0.00    -0.010 C 
BRANCH  21  22
HETATM   22  C14 UNL     1      25.705  -0.318  53.453  1.00  0.00     0.100 C 
HETATM   23  C15 UNL     1      26.602  -0.264  52.245  1.00  0.00     0.031 C 
HETATM   24 CL1  UNL     1      26.653   0.106  54.903  1.00  0.00    -0.121 Cl
ENDBRANCH  21  22
ENDBRANCH  19  20
ENDBRANCH  17  19
ENDBRANCH  10  17
BRANCH   1  25
HETATM   25  O1  UNL     1      30.887   6.162  47.155  1.00  0.00    -0.356 OA
HETATM   26  C1  UNL     1      31.742   5.284  47.903  1.00  0.00     0.210 C 
ENDBRANCH   1  25
TORSDOF 5
ENDMDL
MODEL 7
REMARK VINA RESULT:      -7.2      3.874      7.789
REMARK  5 active torsions:
REMARK  status: ('A' for Active; 'I' for Inactive)
REMARK    1  A    between atoms: O1_2  and  C2_3 
REMARK    2  A    between atoms: C10_12  and  N2_13 
REMARK    3  A    between atoms: N2_13  and  C11_14 
REMARK    4  A    between atoms: C11_14  and  C12_15 
REMARK    5  A    between atoms: C13_16  and  C14_17 
ROOT
HETATM    1  C2  UNL     1      25.697   6.061  49.023  1.00  0.00     0.069 A 
HETATM    2  C3  UNL     1      26.863   5.401  48.653  1.00  0.00     0.039 A 
HETATM    3  C4  UNL     1      27.141   4.185  49.244  1.00  0.00     0.040 A 
HETATM    4  C5  UNL     1      26.301   3.629  50.173  1.00  0.00     0.086 A 
HETATM    5  C6  UNL     1      25.130   4.241  50.578  1.00  0.00    -0.004 A 
HETATM    6  C7  UNL     1      24.874   5.471  49.963  1.00  0.00     0.048 A 
HETATM    7  C8  UNL     1      24.049   3.931  51.514  1.00  0.00     0.161 C 
HETATM    8  N1  UNL     1      23.834   2.504  51.720  1.00  0.00    -0.379 N 
HETATM    9  C9  UNL     1      24.848   1.516  51.996  1.00  0.00     0.128 A 
HETATM   10  C10 UNL     1      24.349   0.543  52.848  1.00  0.00     0.156 A 
HETATM   11  N3  UNL     1      25.220  -0.433  53.158  1.00  0.00    -0.222 NA
HETATM   12  C16 UNL     1      26.477  -0.475  52.686  1.00  0.00     0.238 A 
HETATM   13  N4  UNL     1      26.973   0.464  51.860  1.00  0.00    -0.215 NA
HETATM   14  C17 UNL     1      26.156   1.494  51.492  1.00  0.00     0.202 A 
HETATM   15  O2  UNL     1      26.779   2.408  50.632  1.00  0.00    -0.289 OA
HETATM   16  H9  UNL     1      22.892   2.007  51.690  1.00  0.00     0.160 HD
ENDROOT
BRANCH  10  17
HETATM   17  N2  UNL     1      23.049   0.536  53.387  1.00  0.00    -0.369 N 
HETATM   18  H10 UNL     1      22.421   1.283  53.720  1.00  0.00     0.161 HD
BRANCH  17  19
HETATM   19  C11 UNL     1      22.403  -0.748  53.541  1.00  0.00     0.148 C 
BRANCH  19  20
HETATM   20  C12 UNL     1      20.941  -0.562  53.325  1.00  0.00    -0.010 C 
HETATM   21  C13 UNL     1      20.284   0.084  52.365  1.00  0.00    -0.010 C 
BRANCH  21  22
HETATM   22  C14 UNL     1      18.797   0.163  52.314  1.00  0.00     0.100 C 
HETATM   23  C15 UNL     1      18.382   0.176  50.867  1.00  0.00     0.031 C 
HETATM   24 CL1  UNL     1      18.160  -1.312  53.089  1.00  0.00    -0.121 Cl
ENDBRANCH  21  22
ENDBRANCH  19  20
ENDBRANCH  17  19
ENDBRANCH  10  17
BRANCH   1  25
HETATM   25  O1  UNL     1      25.335   7.288  48.481  1.00  0.00    -0.356 OA
HETATM   26  C1  UNL     1      26.073   7.768  47.347  1.00  0.00     0.210 C 
ENDBRANCH   1  25
TORSDOF 5
ENDMDL
MODEL 8
REMARK VINA RESULT:      -7.0      4.313      9.120
REMARK  5 active torsions:
REMARK  status: ('A' for Active; 'I' for Inactive)
REMARK    1  A    between atoms: O1_2  and  C2_3 
REMARK    2  A    between atoms: C10_12  and  N2_13 
REMARK    3  A    between atoms: N2_13  and  C11_14 
REMARK    4  A    between atoms: C11_14  and  C12_15 
REMARK    5  A    between atoms: C13_16  and  C14_17 
ROOT
HETATM    1  C2  UNL     1      28.793   6.494  47.693  1.00  0.00     0.069 A 
HETATM    2  C3  UNL     1      28.012   7.642  47.605  1.00  0.00     0.039 A 
HETATM    3  C4  UNL     1      26.753   7.619  48.168  1.00  0.00     0.040 A 
HETATM    4  C5  UNL     1      26.268   6.504  48.800  1.00  0.00     0.086 A 
HETATM    5  C6  UNL     1      27.000   5.338  48.917  1.00  0.00    -0.004 A 
HETATM    6  C7  UNL     1      28.273   5.390  48.338  1.00  0.00     0.048 A 
HETATM    7  C8  UNL     1      26.788   4.016  49.508  1.00  0.00     0.161 C 
HETATM    8  N1  UNL     1      25.867   4.012  50.637  1.00  0.00    -0.379 N 
HETATM    9  C9  UNL     1      24.572   4.645  50.689  1.00  0.00     0.128 A 
HETATM   10  C10 UNL     1      23.699   3.887  51.453  1.00  0.00     0.156 A 
HETATM   11  N3  UNL     1      22.462   4.401  51.571  1.00  0.00    -0.222 NA
HETATM   12  C16 UNL     1      22.089   5.558  50.998  1.00  0.00     0.238 A 
HETATM   13  N4  UNL     1      22.927   6.302  50.253  1.00  0.00    -0.215 NA
HETATM   14  C17 UNL     1      24.205   5.853  50.080  1.00  0.00     0.202 A 
HETATM   15  O2  UNL     1      24.984   6.708  49.289  1.00  0.00    -0.289 OA
HETATM   16  H9  UNL     1      26.038   3.538  51.576  1.00  0.00     0.160 HD
ENDROOT
BRANCH  10  17
HETATM   17  N2  UNL     1      24.023   2.662  52.068  1.00  0.00    -0.369 N 
HETATM   18  H10 UNL     1      24.659   2.408  52.838  1.00  0.00     0.161 HD
BRANCH  17  19
HETATM   19  C11 UNL     1      23.373   1.475  51.560  1.00  0.00     0.148 C 
BRANCH  19  20
HETATM   20  C12 UNL     1      22.552   0.890  52.656  1.00  0.00    -0.010 C 
HETATM   21  C13 UNL     1      22.884   0.047  53.631  1.00  0.00    -0.010 C 
BRANCH  21  22
HETATM   22  C14 UNL     1      21.911  -0.435  54.651  1.00  0.00     0.100 C 
HETATM   23  C15 UNL     1      20.625   0.324  54.463  1.00  0.00     0.031 C 
HETATM   24 CL1  UNL     1      21.619  -2.165  54.330  1.00  0.00    -0.121 Cl
ENDBRANCH  21  22
ENDBRANCH  19  20
ENDBRANCH  17  19
ENDBRANCH  10  17
BRANCH   1  25
HETATM   25  O1  UNL     1      30.073   6.425  47.157  1.00  0.00    -0.356 OA
HETATM   26  C1  UNL     1      31.120   5.884  47.978  1.00  0.00     0.210 C 
ENDBRANCH   1  25
TORSDOF 5
ENDMDL
MODEL 9
REMARK VINA RESULT:      -7.0      1.659      1.988
REMARK  5 active torsions:
REMARK  status: ('A' for Active; 'I' for Inactive)
REMARK    1  A    between atoms: O1_2  and  C2_3 
REMARK    2  A    between atoms: C10_12  and  N2_13 
REMARK    3  A    between atoms: N2_13  and  C11_14 
REMARK    4  A    between atoms: C11_14  and  C12_15 
REMARK    5  A    between atoms: C13_16  and  C14_17 
ROOT
HETATM    1  C2  UNL     1      19.578   0.863  51.397  1.00  0.00     0.069 A 
HETATM    2  C3  UNL     1      19.946  -0.071  52.360  1.00  0.00     0.039 A 
HETATM    3  C4  UNL     1      21.282  -0.184  52.683  1.00  0.00     0.040 A 
HETATM    4  C5  UNL     1      22.236   0.596  52.082  1.00  0.00     0.086 A 
HETATM    5  C6  UNL     1      21.928   1.539  51.120  1.00  0.00    -0.004 A 
HETATM    6  C7  UNL     1      20.566   1.632  50.813  1.00  0.00     0.048 A 
HETATM    7  C8  UNL     1      22.676   2.501  50.310  1.00  0.00     0.161 C 
HETATM    8  N1  UNL     1      23.909   2.967  50.932  1.00  0.00    -0.379 N 
HETATM    9  C9  UNL     1      24.921   2.146  51.548  1.00  0.00     0.128 A 
HETATM   10  C10 UNL     1      26.177   2.693  51.335  1.00  0.00     0.156 A 
HETATM   11  N3  UNL     1      27.192   2.003  51.883  1.00  0.00    -0.222 NA
HETATM   12  C16 UNL     1      27.018   0.870  52.584  1.00  0.00     0.238 A 
HETATM   13  N4  UNL     1      25.804   0.329  52.797  1.00  0.00    -0.215 NA
HETATM   14  C17 UNL     1      24.715   0.965  52.276  1.00  0.00     0.202 A 
HETATM   15  O2  UNL     1      23.509   0.311  52.560  1.00  0.00    -0.289 OA
HETATM   16  H9  UNL     1      24.218   3.984  51.011  1.00  0.00     0.160 HD
ENDROOT
BRANCH  10  17
HETATM   17  N2  UNL     1      26.429   3.867  50.599  1.00  0.00    -0.369 N 
HETATM   18  H10 UNL     1      26.370   4.870  50.832  1.00  0.00     0.161 HD
BRANCH  17  19
HETATM   19  C11 UNL     1      26.851   3.710  49.226  1.00  0.00     0.148 C 
BRANCH  19  20
HETATM   20  C12 UNL     1      27.478   4.986  48.784  1.00  0.00    -0.010 C 
HETATM   21  C13 UNL     1      26.926   6.143  48.428  1.00  0.00    -0.010 C 
BRANCH  21  22
HETATM   22  C14 UNL     1      27.726   7.328  48.008  1.00  0.00     0.100 C 
HETATM   23  C15 UNL     1      29.016   6.830  47.411  1.00  0.00     0.031 C 
HETATM   24 CL1  UNL     1      26.793   8.180  46.750  1.00  0.00    -0.121 Cl
ENDBRANCH  21  22
ENDBRANCH  19  20
ENDBRANCH  17  19
ENDBRANCH  10  17
BRANCH   1  25
HETATM   25  O1  UNL     1      18.257   1.048  51.009  1.00  0.00    -0.356 OA
HETATM   26  C1  UNL     1      18.009   1.648  49.728  1.00  0.00     0.210 C 
ENDBRANCH   1  25
TORSDOF 5
ENDMDL
