MODEL 1
REMARK VINA RESULT:      -7.0      0.000      0.000
REMARK  6 active torsions:
REMARK  status: ('A' for Active; 'I' for Inactive)
REMARK    1  A    between atoms: C2_2  and  C3_3 
REMARK    2  A    between atoms: C3_3  and  P1_4 
REMARK    3  A    between atoms: P1_4  and  C4_5 
REMARK    4  A    between atoms: N1_10  and  C9_11 
REMARK    5  A    between atoms: C9_11  and  C10_12 
REMARK    6  A    between atoms: C15_18  and  C16_19 
ROOT
HETATM    1  C4  UNL     1      24.526   4.570  49.777  1.00  0.00     0.140 C 
HETATM    2  C5  UNL     1      25.872   4.690  49.081  1.00  0.00    -0.001 C 
HETATM    3  C6  UNL     1      26.713   3.676  49.517  1.00  0.00    -0.027 C 
HETATM    4  C7  UNL     1      26.345   2.694  50.474  1.00  0.00     0.057 C 
HETATM    5  C8  UNL     1      26.875   2.231  51.743  1.00  0.00     0.277 C 
HETATM    6  N1  UNL     1      25.854   1.287  52.191  1.00  0.00     0.105 NA
HETATM    7  C15 UNL     1      24.515   1.663  52.244  1.00  0.00     0.281 C 
HETATM    8  C17 UNL     1      23.551   1.629  51.197  1.00  0.00     0.028 C 
HETATM    9  C18 UNL     1      23.070   2.154  50.032  1.00  0.00     0.082 C 
HETATM   10  N3  UNL     1      23.938   3.265  49.687  1.00  0.00    -0.387 N 
HETATM   11  H22 UNL     1      24.367   2.780  48.839  1.00  0.00     0.160 HD
ENDROOT
BRANCH   6  12
HETATM   12  C9  UNL     1      26.297   0.804  53.475  1.00  0.00     0.332 C 
BRANCH  12  13
HETATM   13  C10 UNL     1      27.314  -0.276  53.378  1.00  0.00     0.062 A 
HETATM   14  C11 UNL     1      28.660  -0.213  53.656  1.00  0.00     0.029 A 
HETATM   15  C12 UNL     1      29.477  -1.304  53.518  1.00  0.00     0.003 A 
HETATM   16  C13 UNL     1      28.961  -2.507  53.091  1.00  0.00     0.019 A 
HETATM   17  C14 UNL     1      27.613  -2.521  52.826  1.00  0.00     0.117 A 
HETATM   18  N2  UNL     1      26.816  -1.454  52.962  1.00  0.00    -0.264 NA
ENDBRANCH  12  13
ENDBRANCH   6  12
BRANCH   7  19
HETATM   19  C16 UNL     1      24.269   2.899  53.106  1.00  0.00     0.431 C 
HETATM   20  O1  UNL     1      23.825   4.039  53.112  1.00  0.00    -0.428 OA
ENDBRANCH   7  19
BRANCH   1  21
HETATM   21  P1  UNL     1      23.375   5.638  48.735  1.00  0.00    -0.032 P 
BRANCH  21  22
HETATM   22  C3  UNL     1      21.758   5.539  49.103  1.00  0.00     0.013 C 
BRANCH  22  23
HETATM   23  C2  UNL     1      21.454   5.662  50.543  1.00  0.00    -0.009 C 
HETATM   24  C1  UNL     1      20.836   4.739  51.257  1.00  0.00     0.011 C 
ENDBRANCH  22  23
ENDBRANCH  21  22
ENDBRANCH   1  21
TORSDOF 6
ENDMDL
MODEL 2
REMARK VINA RESULT:      -6.9      1.347      1.996
REMARK  6 active torsions:
REMARK  status: ('A' for Active; 'I' for Inactive)
REMARK    1  A    between atoms: C2_2  and  C3_3 
REMARK    2  A    between atoms: C3_3  and  P1_4 
REMARK    3  A    between atoms: P1_4  and  C4_5 
REMARK    4  A    between atoms: N1_10  and  C9_11 
REMARK    5  A    between atoms: C9_11  and  C10_12 
REMARK    6  A    between atoms: C15_18  and  C16_19 
ROOT
HETATM    1  C4  UNL     1      24.648   4.760  49.761  1.00  0.00     0.140 C 
HETATM    2  C5  UNL     1      26.005   4.855  49.085  1.00  0.00    -0.001 C 
HETATM    3  C6  UNL     1      26.813   3.812  49.514  1.00  0.00    -0.027 C 
HETATM    4  C7  UNL     1      26.406   2.824  50.450  1.00  0.00     0.057 C 
HETATM    5  C8  UNL     1      26.906   2.327  51.718  1.00  0.00     0.277 C 
HETATM    6  N1  UNL     1      25.855   1.403  52.137  1.00  0.00     0.105 NA
HETATM    7  C15 UNL     1      24.526   1.815  52.178  1.00  0.00     0.281 C 
HETATM    8  C17 UNL     1      23.575   1.824  51.119  1.00  0.00     0.028 C 
HETATM    9  C18 UNL     1      23.124   2.381  49.957  1.00  0.00     0.082 C 
HETATM   10  N3  UNL     1      24.026   3.473  49.642  1.00  0.00    -0.387 N 
HETATM   11  H22 UNL     1      24.453   2.990  48.792  1.00  0.00     0.160 HD
ENDROOT
BRANCH   6  12
HETATM   12  C9  UNL     1      26.268   0.888  53.418  1.00  0.00     0.332 C 
BRANCH  12  13
HETATM   13  C10 UNL     1      27.248  -0.225  53.316  1.00  0.00     0.062 A 
HETATM   14  C11 UNL     1      28.579  -0.231  53.664  1.00  0.00     0.029 A 
HETATM   15  C12 UNL     1      29.360  -1.346  53.510  1.00  0.00     0.003 A 
HETATM   16  C13 UNL     1      28.822  -2.504  52.996  1.00  0.00     0.019 A 
HETATM   17  C14 UNL     1      27.490  -2.450  52.663  1.00  0.00     0.117 A 
HETATM   18  N2  UNL     1      26.728  -1.361  52.815  1.00  0.00    -0.264 NA
ENDBRANCH  12  13
ENDBRANCH   6  12
BRANCH   7  19
HETATM   19  C16 UNL     1      24.301   3.042  53.058  1.00  0.00     0.431 C 
HETATM   20  O1  UNL     1      23.764   4.140  53.122  1.00  0.00    -0.428 OA
ENDBRANCH   7  19
BRANCH   1  21
HETATM   21  P1  UNL     1      23.539   5.875  48.723  1.00  0.00    -0.032 P 
BRANCH  21  22
HETATM   22  C3  UNL     1      24.096   7.419  48.462  1.00  0.00     0.013 C 
BRANCH  22  23
HETATM   23  C2  UNL     1      24.579   7.666  47.089  1.00  0.00    -0.009 C 
HETATM   24  C1  UNL     1      25.773   8.144  46.792  1.00  0.00     0.011 C 
ENDBRANCH  22  23
ENDBRANCH  21  22
ENDBRANCH   1  21
TORSDOF 6
ENDMDL
MODEL 3
REMARK VINA RESULT:      -6.7      3.521      6.268
REMARK  6 active torsions:
REMARK  status: ('A' for Active; 'I' for Inactive)
REMARK    1  A    between atoms: C2_2  and  C3_3 
REMARK    2  A    between atoms: C3_3  and  P1_4 
REMARK    3  A    between atoms: P1_4  and  C4_5 
REMARK    4  A    between atoms: N1_10  and  C9_11 
REMARK    5  A    between atoms: C9_11  and  C10_12 
REMARK    6  A    between atoms: C15_18  and  C16_19 
ROOT
HETATM    1  C4  UNL     1      21.441   1.503  51.130  1.00  0.00     0.140 C 
HETATM    2  C5  UNL     1      21.102   1.071  49.713  1.00  0.00    -0.001 C 
HETATM    3  C6  UNL     1      21.953   1.703  48.817  1.00  0.00    -0.027 C 
HETATM    4  C7  UNL     1      22.973   2.615  49.199  1.00  0.00     0.057 C 
HETATM    5  C8  UNL     1      23.324   3.981  48.857  1.00  0.00     0.277 C 
HETATM    6  N1  UNL     1      24.423   4.268  49.776  1.00  0.00     0.105 NA
HETATM    7  C15 UNL     1      24.279   4.049  51.143  1.00  0.00     0.281 C 
HETATM    8  C17 UNL     1      24.488   2.841  51.867  1.00  0.00     0.028 C 
HETATM    9  C18 UNL     1      24.065   1.584  52.191  1.00  0.00     0.082 C 
HETATM   10  N3  UNL     1      22.828   1.361  51.467  1.00  0.00    -0.387 N 
HETATM   11  H22 UNL     1      23.243   0.632  50.807  1.00  0.00     0.160 HD
ENDROOT
BRANCH   6  12
HETATM   12  C9  UNL     1      24.809   5.633  49.518  1.00  0.00     0.332 C 
BRANCH  12  13
HETATM   13  C10 UNL     1      26.205   5.766  49.026  1.00  0.00     0.062 A 
HETATM   14  C11 UNL     1      27.151   4.782  48.854  1.00  0.00     0.029 A 
HETATM   15  C12 UNL     1      28.408   5.063  48.386  1.00  0.00     0.003 A 
HETATM   16  C13 UNL     1      28.757   6.357  48.072  1.00  0.00     0.019 A 
HETATM   17  C14 UNL     1      27.780   7.305  48.259  1.00  0.00     0.117 A 
HETATM   18  N2  UNL     1      26.553   7.029  48.716  1.00  0.00    -0.264 NA
ENDBRANCH  12  13
ENDBRANCH   6  12
BRANCH   7  19
HETATM   19  C16 UNL     1      23.093   4.793  51.752  1.00  0.00     0.431 C 
HETATM   20  O1  UNL     1      22.067   4.670  52.407  1.00  0.00    -0.428 OA
ENDBRANCH   7  19
BRANCH   1  21
HETATM   21  P1  UNL     1      20.596   0.216  52.216  1.00  0.00    -0.032 P 
BRANCH  21  22
HETATM   22  C3  UNL     1      20.648   0.496  53.853  1.00  0.00     0.013 C 
BRANCH  22  23
HETATM   23  C2  UNL     1      21.597  -0.366  54.586  1.00  0.00    -0.009 C 
HETATM   24  C1  UNL     1      21.618  -1.684  54.513  1.00  0.00     0.011 C 
ENDBRANCH  22  23
ENDBRANCH  21  22
ENDBRANCH   1  21
TORSDOF 6
ENDMDL
MODEL 4
REMARK VINA RESULT:      -6.4      3.020      6.461
REMARK  6 active torsions:
REMARK  status: ('A' for Active; 'I' for Inactive)
REMARK    1  A    between atoms: C2_2  and  C3_3 
REMARK    2  A    between atoms: C3_3  and  P1_4 
REMARK    3  A    between atoms: P1_4  and  C4_5 
REMARK    4  A    between atoms: N1_10  and  C9_11 
REMARK    5  A    between atoms: C9_11  and  C10_12 
REMARK    6  A    between atoms: C15_18  and  C16_19 
ROOT
HETATM    1  C4  UNL     1      24.542   0.941  52.202  1.00  0.00     0.140 C 
HETATM    2  C5  UNL     1      25.973   0.434  52.255  1.00  0.00    -0.001 C 
HETATM    3  C6  UNL     1      26.825   1.386  51.713  1.00  0.00    -0.027 C 
HETATM    4  C7  UNL     1      26.392   2.635  51.192  1.00  0.00     0.057 C 
HETATM    5  C8  UNL     1      26.529   3.334  49.928  1.00  0.00     0.277 C 
HETATM    6  N1  UNL     1      25.682   4.509  50.119  1.00  0.00     0.105 NA
HETATM    7  C15 UNL     1      24.365   4.370  50.545  1.00  0.00     0.281 C 
HETATM    8  C17 UNL     1      23.878   4.268  51.879  1.00  0.00     0.028 C 
HETATM    9  C18 UNL     1      23.733   3.529  53.018  1.00  0.00     0.082 C 
HETATM   10  N3  UNL     1      24.365   2.248  52.765  1.00  0.00    -0.387 N 
HETATM   11  H22 UNL     1      25.174   2.415  53.441  1.00  0.00     0.160 HD
ENDROOT
BRANCH   6  12
HETATM   12  C9  UNL     1      25.741   5.246  48.881  1.00  0.00     0.332 C 
BRANCH  12  13
HETATM   13  C10 UNL     1      26.638   6.429  48.943  1.00  0.00     0.062 A 
HETATM   14  C11 UNL     1      27.818   6.647  48.271  1.00  0.00     0.029 A 
HETATM   15  C12 UNL     1      28.540   7.800  48.434  1.00  0.00     0.003 A 
HETATM   16  C13 UNL     1      28.093   8.783  49.288  1.00  0.00     0.019 A 
HETATM   17  C14 UNL     1      26.910   8.521  49.937  1.00  0.00     0.117 A 
HETATM   18  N2  UNL     1      26.206   7.394  49.776  1.00  0.00    -0.264 NA
ENDBRANCH  12  13
ENDBRANCH   6  12
BRANCH   7  19
HETATM   19  C16 UNL     1      23.530   3.464  49.643  1.00  0.00     0.431 C 
HETATM   20  O1  UNL     1      22.817   2.471  49.610  1.00  0.00    -0.428 OA
ENDBRANCH   7  19
BRANCH   1  21
HETATM   21  P1  UNL     1      23.614  -0.179  53.400  1.00  0.00    -0.032 P 
BRANCH  21  22
HETATM   22  C3  UNL     1      22.044  -0.540  52.994  1.00  0.00     0.013 C 
BRANCH  22  23
HETATM   23  C2  UNL     1      21.534   0.201  51.823  1.00  0.00    -0.009 C 
HETATM   24  C1  UNL     1      20.262   0.259  51.473  1.00  0.00     0.011 C 
ENDBRANCH  22  23
ENDBRANCH  21  22
ENDBRANCH   1  21
TORSDOF 6
ENDMDL
MODEL 5
REMARK VINA RESULT:      -6.2      2.547      7.405
REMARK  6 active torsions:
REMARK  status: ('A' for Active; 'I' for Inactive)
REMARK    1  A    between atoms: C2_2  and  C3_3 
REMARK    2  A    between atoms: C3_3  and  P1_4 
REMARK    3  A    between atoms: P1_4  and  C4_5 
REMARK    4  A    between atoms: N1_10  and  C9_11 
REMARK    5  A    between atoms: C9_11  and  C10_12 
REMARK    6  A    between atoms: C15_18  and  C16_19 
ROOT
HETATM    1  C4  UNL     1      26.590   1.280  53.734  1.00  0.00     0.140 C 
HETATM    2  C5  UNL     1      26.218  -0.111  54.220  1.00  0.00    -0.001 C 
HETATM    3  C6  UNL     1      24.969  -0.459  53.724  1.00  0.00    -0.027 C 
HETATM    4  C7  UNL     1      24.181   0.383  52.894  1.00  0.00     0.057 C 
HETATM    5  C8  UNL     1      22.835   0.922  52.945  1.00  0.00     0.277 C 
HETATM    6  N1  UNL     1      22.807   1.820  51.793  1.00  0.00     0.105 NA
HETATM    7  C15 UNL     1      23.796   2.786  51.623  1.00  0.00     0.281 C 
HETATM    8  C17 UNL     1      25.070   2.642  51.005  1.00  0.00     0.028 C 
HETATM    9  C18 UNL     1      26.344   2.153  51.052  1.00  0.00     0.082 C 
HETATM   10  N3  UNL     1      26.474   1.452  52.315  1.00  0.00    -0.387 N 
HETATM   11  H22 UNL     1      26.534   0.484  51.871  1.00  0.00     0.160 HD
ENDROOT
BRANCH   6  12
HETATM   12  C9  UNL     1      21.499   2.426  51.794  1.00  0.00     0.332 C 
BRANCH  12  13
HETATM   13  C10 UNL     1      20.990   2.727  50.430  1.00  0.00     0.062 A 
HETATM   14  C11 UNL     1      20.921   1.895  49.337  1.00  0.00     0.029 A 
HETATM   15  C12 UNL     1      20.421   2.321  48.135  1.00  0.00     0.003 A 
HETATM   16  C13 UNL     1      19.968   3.613  47.992  1.00  0.00     0.019 A 
HETATM   17  C14 UNL     1      20.057   4.407  49.111  1.00  0.00     0.117 A 
HETATM   18  N2  UNL     1      20.546   3.989  50.284  1.00  0.00    -0.264 NA
ENDBRANCH  12  13
ENDBRANCH   6  12
BRANCH   7  19
HETATM   19  C16 UNL     1      23.927   3.730  52.816  1.00  0.00     0.431 C 
HETATM   20  O1  UNL     1      23.712   4.865  53.219  1.00  0.00    -0.428 OA
ENDBRANCH   7  19
BRANCH   1  21
HETATM   21  P1  UNL     1      28.447   1.389  54.035  1.00  0.00    -0.032 P 
BRANCH  21  22
HETATM   22  C3  UNL     1      29.189  -0.012  54.532  1.00  0.00     0.013 C 
BRANCH  22  23
HETATM   23  C2  UNL     1      29.703  -0.851  53.431  1.00  0.00    -0.009 C 
HETATM   24  C1  UNL     1      29.366  -2.113  53.234  1.00  0.00     0.011 C 
ENDBRANCH  22  23
ENDBRANCH  21  22
ENDBRANCH   1  21
TORSDOF 6
ENDMDL
MODEL 6
REMARK VINA RESULT:      -6.2      2.881      4.062
REMARK  6 active torsions:
REMARK  status: ('A' for Active; 'I' for Inactive)
REMARK    1  A    between atoms: C2_2  and  C3_3 
REMARK    2  A    between atoms: C3_3  and  P1_4 
REMARK    3  A    between atoms: P1_4  and  C4_5 
REMARK    4  A    between atoms: N1_10  and  C9_11 
REMARK    5  A    between atoms: C9_11  and  C10_12 
REMARK    6  A    between atoms: C15_18  and  C16_19 
ROOT
HETATM    1  C4  UNL     1      20.898   2.205  51.758  1.00  0.00     0.140 C 
HETATM    2  C5  UNL     1      20.803   1.032  52.719  1.00  0.00    -0.001 C 
HETATM    3  C6  UNL     1      22.062   0.744  53.228  1.00  0.00    -0.027 C 
HETATM    4  C7  UNL     1      23.242   1.454  52.878  1.00  0.00     0.057 C 
HETATM    5  C8  UNL     1      24.544   1.102  52.343  1.00  0.00     0.277 C 
HETATM    6  N1  UNL     1      25.164   2.407  52.126  1.00  0.00     0.105 NA
HETATM    7  C15 UNL     1      24.503   3.393  51.398  1.00  0.00     0.281 C 
HETATM    8  C17 UNL     1      23.551   4.342  51.866  1.00  0.00     0.028 C 
HETATM    9  C18 UNL     1      22.287   4.612  52.306  1.00  0.00     0.082 C 
HETATM   10  N3  UNL     1      21.568   3.352  52.301  1.00  0.00    -0.387 N 
HETATM   11  H22 UNL     1      21.506   3.282  53.364  1.00  0.00     0.160 HD
ENDROOT
BRANCH   6  12
HETATM   12  C9  UNL     1      26.462   2.140  51.558  1.00  0.00     0.332 C 
BRANCH  12  13
HETATM   13  C10 UNL     1      27.445   1.634  52.551  1.00  0.00     0.062 A 
HETATM   14  C11 UNL     1      28.228   2.352  53.425  1.00  0.00     0.029 A 
HETATM   15  C12 UNL     1      29.095   1.737  54.289  1.00  0.00     0.003 A 
HETATM   16  C13 UNL     1      29.203   0.364  54.304  1.00  0.00     0.019 A 
HETATM   17  C14 UNL     1      28.401  -0.310  53.414  1.00  0.00     0.117 A 
HETATM   18  N2  UNL     1      27.554   0.293  52.571  1.00  0.00    -0.264 NA
ENDBRANCH  12  13
ENDBRANCH   6  12
BRANCH   7  19
HETATM   19  C16 UNL     1      24.105   2.942  49.995  1.00  0.00     0.431 C 
HETATM   20  O1  UNL     1      23.213   2.953  49.158  1.00  0.00    -0.428 OA
ENDBRANCH   7  19
BRANCH   1  21
HETATM   21  P1  UNL     1      19.116   2.791  51.572  1.00  0.00    -0.032 P 
BRANCH  21  22
HETATM   22  C3  UNL     1      18.308   2.250  50.226  1.00  0.00     0.013 C 
BRANCH  22  23
HETATM   23  C2  UNL     1      18.333   0.783  50.050  1.00  0.00    -0.009 C 
HETATM   24  C1  UNL     1      17.579  -0.062  50.727  1.00  0.00     0.011 C 
ENDBRANCH  22  23
ENDBRANCH  21  22
ENDBRANCH   1  21
TORSDOF 6
ENDMDL
MODEL 7
REMARK VINA RESULT:      -6.1      2.546      3.138
REMARK  6 active torsions:
REMARK  status: ('A' for Active; 'I' for Inactive)
REMARK    1  A    between atoms: C2_2  and  C3_3 
REMARK    2  A    between atoms: C3_3  and  P1_4 
REMARK    3  A    between atoms: P1_4  and  C4_5 
REMARK    4  A    between atoms: N1_10  and  C9_11 
REMARK    5  A    between atoms: C9_11  and  C10_12 
REMARK    6  A    between atoms: C15_18  and  C16_19 
ROOT
HETATM    1  C4  UNL     1      20.976   3.377  51.576  1.00  0.00     0.140 C 
HETATM    2  C5  UNL     1      22.026   4.474  51.506  1.00  0.00    -0.001 C 
HETATM    3  C6  UNL     1      23.277   3.938  51.775  1.00  0.00    -0.027 C 
HETATM    4  C7  UNL     1      23.509   2.569  52.074  1.00  0.00     0.057 C 
HETATM    5  C8  UNL     1      24.134   1.835  53.158  1.00  0.00     0.277 C 
HETATM    6  N1  UNL     1      23.850   0.445  52.809  1.00  0.00     0.105 NA
HETATM    7  C15 UNL     1      22.549   0.037  52.530  1.00  0.00     0.281 C 
HETATM    8  C17 UNL     1      21.856   0.097  51.287  1.00  0.00     0.028 C 
HETATM    9  C18 UNL     1      21.227   0.844  50.333  1.00  0.00     0.082 C 
HETATM   10  N3  UNL     1      21.285   2.223  50.781  1.00  0.00    -0.387 N 
HETATM   11  H22 UNL     1      21.967   2.533  50.021  1.00  0.00     0.160 HD
ENDROOT
BRANCH   6  12
HETATM   12  C9  UNL     1      24.417  -0.353  53.867  1.00  0.00     0.332 C 
BRANCH  12  13
HETATM   13  C10 UNL     1      25.901  -0.422  53.821  1.00  0.00     0.062 A 
HETATM   14  C11 UNL     1      26.706  -0.897  52.812  1.00  0.00     0.029 A 
HETATM   15  C12 UNL     1      28.072  -0.894  52.917  1.00  0.00     0.003 A 
HETATM   16  C13 UNL     1      28.679  -0.408  54.053  1.00  0.00     0.019 A 
HETATM   17  C14 UNL     1      27.834   0.056  55.033  1.00  0.00     0.117 A 
HETATM   18  N2  UNL     1      26.500   0.053  54.928  1.00  0.00    -0.264 NA
ENDBRANCH  12  13
ENDBRANCH   6  12
BRANCH   7  19
HETATM   19  C16 UNL     1      21.566   0.335  53.659  1.00  0.00     0.431 C 
HETATM   20  O1  UNL     1      20.501   0.866  53.942  1.00  0.00    -0.428 OA
ENDBRANCH   7  19
BRANCH   1  21
HETATM   21  P1  UNL     1      19.479   4.118  50.703  1.00  0.00    -0.032 P 
BRANCH  21  22
HETATM   22  C3  UNL     1      19.792   5.361  49.647  1.00  0.00     0.013 C 
BRANCH  22  23
HETATM   23  C2  UNL     1      19.969   4.935  48.244  1.00  0.00    -0.009 C 
HETATM   24  C1  UNL     1      21.018   4.273  47.791  1.00  0.00     0.011 C 
ENDBRANCH  22  23
ENDBRANCH  21  22
ENDBRANCH   1  21
TORSDOF 6
ENDMDL
MODEL 8
REMARK VINA RESULT:      -6.1      2.370      3.763
REMARK  6 active torsions:
REMARK  status: ('A' for Active; 'I' for Inactive)
REMARK    1  A    between atoms: C2_2  and  C3_3 
REMARK    2  A    between atoms: C3_3  and  P1_4 
REMARK    3  A    between atoms: P1_4  and  C4_5 
REMARK    4  A    between atoms: N1_10  and  C9_11 
REMARK    5  A    between atoms: C9_11  and  C10_12 
REMARK    6  A    between atoms: C15_18  and  C16_19 
ROOT
HETATM    1  C4  UNL     1      20.820   2.802  51.495  1.00  0.00     0.140 C 
HETATM    2  C5  UNL     1      20.547   1.619  52.409  1.00  0.00    -0.001 C 
HETATM    3  C6  UNL     1      21.746   1.140  52.920  1.00  0.00    -0.027 C 
HETATM    4  C7  UNL     1      23.018   1.691  52.612  1.00  0.00     0.057 C 
HETATM    5  C8  UNL     1      24.267   1.181  52.078  1.00  0.00     0.277 C 
HETATM    6  N1  UNL     1      25.066   2.394  51.918  1.00  0.00     0.105 NA
HETATM    7  C15 UNL     1      24.560   3.488  51.221  1.00  0.00     0.281 C 
HETATM    8  C17 UNL     1      23.741   4.543  51.715  1.00  0.00     0.028 C 
HETATM    9  C18 UNL     1      22.520   4.970  52.151  1.00  0.00     0.082 C 
HETATM   10  N3  UNL     1      21.633   3.823  52.089  1.00  0.00    -0.387 N 
HETATM   11  H22 UNL     1      21.545   3.724  53.148  1.00  0.00     0.160 HD
ENDROOT
BRANCH   6  12
HETATM   12  C9  UNL     1      26.323   1.970  51.355  1.00  0.00     0.332 C 
BRANCH  12  13
HETATM   13  C10 UNL     1      27.285   1.472  52.373  1.00  0.00     0.062 A 
HETATM   14  C11 UNL     1      27.464   0.186  52.827  1.00  0.00     0.029 A 
HETATM   15  C12 UNL     1      28.400  -0.120  53.779  1.00  0.00     0.003 A 
HETATM   16  C13 UNL     1      29.197   0.869  54.310  1.00  0.00     0.019 A 
HETATM   17  C14 UNL     1      28.982   2.137  53.826  1.00  0.00     0.117 A 
HETATM   18  N2  UNL     1      28.067   2.434  52.896  1.00  0.00    -0.264 NA
ENDBRANCH  12  13
ENDBRANCH   6  12
BRANCH   7  19
HETATM   19  C16 UNL     1      24.127   3.149  49.797  1.00  0.00     0.431 C 
HETATM   20  O1  UNL     1      23.268   3.330  48.945  1.00  0.00    -0.428 OA
ENDBRANCH   7  19
BRANCH   1  21
HETATM   21  P1  UNL     1      19.140   3.636  51.312  1.00  0.00    -0.032 P 
BRANCH  21  22
HETATM   22  C3  UNL     1      18.768   4.201  49.794  1.00  0.00     0.013 C 
BRANCH  22  23
HETATM   23  C2  UNL     1      19.088   5.627  49.583  1.00  0.00    -0.009 C 
HETATM   24  C1  UNL     1      20.295   6.089  49.309  1.00  0.00     0.011 C 
ENDBRANCH  22  23
ENDBRANCH  21  22
ENDBRANCH   1  21
TORSDOF 6
ENDMDL
MODEL 9
REMARK VINA RESULT:      -6.0      2.546      7.687
REMARK  6 active torsions:
REMARK  status: ('A' for Active; 'I' for Inactive)
REMARK    1  A    between atoms: C2_2  and  C3_3 
REMARK    2  A    between atoms: C3_3  and  P1_4 
REMARK    3  A    between atoms: P1_4  and  C4_5 
REMARK    4  A    between atoms: N1_10  and  C9_11 
REMARK    5  A    between atoms: C9_11  and  C10_12 
REMARK    6  A    between atoms: C15_18  and  C16_19 
ROOT
HETATM    1  C4  UNL     1      25.511   2.096  52.874  1.00  0.00     0.140 C 
HETATM    2  C5  UNL     1      24.649   0.884  53.184  1.00  0.00    -0.001 C 
HETATM    3  C6  UNL     1      23.609   0.805  52.268  1.00  0.00    -0.027 C 
HETATM    4  C7  UNL     1      23.405   1.736  51.215  1.00  0.00     0.057 C 
HETATM    5  C8  UNL     1      22.313   2.586  50.780  1.00  0.00     0.277 C 
HETATM    6  N1  UNL     1      22.921   3.361  49.701  1.00  0.00     0.105 NA
HETATM    7  C15 UNL     1      24.118   4.042  49.906  1.00  0.00     0.281 C 
HETATM    8  C17 UNL     1      25.445   3.542  49.788  1.00  0.00     0.028 C 
HETATM    9  C18 UNL     1      26.452   2.768  50.289  1.00  0.00     0.082 C 
HETATM   10  N3  UNL     1      25.948   2.168  51.509  1.00  0.00    -0.387 N 
HETATM   11  H22 UNL     1      25.909   1.179  51.111  1.00  0.00     0.160 HD
ENDROOT
BRANCH   6  12
HETATM   12  C9  UNL     1      21.897   4.261  49.233  1.00  0.00     0.332 C 
BRANCH  12  13
HETATM   13  C10 UNL     1      21.899   4.438  47.758  1.00  0.00     0.062 A 
HETATM   14  C11 UNL     1      21.801   3.477  46.779  1.00  0.00     0.029 A 
HETATM   15  C12 UNL     1      21.817   3.798  45.447  1.00  0.00     0.003 A 
HETATM   16  C13 UNL     1      21.932   5.112  45.052  1.00  0.00     0.019 A 
HETATM   17  C14 UNL     1      22.026   6.036  46.065  1.00  0.00     0.117 A 
HETATM   18  N2  UNL     1      22.010   5.720  47.365  1.00  0.00    -0.264 NA
ENDBRANCH  12  13
ENDBRANCH   6  12
BRANCH   7  19
HETATM   19  C16 UNL     1      24.060   5.027  51.071  1.00  0.00     0.431 C 
HETATM   20  O1  UNL     1      24.060   6.211  51.379  1.00  0.00    -0.428 OA
ENDBRANCH   7  19
BRANCH   1  21
HETATM   21  P1  UNL     1      27.106   1.781  53.825  1.00  0.00    -0.032 P 
BRANCH  21  22
HETATM   22  C3  UNL     1      27.396   0.204  54.262  1.00  0.00     0.013 C 
BRANCH  22  23
HETATM   23  C2  UNL     1      28.823  -0.119  54.458  1.00  0.00    -0.009 C 
HETATM   24  C1  UNL     1      29.552  -0.825  53.612  1.00  0.00     0.011 C 
ENDBRANCH  22  23
ENDBRANCH  21  22
ENDBRANCH   1  21
TORSDOF 6
ENDMDL
