MODEL 1
REMARK VINA RESULT:      -7.5      0.000      0.000
REMARK  7 active torsions:
REMARK  status: ('A' for Active; 'I' for Inactive)
REMARK    1  A    between atoms: C3_4  and  N2_5 
REMARK    2  A    between atoms: N2_5  and  C4_6 
REMARK    3  A    between atoms: C7_9  and  O1_10 
REMARK    4  A    between atoms: O1_10  and  C8_11 
REMARK    5  A    between atoms: C8_11  and  C9_12 
REMARK    6  A    between atoms: C10_13  and  C11_14 
REMARK    7  A    between atoms: C12_15  and  C13_16 
ROOT
HETATM    1  C4  UNL     1      26.458   1.942  52.175  1.00  0.00     0.035 A 
HETATM    2  C5  UNL     1      25.736   2.188  53.348  1.00  0.00     0.032 A 
HETATM    3  C6  UNL     1      25.355   1.132  54.152  1.00  0.00     0.041 A 
HETATM    4  C7  UNL     1      25.662  -0.178  53.837  1.00  0.00     0.090 A 
HETATM    5  C15 UNL     1      26.373  -0.446  52.684  1.00  0.00     0.069 A 
HETATM    6 CL1  UNL     1      26.765  -2.105  52.282  1.00  0.00    -0.081 Cl
HETATM    7  C16 UNL     1      26.748   0.623  51.891  1.00  0.00     0.056 A 
ENDROOT
BRANCH   4   8
HETATM    8  O1  UNL     1      25.280  -1.265  54.645  1.00  0.00    -0.346 OA
BRANCH   8   9
HETATM    9  C8  UNL     1      24.185  -1.050  55.514  1.00  0.00     0.203 C 
BRANCH   9  10
HETATM   10  C9  UNL     1      22.949  -1.718  55.118  1.00  0.00    -0.000 C 
HETATM   11  C10 UNL     1      21.765  -1.327  54.724  1.00  0.00    -0.002 C 
BRANCH  11  12
HETATM   12  C11 UNL     1      21.373   0.063  54.577  1.00  0.00    -0.001 C 
HETATM   13  C12 UNL     1      21.433   0.662  53.395  1.00  0.00     0.009 C 
BRANCH  13  14
HETATM   14  C13 UNL     1      21.857   0.170  52.061  1.00  0.00     0.189 C 
HETATM   15  C14 UNL     1      22.762   1.200  51.378  1.00  0.00     0.049 C 
HETATM   16  F1  UNL     1      20.772  -0.033  51.223  1.00  0.00    -0.246 F 
ENDBRANCH  13  14
ENDBRANCH  11  12
ENDBRANCH   9  10
ENDBRANCH   8   9
ENDBRANCH   4   8
BRANCH   1  17
HETATM   17  N2  UNL     1      26.879   2.989  51.308  1.00  0.00    -0.340 N 
HETATM   18  H4  UNL     1      27.920   3.187  51.284  1.00  0.00     0.167 HD
BRANCH  17  19
HETATM   19  C3  UNL     1      25.984   3.744  50.504  1.00  0.00     0.136 A 
HETATM   20  N1  UNL     1      24.615   4.034  50.408  1.00  0.00    -0.235 NA
HETATM   21  C2  UNL     1      24.737   4.801  49.380  1.00  0.00     0.042 A 
HETATM   22  C1  UNL     1      23.971   5.655  48.421  1.00  0.00     0.071 C 
HETATM   23  C17 UNL     1      26.169   4.524  49.446  1.00  0.00     0.008 A 
HETATM   24  C18 UNL     1      27.389   4.931  48.663  1.00  0.00     0.054 C 
ENDBRANCH  17  19
ENDBRANCH   1  17
TORSDOF 7
ENDMDL
MODEL 2
REMARK VINA RESULT:      -7.4      2.856      5.403
REMARK  7 active torsions:
REMARK  status: ('A' for Active; 'I' for Inactive)
REMARK    1  A    between atoms: C3_4  and  N2_5 
REMARK    2  A    between atoms: N2_5  and  C4_6 
REMARK    3  A    between atoms: C7_9  and  O1_10 
REMARK    4  A    between atoms: O1_10  and  C8_11 
REMARK    5  A    between atoms: C8_11  and  C9_12 
REMARK    6  A    between atoms: C10_13  and  C11_14 
REMARK    7  A    between atoms: C12_15  and  C13_16 
ROOT
HETATM    1  C4  UNL     1      26.050   2.246  53.239  1.00  0.00     0.035 A 
HETATM    2  C5  UNL     1      24.724   2.632  53.459  1.00  0.00     0.032 A 
HETATM    3  C6  UNL     1      23.982   3.158  52.421  1.00  0.00     0.041 A 
HETATM    4  C7  UNL     1      24.507   3.321  51.152  1.00  0.00     0.090 A 
HETATM    5  C15 UNL     1      25.814   2.947  50.911  1.00  0.00     0.069 A 
HETATM    6 CL1  UNL     1      26.483   3.151  49.305  1.00  0.00    -0.081 Cl
HETATM    7  C16 UNL     1      26.543   2.421  51.961  1.00  0.00     0.056 A 
ENDROOT
BRANCH   4   8
HETATM    8  O1  UNL     1      23.765   3.856  50.084  1.00  0.00    -0.346 OA
BRANCH   8   9
HETATM    9  C8  UNL     1      22.446   3.370  49.927  1.00  0.00     0.203 C 
BRANCH   9  10
HETATM   10  C9  UNL     1      22.349   1.938  49.658  1.00  0.00    -0.000 C 
HETATM   11  C10 UNL     1      21.724   0.928  50.206  1.00  0.00    -0.002 C 
BRANCH  11  12
HETATM   12  C11 UNL     1      20.865   1.037  51.371  1.00  0.00    -0.001 C 
HETATM   13  C12 UNL     1      21.115   0.329  52.464  1.00  0.00     0.009 C 
BRANCH  13  14
HETATM   14  C13 UNL     1      22.187  -0.646  52.784  1.00  0.00     0.189 C 
HETATM   15  C14 UNL     1      22.082  -1.089  54.246  1.00  0.00     0.049 C 
HETATM   16  F1  UNL     1      23.446  -0.091  52.620  1.00  0.00    -0.246 F 
ENDBRANCH  13  14
ENDBRANCH  11  12
ENDBRANCH   9  10
ENDBRANCH   8   9
ENDBRANCH   4   8
BRANCH   1  17
HETATM   17  N2  UNL     1      26.864   1.697  54.269  1.00  0.00    -0.340 N 
HETATM   18  H4  UNL     1      26.762   2.134  55.230  1.00  0.00     0.167 HD
BRANCH  17  19
HETATM   19  C3  UNL     1      27.771   0.625  54.059  1.00  0.00     0.136 A 
HETATM   20  N1  UNL     1      29.106   0.283  54.323  1.00  0.00    -0.235 NA
HETATM   21  C2  UNL     1      29.036  -0.875  53.763  1.00  0.00     0.042 A 
HETATM   22  C1  UNL     1      29.825  -2.104  53.443  1.00  0.00     0.071 C 
HETATM   23  C17 UNL     1      27.642  -0.557  53.468  1.00  0.00     0.008 A 
HETATM   24  C18 UNL     1      26.493  -1.249  52.783  1.00  0.00     0.054 C 
ENDBRANCH  17  19
ENDBRANCH   1  17
TORSDOF 7
ENDMDL
MODEL 3
REMARK VINA RESULT:      -7.4      2.896      4.875
REMARK  7 active torsions:
REMARK  status: ('A' for Active; 'I' for Inactive)
REMARK    1  A    between atoms: C3_4  and  N2_5 
REMARK    2  A    between atoms: N2_5  and  C4_6 
REMARK    3  A    between atoms: C7_9  and  O1_10 
REMARK    4  A    between atoms: O1_10  and  C8_11 
REMARK    5  A    between atoms: C8_11  and  C9_12 
REMARK    6  A    between atoms: C10_13  and  C11_14 
REMARK    7  A    between atoms: C12_15  and  C13_16 
ROOT
HETATM    1  C4  UNL     1      24.962   2.980  51.534  1.00  0.00     0.035 A 
HETATM    2  C5  UNL     1      24.137   3.361  52.597  1.00  0.00     0.032 A 
HETATM    3  C6  UNL     1      22.767   3.387  52.427  1.00  0.00     0.041 A 
HETATM    4  C7  UNL     1      22.170   3.046  51.227  1.00  0.00     0.090 A 
HETATM    5  C15 UNL     1      22.965   2.666  50.164  1.00  0.00     0.069 A 
HETATM    6 CL1  UNL     1      22.212   2.233  48.642  1.00  0.00    -0.081 Cl
HETATM    7  C16 UNL     1      24.334   2.645  50.352  1.00  0.00     0.056 A 
ENDROOT
BRANCH   4   8
HETATM    8  O1  UNL     1      20.777   3.068  51.037  1.00  0.00    -0.346 OA
BRANCH   8   9
HETATM    9  C8  UNL     1      20.001   2.350  51.977  1.00  0.00     0.203 C 
BRANCH   9  10
HETATM   10  C9  UNL     1      20.091   0.896  51.862  1.00  0.00    -0.000 C 
HETATM   11  C10 UNL     1      20.419  -0.082  52.665  1.00  0.00    -0.002 C 
BRANCH  11  12
HETATM   12  C11 UNL     1      20.823   0.099  54.048  1.00  0.00    -0.001 C 
HETATM   13  C12 UNL     1      22.054  -0.202  54.438  1.00  0.00     0.009 C 
BRANCH  13  14
HETATM   14  C13 UNL     1      23.221  -0.736  53.694  1.00  0.00     0.189 C 
HETATM   15  C14 UNL     1      24.434  -0.854  54.623  1.00  0.00     0.049 C 
HETATM   16  F1  UNL     1      23.590   0.100  52.653  1.00  0.00    -0.246 F 
ENDBRANCH  13  14
ENDBRANCH  11  12
ENDBRANCH   9  10
ENDBRANCH   8   9
ENDBRANCH   4   8
BRANCH   1  17
HETATM   17  N2  UNL     1      26.380   2.933  51.650  1.00  0.00    -0.340 N 
HETATM   18  H4  UNL     1      26.926   3.525  50.961  1.00  0.00     0.167 HD
BRANCH  17  19
HETATM   19  C3  UNL     1      27.057   2.149  52.621  1.00  0.00     0.136 A 
HETATM   20  N1  UNL     1      27.811   2.311  53.793  1.00  0.00    -0.235 NA
HETATM   21  C2  UNL     1      28.003   1.051  53.977  1.00  0.00     0.042 A 
HETATM   22  C1  UNL     1      28.650   0.054  54.883  1.00  0.00     0.071 C 
HETATM   23  C17 UNL     1      27.223   0.839  52.760  1.00  0.00     0.008 A 
HETATM   24  C18 UNL     1      26.768  -0.351  51.958  1.00  0.00     0.054 C 
ENDBRANCH  17  19
ENDBRANCH   1  17
TORSDOF 7
ENDMDL
MODEL 4
REMARK VINA RESULT:      -7.3      3.817      6.912
REMARK  7 active torsions:
REMARK  status: ('A' for Active; 'I' for Inactive)
REMARK    1  A    between atoms: C3_4  and  N2_5 
REMARK    2  A    between atoms: N2_5  and  C4_6 
REMARK    3  A    between atoms: C7_9  and  O1_10 
REMARK    4  A    between atoms: O1_10  and  C8_11 
REMARK    5  A    between atoms: C8_11  and  C9_12 
REMARK    6  A    between atoms: C10_13  and  C11_14 
REMARK    7  A    between atoms: C12_15  and  C13_16 
ROOT
HETATM    1  C4  UNL     1      24.849   1.496  53.428  1.00  0.00     0.035 A 
HETATM    2  C5  UNL     1      24.217   0.689  52.476  1.00  0.00     0.032 A 
HETATM    3  C6  UNL     1      23.396   1.263  51.526  1.00  0.00     0.041 A 
HETATM    4  C7  UNL     1      23.169   2.626  51.480  1.00  0.00     0.090 A 
HETATM    5  C15 UNL     1      23.782   3.444  52.409  1.00  0.00     0.069 A 
HETATM    6 CL1  UNL     1      23.498   5.171  52.353  1.00  0.00    -0.081 Cl
HETATM    7  C16 UNL     1      24.602   2.852  53.352  1.00  0.00     0.056 A 
ENDROOT
BRANCH   4   8
HETATM    8  O1  UNL     1      22.335   3.227  50.520  1.00  0.00    -0.346 OA
BRANCH   8   9
HETATM    9  C8  UNL     1      22.841   3.295  49.200  1.00  0.00     0.203 C 
BRANCH   9  10
HETATM   10  C9  UNL     1      23.534   4.538  48.874  1.00  0.00    -0.000 C 
HETATM   11  C10 UNL     1      24.774   4.952  48.923  1.00  0.00    -0.002 C 
BRANCH  11  12
HETATM   12  C11 UNL     1      25.887   4.140  49.380  1.00  0.00    -0.001 C 
HETATM   13  C12 UNL     1      27.137   4.494  49.115  1.00  0.00     0.009 C 
BRANCH  13  14
HETATM   14  C13 UNL     1      27.698   5.654  48.379  1.00  0.00     0.189 C 
HETATM   15  C14 UNL     1      29.214   5.499  48.221  1.00  0.00     0.049 C 
HETATM   16  F1  UNL     1      27.483   6.842  49.059  1.00  0.00    -0.246 F 
ENDBRANCH  13  14
ENDBRANCH  11  12
ENDBRANCH   9  10
ENDBRANCH   8   9
ENDBRANCH   4   8
BRANCH   1  17
HETATM   17  N2  UNL     1      25.707   0.963  54.430  1.00  0.00    -0.340 N 
HETATM   18  H4  UNL     1      25.337   0.982  55.423  1.00  0.00     0.167 HD
BRANCH  17  19
HETATM   19  C3  UNL     1      26.992   0.425  54.151  1.00  0.00     0.136 A 
HETATM   20  N1  UNL     1      27.645  -0.815  54.092  1.00  0.00    -0.235 NA
HETATM   21  C2  UNL     1      28.788  -0.322  53.761  1.00  0.00     0.042 A 
HETATM   22  C1  UNL     1      30.202  -0.681  53.433  1.00  0.00     0.071 C 
HETATM   23  C17 UNL     1      28.145   0.989  53.812  1.00  0.00     0.008 A 
HETATM   24  C18 UNL     1      28.571   2.414  53.582  1.00  0.00     0.054 C 
ENDBRANCH  17  19
ENDBRANCH   1  17
TORSDOF 7
ENDMDL
MODEL 5
REMARK VINA RESULT:      -7.3      3.463      5.406
REMARK  7 active torsions:
REMARK  status: ('A' for Active; 'I' for Inactive)
REMARK    1  A    between atoms: C3_4  and  N2_5 
REMARK    2  A    between atoms: N2_5  and  C4_6 
REMARK    3  A    between atoms: C7_9  and  O1_10 
REMARK    4  A    between atoms: O1_10  and  C8_11 
REMARK    5  A    between atoms: C8_11  and  C9_12 
REMARK    6  A    between atoms: C10_13  and  C11_14 
REMARK    7  A    between atoms: C12_15  and  C13_16 
ROOT
HETATM    1  C4  UNL     1      24.892   1.578  53.318  1.00  0.00     0.035 A 
HETATM    2  C5  UNL     1      24.421   0.817  52.243  1.00  0.00     0.032 A 
HETATM    3  C6  UNL     1      23.644   1.412  51.269  1.00  0.00     0.041 A 
HETATM    4  C7  UNL     1      23.309   2.753  51.317  1.00  0.00     0.090 A 
HETATM    5  C15 UNL     1      23.763   3.525  52.368  1.00  0.00     0.069 A 
HETATM    6 CL1  UNL     1      23.340   5.223  52.431  1.00  0.00    -0.081 Cl
HETATM    7  C16 UNL     1      24.540   2.912  53.334  1.00  0.00     0.056 A 
ENDROOT
BRANCH   4   8
HETATM    8  O1  UNL     1      22.518   3.375  50.333  1.00  0.00    -0.346 OA
BRANCH   8   9
HETATM    9  C8  UNL     1      21.178   2.934  50.230  1.00  0.00     0.203 C 
BRANCH   9  10
HETATM   10  C9  UNL     1      20.424   2.971  51.480  1.00  0.00    -0.000 C 
HETATM   11  C10 UNL     1      19.933   2.075  52.297  1.00  0.00    -0.002 C 
BRANCH  11  12
HETATM   12  C11 UNL     1      20.054   0.642  52.103  1.00  0.00    -0.001 C 
HETATM   13  C12 UNL     1      20.706  -0.108  52.981  1.00  0.00     0.009 C 
BRANCH  13  14
HETATM   14  C13 UNL     1      21.409   0.237  54.242  1.00  0.00     0.189 C 
HETATM   15  C14 UNL     1      22.174  -0.979  54.772  1.00  0.00     0.049 C 
HETATM   16  F1  UNL     1      20.520   0.619  55.233  1.00  0.00    -0.246 F 
ENDBRANCH  13  14
ENDBRANCH  11  12
ENDBRANCH   9  10
ENDBRANCH   8   9
ENDBRANCH   4   8
BRANCH   1  17
HETATM   17  N2  UNL     1      25.697   1.020  54.351  1.00  0.00    -0.340 N 
HETATM   18  H4  UNL     1      25.290   1.049  55.329  1.00  0.00     0.167 HD
BRANCH  17  19
HETATM   19  C3  UNL     1      26.976   0.448  54.120  1.00  0.00     0.136 A 
HETATM   20  N1  UNL     1      27.601  -0.808  54.099  1.00  0.00    -0.235 NA
HETATM   21  C2  UNL     1      28.765  -0.347  53.797  1.00  0.00     0.042 A 
HETATM   22  C1  UNL     1      30.179  -0.745  53.518  1.00  0.00     0.071 C 
HETATM   23  C17 UNL     1      28.153   0.979  53.808  1.00  0.00     0.008 A 
HETATM   24  C18 UNL     1      28.619   2.391  53.571  1.00  0.00     0.054 C 
ENDBRANCH  17  19
ENDBRANCH   1  17
TORSDOF 7
ENDMDL
MODEL 6
REMARK VINA RESULT:      -7.2      3.150      5.618
REMARK  7 active torsions:
REMARK  status: ('A' for Active; 'I' for Inactive)
REMARK    1  A    between atoms: C3_4  and  N2_5 
REMARK    2  A    between atoms: N2_5  and  C4_6 
REMARK    3  A    between atoms: C7_9  and  O1_10 
REMARK    4  A    between atoms: O1_10  and  C8_11 
REMARK    5  A    between atoms: C8_11  and  C9_12 
REMARK    6  A    between atoms: C10_13  and  C11_14 
REMARK    7  A    between atoms: C12_15  and  C13_16 
ROOT
HETATM    1  C4  UNL     1      25.460   2.375  52.994  1.00  0.00     0.035 A 
HETATM    2  C5  UNL     1      25.995   2.311  51.703  1.00  0.00     0.032 A 
HETATM    3  C6  UNL     1      25.262   2.784  50.632  1.00  0.00     0.041 A 
HETATM    4  C7  UNL     1      24.000   3.326  50.790  1.00  0.00     0.090 A 
HETATM    5  C15 UNL     1      23.451   3.400  52.055  1.00  0.00     0.069 A 
HETATM    6 CL1  UNL     1      21.853   4.087  52.259  1.00  0.00    -0.081 Cl
HETATM    7  C16 UNL     1      24.199   2.923  53.115  1.00  0.00     0.056 A 
ENDROOT
BRANCH   4   8
HETATM    8  O1  UNL     1      23.240   3.812  49.711  1.00  0.00    -0.346 OA
BRANCH   8   9
HETATM    9  C8  UNL     1      22.764   2.848  48.791  1.00  0.00     0.203 C 
BRANCH   9  10
HETATM   10  C9  UNL     1      21.427   2.336  49.078  1.00  0.00    -0.000 C 
HETATM   11  C10 UNL     1      20.941   1.358  49.797  1.00  0.00    -0.002 C 
BRANCH  11  12
HETATM   12  C11 UNL     1      21.749   0.439  50.577  1.00  0.00    -0.001 C 
HETATM   13  C12 UNL     1      21.459   0.193  51.847  1.00  0.00     0.009 C 
BRANCH  13  14
HETATM   14  C13 UNL     1      20.380   0.704  52.729  1.00  0.00     0.189 C 
HETATM   15  C14 UNL     1      20.726   0.440  54.198  1.00  0.00     0.049 C 
HETATM   16  F1  UNL     1      19.173   0.072  52.479  1.00  0.00    -0.246 F 
ENDBRANCH  13  14
ENDBRANCH  11  12
ENDBRANCH   9  10
ENDBRANCH   8   9
ENDBRANCH   4   8
BRANCH   1  17
HETATM   17  N2  UNL     1      26.168   1.905  54.135  1.00  0.00    -0.340 N 
HETATM   18  H4  UNL     1      25.770   2.179  55.079  1.00  0.00     0.167 HD
BRANCH  17  19
HETATM   19  C3  UNL     1      27.343   1.112  54.052  1.00  0.00     0.136 A 
HETATM   20  N1  UNL     1      28.705   1.176  54.383  1.00  0.00    -0.235 NA
HETATM   21  C2  UNL     1      28.983   0.000  53.934  1.00  0.00     0.042 A 
HETATM   22  C1  UNL     1      30.092  -0.985  53.754  1.00  0.00     0.071 C 
HETATM   23  C17 UNL     1      27.571  -0.106  53.574  1.00  0.00     0.008 A 
HETATM   24  C18 UNL     1      26.692  -1.144  52.928  1.00  0.00     0.054 C 
ENDBRANCH  17  19
ENDBRANCH   1  17
TORSDOF 7
ENDMDL
MODEL 7
REMARK VINA RESULT:      -7.0      3.470      5.605
REMARK  7 active torsions:
REMARK  status: ('A' for Active; 'I' for Inactive)
REMARK    1  A    between atoms: C3_4  and  N2_5 
REMARK    2  A    between atoms: N2_5  and  C4_6 
REMARK    3  A    between atoms: C7_9  and  O1_10 
REMARK    4  A    between atoms: O1_10  and  C8_11 
REMARK    5  A    between atoms: C8_11  and  C9_12 
REMARK    6  A    between atoms: C10_13  and  C11_14 
REMARK    7  A    between atoms: C12_15  and  C13_16 
ROOT
HETATM    1  C4  UNL     1      24.562   1.511  52.890  1.00  0.00     0.035 A 
HETATM    2  C5  UNL     1      24.564   2.812  53.403  1.00  0.00     0.032 A 
HETATM    3  C6  UNL     1      24.016   3.842  52.664  1.00  0.00     0.041 A 
HETATM    4  C7  UNL     1      23.456   3.633  51.417  1.00  0.00     0.090 A 
HETATM    5  C15 UNL     1      23.442   2.356  50.890  1.00  0.00     0.069 A 
HETATM    6 CL1  UNL     1      22.734   2.087  49.311  1.00  0.00    -0.081 Cl
HETATM    7  C16 UNL     1      23.995   1.338  51.644  1.00  0.00     0.056 A 
ENDROOT
BRANCH   4   8
HETATM    8  O1  UNL     1      22.894   4.670  50.652  1.00  0.00    -0.346 OA
BRANCH   8   9
HETATM    9  C8  UNL     1      21.778   5.334  51.213  1.00  0.00     0.203 C 
BRANCH   9  10
HETATM   10  C9  UNL     1      20.485   4.735  50.893  1.00  0.00    -0.000 C 
HETATM   11  C10 UNL     1      19.755   3.774  51.397  1.00  0.00    -0.002 C 
BRANCH  11  12
HETATM   12  C11 UNL     1      20.133   2.984  52.554  1.00  0.00    -0.001 C 
HETATM   13  C12 UNL     1      20.236   1.664  52.468  1.00  0.00     0.009 C 
BRANCH  13  14
HETATM   14  C13 UNL     1      20.025   0.730  51.334  1.00  0.00     0.189 C 
HETATM   15  C14 UNL     1      18.724  -0.054  51.528  1.00  0.00     0.049 C 
HETATM   16  F1  UNL     1      21.048  -0.199  51.242  1.00  0.00    -0.246 F 
ENDBRANCH  13  14
ENDBRANCH  11  12
ENDBRANCH   9  10
ENDBRANCH   8   9
ENDBRANCH   4   8
BRANCH   1  17
HETATM   17  N2  UNL     1      25.111   0.410  53.605  1.00  0.00    -0.340 N 
HETATM   18  H4  UNL     1      24.421  -0.196  54.135  1.00  0.00     0.167 HD
BRANCH  17  19
HETATM   19  C3  UNL     1      26.499   0.110  53.629  1.00  0.00     0.136 A 
HETATM   20  N1  UNL     1      27.699   0.631  54.135  1.00  0.00    -0.235 NA
HETATM   21  C2  UNL     1      28.437  -0.312  53.661  1.00  0.00     0.042 A 
HETATM   22  C1  UNL     1      29.846  -0.805  53.570  1.00  0.00     0.071 C 
HETATM   23  C17 UNL     1      27.210  -0.887  53.117  1.00  0.00     0.008 A 
HETATM   24  C18 UNL     1      26.849  -2.104  52.307  1.00  0.00     0.054 C 
ENDBRANCH  17  19
ENDBRANCH   1  17
TORSDOF 7
ENDMDL
MODEL 8
REMARK VINA RESULT:      -7.0      3.332      5.606
REMARK  7 active torsions:
REMARK  status: ('A' for Active; 'I' for Inactive)
REMARK    1  A    between atoms: C3_4  and  N2_5 
REMARK    2  A    between atoms: N2_5  and  C4_6 
REMARK    3  A    between atoms: C7_9  and  O1_10 
REMARK    4  A    between atoms: O1_10  and  C8_11 
REMARK    5  A    between atoms: C8_11  and  C9_12 
REMARK    6  A    between atoms: C10_13  and  C11_14 
REMARK    7  A    between atoms: C12_15  and  C13_16 
ROOT
HETATM    1  C4  UNL     1      25.584   2.221  53.129  1.00  0.00     0.035 A 
HETATM    2  C5  UNL     1      24.202   2.436  53.130  1.00  0.00     0.032 A 
HETATM    3  C6  UNL     1      23.581   2.911  51.992  1.00  0.00     0.041 A 
HETATM    4  C7  UNL     1      24.284   3.187  50.834  1.00  0.00     0.090 A 
HETATM    5  C15 UNL     1      25.649   2.982  50.809  1.00  0.00     0.069 A 
HETATM    6 CL1  UNL     1      26.543   3.330  49.343  1.00  0.00    -0.081 Cl
HETATM    7  C16 UNL     1      26.254   2.506  51.957  1.00  0.00     0.056 A 
ENDROOT
BRANCH   4   8
HETATM    8  O1  UNL     1      23.667   3.671  49.666  1.00  0.00    -0.346 OA
BRANCH   8   9
HETATM    9  C8  UNL     1      22.274   3.450  49.551  1.00  0.00     0.203 C 
BRANCH   9  10
HETATM   10  C9  UNL     1      21.905   2.249  48.806  1.00  0.00    -0.000 C 
HETATM   11  C10 UNL     1      21.531   1.037  49.123  1.00  0.00    -0.002 C 
BRANCH  11  12
HETATM   12  C11 UNL     1      21.381   0.559  50.485  1.00  0.00    -0.001 C 
HETATM   13  C12 UNL     1      20.181   0.470  51.043  1.00  0.00     0.009 C 
BRANCH  13  14
HETATM   14  C13 UNL     1      18.827   0.785  50.525  1.00  0.00     0.189 C 
HETATM   15  C14 UNL     1      18.205   1.931  51.328  1.00  0.00     0.049 C 
HETATM   16  F1  UNL     1      17.972  -0.299  50.638  1.00  0.00    -0.246 F 
ENDBRANCH  13  14
ENDBRANCH  11  12
ENDBRANCH   9  10
ENDBRANCH   8   9
ENDBRANCH   4   8
BRANCH   1  17
HETATM   17  N2  UNL     1      26.279   1.732  54.271  1.00  0.00    -0.340 N 
HETATM   18  H4  UNL     1      25.889   2.017  55.215  1.00  0.00     0.167 HD
BRANCH  17  19
HETATM   19  C3  UNL     1      27.432   0.908  54.188  1.00  0.00     0.136 A 
HETATM   20  N1  UNL     1      28.761   0.876  54.635  1.00  0.00    -0.235 NA
HETATM   21  C2  UNL     1      29.041  -0.247  54.070  1.00  0.00     0.042 A 
HETATM   22  C1  UNL     1      30.132  -1.248  53.862  1.00  0.00     0.071 C 
HETATM   23  C17 UNL     1      27.664  -0.252  53.584  1.00  0.00     0.008 A 
HETATM   24  C18 UNL     1      26.814  -1.168  52.745  1.00  0.00     0.054 C 
ENDBRANCH  17  19
ENDBRANCH   1  17
TORSDOF 7
ENDMDL
MODEL 9
REMARK VINA RESULT:      -6.9      3.970      5.957
REMARK  7 active torsions:
REMARK  status: ('A' for Active; 'I' for Inactive)
REMARK    1  A    between atoms: C3_4  and  N2_5 
REMARK    2  A    between atoms: N2_5  and  C4_6 
REMARK    3  A    between atoms: C7_9  and  O1_10 
REMARK    4  A    between atoms: O1_10  and  C8_11 
REMARK    5  A    between atoms: C8_11  and  C9_12 
REMARK    6  A    between atoms: C10_13  and  C11_14 
REMARK    7  A    between atoms: C12_15  and  C13_16 
ROOT
HETATM    1  C4  UNL     1      23.811  -0.350  53.824  1.00  0.00     0.035 A 
HETATM    2  C5  UNL     1      22.578  -1.005  53.912  1.00  0.00     0.032 A 
HETATM    3  C6  UNL     1      21.564  -0.679  53.033  1.00  0.00     0.041 A 
HETATM    4  C7  UNL     1      21.723   0.284  52.055  1.00  0.00     0.090 A 
HETATM    5  C15 UNL     1      22.931   0.944  51.948  1.00  0.00     0.069 A 
HETATM    6 CL1  UNL     1      23.136   2.165  50.709  1.00  0.00    -0.081 Cl
HETATM    7  C16 UNL     1      23.935   0.606  52.835  1.00  0.00     0.056 A 
ENDROOT
BRANCH   4   8
HETATM    8  O1  UNL     1      20.700   0.628  51.152  1.00  0.00    -0.346 OA
BRANCH   8   9
HETATM    9  C8  UNL     1      19.437   0.929  51.714  1.00  0.00     0.203 C 
BRANCH   9  10
HETATM   10  C9  UNL     1      18.364   0.015  51.332  1.00  0.00    -0.000 C 
HETATM   11  C10 UNL     1      17.702  -0.942  51.928  1.00  0.00    -0.002 C 
BRANCH  11  12
HETATM   12  C11 UNL     1      17.928  -1.358  53.300  1.00  0.00    -0.001 C 
HETATM   13  C12 UNL     1      17.646  -2.595  53.688  1.00  0.00     0.009 C 
BRANCH  13  14
HETATM   14  C13 UNL     1      17.095  -3.758  52.949  1.00  0.00     0.189 C 
HETATM   15  C14 UNL     1      15.577  -3.622  52.801  1.00  0.00     0.049 C 
HETATM   16  F1  UNL     1      17.330  -4.947  53.620  1.00  0.00    -0.246 F 
ENDBRANCH  13  14
ENDBRANCH  11  12
ENDBRANCH   9  10
ENDBRANCH   8   9
ENDBRANCH   4   8
BRANCH   1  17
HETATM   17  N2  UNL     1      24.893  -0.643  54.701  1.00  0.00    -0.340 N 
HETATM   18  H4  UNL     1      24.640  -1.113  55.617  1.00  0.00     0.167 HD
BRANCH  17  19
HETATM   19  C3  UNL     1      26.246  -0.337  54.398  1.00  0.00     0.136 A 
HETATM   20  N1  UNL     1      27.271   0.522  54.822  1.00  0.00    -0.235 NA
HETATM   21  C2  UNL     1      28.137   0.087  53.973  1.00  0.00     0.042 A 
HETATM   22  C1  UNL     1      29.546   0.254  53.503  1.00  0.00     0.071 C 
HETATM   23  C17 UNL     1      27.097  -0.823  53.502  1.00  0.00     0.008 A 
HETATM   24  C18 UNL     1      26.986  -1.889  52.445  1.00  0.00     0.054 C 
ENDBRANCH  17  19
ENDBRANCH   1  17
TORSDOF 7
ENDMDL
