MODEL 1
REMARK VINA RESULT:      -7.8      0.000      0.000
REMARK  5 active torsions:
REMARK  status: ('A' for Active; 'I' for Inactive)
REMARK    1  A    between atoms: O1_2  and  C2_3 
REMARK    2  A    between atoms: C2_3  and  C3_4 
REMARK    3  A    between atoms: C8_11  and  N2_12 
REMARK    4  A    between atoms: C19_24  and  C20_25 
REMARK    5  A    between atoms: C20_25  and  O4_26 
ROOT
HETATM    1  C3  UNL     1      26.979   1.414  53.161  1.00  0.00     0.183 C 
HETATM    2  O2  UNL     1      25.614   1.607  53.572  1.00  0.00    -0.343 OA
HETATM    3  C4  UNL     1      24.818   0.499  53.802  1.00  0.00     0.078 C 
HETATM    4  C5  UNL     1      23.531   0.280  53.457  1.00  0.00    -0.012 A 
HETATM    5  C6  UNL     1      22.930  -1.024  53.844  1.00  0.00     0.088 A 
HETATM    6  C7  UNL     1      21.534  -1.053  53.359  1.00  0.00     0.096 A 
HETATM    7  N1  UNL     1      20.916  -0.136  52.724  1.00  0.00    -0.247 NA
HETATM    8  C8  UNL     1      21.501   1.108  52.369  1.00  0.00     0.132 A 
HETATM    9  C16 UNL     1      22.781   1.316  52.728  1.00  0.00    -0.007 A 
HETATM   10  C17 UNL     1      23.373   2.620  52.357  1.00  0.00     0.053 C 
HETATM   11  C18 UNL     1      25.561  -0.554  54.543  1.00  0.00     0.233 C 
HETATM   12  O3  UNL     1      26.674  -0.889  53.782  1.00  0.00    -0.375 OA
HETATM   13  C19 UNL     1      27.573   0.140  53.683  1.00  0.00     0.176 C 
ENDROOT
BRANCH   8  14
HETATM   14  N2  UNL     1      20.739   2.077  51.663  1.00  0.00    -0.357 N 
HETATM   15  C9  UNL     1      20.056   3.232  52.232  1.00  0.00     0.152 C 
HETATM   16  C10 UNL     1      18.742   3.469  51.583  1.00  0.00    -0.005 C 
HETATM   17  C11 UNL     1      18.313   2.739  50.570  1.00  0.00    -0.084 C 
HETATM   18  C12 UNL     1      16.974   3.195  50.121  1.00  0.00     0.043 C 
HETATM   19  C13 UNL     1      19.112   1.613  49.995  1.00  0.00     0.058 C 
HETATM   20  C14 UNL     1      20.577   1.976  50.240  1.00  0.00     0.086 C 
HETATM   21  C15 UNL     1      21.519   0.983  49.612  1.00  0.00     0.032 C 
ENDBRANCH   8  14
BRANCH   1  22
HETATM   22  C2  UNL     1      26.926   1.450  51.650  1.00  0.00     0.202 C 
BRANCH  22  23
HETATM   23  O1  UNL     1      27.167   2.665  51.076  1.00  0.00    -0.393 OA
HETATM   24  C1  UNL     1      26.415   2.857  49.930  1.00  0.00     0.201 C 
ENDBRANCH  22  23
ENDBRANCH   1  22
BRANCH  13  25
HETATM   25  C20 UNL     1      28.340   0.275  54.958  1.00  0.00     0.198 C 
BRANCH  25  26
HETATM   26  O4  UNL     1      29.042   1.473  55.084  1.00  0.00    -0.398 OA
HETATM   27  H30 UNL     1      29.936   1.283  55.441  1.00  0.00     0.209 HD
ENDBRANCH  25  26
ENDBRANCH  13  25
TORSDOF 5
ENDMDL
MODEL 2
REMARK VINA RESULT:      -7.7      1.879      3.608
REMARK  5 active torsions:
REMARK  status: ('A' for Active; 'I' for Inactive)
REMARK    1  A    between atoms: O1_2  and  C2_3 
REMARK    2  A    between atoms: C2_3  and  C3_4 
REMARK    3  A    between atoms: C8_11  and  N2_12 
REMARK    4  A    between atoms: C19_24  and  C20_25 
REMARK    5  A    between atoms: C20_25  and  O4_26 
ROOT
HETATM    1  C3  UNL     1      26.770  -0.619  54.174  1.00  0.00     0.183 C 
HETATM    2  O2  UNL     1      26.065  -0.279  52.967  1.00  0.00    -0.343 OA
HETATM    3  C4  UNL     1      26.377   0.900  52.314  1.00  0.00     0.078 C 
HETATM    4  C5  UNL     1      25.558   1.810  51.746  1.00  0.00    -0.012 A 
HETATM    5  C6  UNL     1      26.188   2.996  51.108  1.00  0.00     0.088 A 
HETATM    6  C7  UNL     1      25.115   3.858  50.569  1.00  0.00     0.096 A 
HETATM    7  N1  UNL     1      23.858   3.649  50.615  1.00  0.00    -0.247 NA
HETATM    8  C8  UNL     1      23.271   2.506  51.221  1.00  0.00     0.132 A 
HETATM    9  C16 UNL     1      24.100   1.603  51.774  1.00  0.00    -0.007 A 
HETATM   10  C17 UNL     1      23.473   0.415  52.394  1.00  0.00     0.053 C 
HETATM   11  C18 UNL     1      27.847   1.119  52.274  1.00  0.00     0.233 C 
HETATM   12  O3  UNL     1      28.299   1.142  53.587  1.00  0.00    -0.375 OA
HETATM   13  C19 UNL     1      28.165  -0.072  54.210  1.00  0.00     0.176 C 
ENDROOT
BRANCH   8  14
HETATM   14  N2  UNL     1      21.859   2.351  51.225  1.00  0.00    -0.357 N 
HETATM   15  C9  UNL     1      20.948   2.690  52.312  1.00  0.00     0.152 C 
HETATM   16  C10 UNL     1      19.862   1.688  52.452  1.00  0.00    -0.005 C 
HETATM   17  C11 UNL     1      19.736   0.664  51.629  1.00  0.00    -0.084 C 
HETATM   18  C12 UNL     1      18.568  -0.173  52.003  1.00  0.00     0.043 C 
HETATM   19  C13 UNL     1      20.675   0.428  50.489  1.00  0.00     0.058 C 
HETATM   20  C14 UNL     1      21.185   1.809  50.079  1.00  0.00     0.086 C 
HETATM   21  C15 UNL     1      22.065   1.748  48.858  1.00  0.00     0.032 C 
ENDBRANCH   8  14
BRANCH   1  22
HETATM   22  C2  UNL     1      25.903  -0.068  55.284  1.00  0.00     0.202 C 
BRANCH  22  23
HETATM   23  O1  UNL     1      25.300  -0.995  56.083  1.00  0.00    -0.393 OA
HETATM   24  C1  UNL     1      24.049  -1.354  55.611  1.00  0.00     0.201 C 
ENDBRANCH  22  23
ENDBRANCH   1  22
BRANCH  13  25
HETATM   25  C20 UNL     1      29.226  -1.011  53.738  1.00  0.00     0.198 C 
BRANCH  25  26
HETATM   26  O4  UNL     1      28.748  -2.236  53.274  1.00  0.00    -0.398 OA
HETATM   27  H30 UNL     1      27.776  -2.269  53.406  1.00  0.00     0.209 HD
ENDBRANCH  25  26
ENDBRANCH  13  25
TORSDOF 5
ENDMDL
MODEL 3
REMARK VINA RESULT:      -7.2      2.989      5.976
REMARK  5 active torsions:
REMARK  status: ('A' for Active; 'I' for Inactive)
REMARK    1  A    between atoms: O1_2  and  C2_3 
REMARK    2  A    between atoms: C2_3  and  C3_4 
REMARK    3  A    between atoms: C8_11  and  N2_12 
REMARK    4  A    between atoms: C19_24  and  C20_25 
REMARK    5  A    between atoms: C20_25  and  O4_26 
ROOT
HETATM    1  C3  UNL     1      23.193  -0.031  53.854  1.00  0.00     0.183 C 
HETATM    2  O2  UNL     1      22.904   1.245  53.257  1.00  0.00    -0.343 OA
HETATM    3  C4  UNL     1      22.381   1.286  51.976  1.00  0.00     0.078 C 
HETATM    4  C5  UNL     1      22.688   2.108  50.949  1.00  0.00    -0.012 A 
HETATM    5  C6  UNL     1      21.951   1.914  49.673  1.00  0.00     0.088 A 
HETATM    6  C7  UNL     1      22.452   2.902  48.694  1.00  0.00     0.096 A 
HETATM    7  N1  UNL     1      23.350   3.787  48.878  1.00  0.00    -0.247 NA
HETATM    8  C8  UNL     1      24.039   3.966  50.107  1.00  0.00     0.132 A 
HETATM    9  C16 UNL     1      23.717   3.147  51.124  1.00  0.00    -0.007 A 
HETATM   10  C17 UNL     1      24.438   3.351  52.399  1.00  0.00     0.053 C 
HETATM   11  C18 UNL     1      21.337   0.245  51.787  1.00  0.00     0.233 C 
HETATM   12  O3  UNL     1      21.927  -0.985  52.046  1.00  0.00    -0.375 OA
HETATM   13  C19 UNL     1      22.297  -1.125  53.358  1.00  0.00     0.176 C 
ENDROOT
BRANCH   8  14
HETATM   14  N2  UNL     1      25.026   4.981  50.227  1.00  0.00    -0.357 N 
HETATM   15  C9  UNL     1      24.838   6.319  50.776  1.00  0.00     0.152 C 
HETATM   16  C10 UNL     1      25.595   7.339  50.008  1.00  0.00    -0.005 C 
HETATM   17  C11 UNL     1      26.384   7.022  48.999  1.00  0.00    -0.084 C 
HETATM   18  C12 UNL     1      27.012   8.235  48.418  1.00  0.00     0.043 C 
HETATM   19  C13 UNL     1      26.580   5.610  48.544  1.00  0.00     0.058 C 
HETATM   20  C14 UNL     1      26.371   4.742  49.785  1.00  0.00     0.086 C 
HETATM   21  C15 UNL     1      26.647   3.287  49.511  1.00  0.00     0.032 C 
ENDBRANCH   8  14
BRANCH   1  22
HETATM   22  C2  UNL     1      24.648  -0.279  53.522  1.00  0.00     0.202 C 
BRANCH  22  23
HETATM   23  O1  UNL     1      25.551   0.484  54.202  1.00  0.00    -0.393 OA
HETATM   24  C1  UNL     1      26.826  -0.054  54.158  1.00  0.00     0.201 C 
ENDBRANCH  22  23
ENDBRANCH   1  22
BRANCH  13  25
HETATM   25  C20 UNL     1      21.095  -1.392  54.204  1.00  0.00     0.198 C 
BRANCH  25  26
HETATM   26  O4  UNL     1      20.739  -0.340  55.048  1.00  0.00    -0.398 OA
HETATM   27  H30 UNL     1      21.339   0.418  54.882  1.00  0.00     0.209 HD
ENDBRANCH  25  26
ENDBRANCH  13  25
TORSDOF 5
ENDMDL
MODEL 4
REMARK VINA RESULT:      -7.1      1.796      3.440
REMARK  5 active torsions:
REMARK  status: ('A' for Active; 'I' for Inactive)
REMARK    1  A    between atoms: O1_2  and  C2_3 
REMARK    2  A    between atoms: C2_3  and  C3_4 
REMARK    3  A    between atoms: C8_11  and  N2_12 
REMARK    4  A    between atoms: C19_24  and  C20_25 
REMARK    5  A    between atoms: C20_25  and  O4_26 
ROOT
HETATM    1  C3  UNL     1      25.277  -0.522  53.716  1.00  0.00     0.183 C 
HETATM    2  O2  UNL     1      24.746   0.321  52.680  1.00  0.00    -0.343 OA
HETATM    3  C4  UNL     1      24.854   1.695  52.807  1.00  0.00     0.078 C 
HETATM    4  C5  UNL     1      23.947   2.657  52.539  1.00  0.00    -0.012 A 
HETATM    5  C6  UNL     1      24.351   4.067  52.776  1.00  0.00     0.088 A 
HETATM    6  C7  UNL     1      23.210   4.942  52.432  1.00  0.00     0.096 A 
HETATM    7  N1  UNL     1      22.066   4.586  51.996  1.00  0.00    -0.247 NA
HETATM    8  C8  UNL     1      21.697   3.234  51.766  1.00  0.00     0.132 A 
HETATM    9  C16 UNL     1      22.615   2.287  52.028  1.00  0.00    -0.007 A 
HETATM   10  C17 UNL     1      22.218   0.885  51.776  1.00  0.00     0.053 C 
HETATM   11  C18 UNL     1      26.196   2.084  53.317  1.00  0.00     0.233 C 
HETATM   12  O3  UNL     1      26.372   1.453  54.542  1.00  0.00    -0.375 OA
HETATM   13  C19 UNL     1      26.447   0.090  54.426  1.00  0.00     0.176 C 
ENDROOT
BRANCH   8  14
HETATM   14  N2  UNL     1      20.400   2.925  51.275  1.00  0.00    -0.357 N 
HETATM   15  C9  UNL     1      19.200   2.692  52.069  1.00  0.00     0.152 C 
HETATM   16  C10 UNL     1      18.371   1.598  51.504  1.00  0.00    -0.005 C 
HETATM   17  C11 UNL     1      18.685   0.981  50.380  1.00  0.00    -0.084 C 
HETATM   18  C12 UNL     1      17.685  -0.065  50.054  1.00  0.00     0.043 C 
HETATM   19  C13 UNL     1      19.902   1.333  49.583  1.00  0.00     0.058 C 
HETATM   20  C14 UNL     1      20.167   2.813  49.863  1.00  0.00     0.086 C 
HETATM   21  C15 UNL     1      21.306   3.350  49.036  1.00  0.00     0.032 C 
ENDBRANCH   8  14
BRANCH   1  22
HETATM   22  C2  UNL     1      24.104  -0.766  54.640  1.00  0.00     0.202 C 
BRANCH  22  23
HETATM   23  O1  UNL     1      22.965  -1.225  54.045  1.00  0.00    -0.393 OA
HETATM   24  C1  UNL     1      21.864  -1.117  54.877  1.00  0.00     0.201 C 
ENDBRANCH  22  23
ENDBRANCH   1  22
BRANCH  13  25
HETATM   25  C20 UNL     1      27.787  -0.307  53.897  1.00  0.00     0.198 C 
BRANCH  25  26
HETATM   26  O4  UNL     1      27.871  -1.635  53.478  1.00  0.00    -0.398 OA
HETATM   27  H30 UNL     1      27.497  -2.214  54.176  1.00  0.00     0.209 HD
ENDBRANCH  25  26
ENDBRANCH  13  25
TORSDOF 5
ENDMDL
MODEL 5
REMARK VINA RESULT:      -7.0      2.941      6.884
REMARK  5 active torsions:
REMARK  status: ('A' for Active; 'I' for Inactive)
REMARK    1  A    between atoms: O1_2  and  C2_3 
REMARK    2  A    between atoms: C2_3  and  C3_4 
REMARK    3  A    between atoms: C8_11  and  N2_12 
REMARK    4  A    between atoms: C19_24  and  C20_25 
REMARK    5  A    between atoms: C20_25  and  O4_26 
ROOT
HETATM    1  C3  UNL     1      23.207   4.356  50.334  1.00  0.00     0.183 C 
HETATM    2  O2  UNL     1      23.645   2.991  50.443  1.00  0.00    -0.343 OA
HETATM    3  C4  UNL     1      22.767   2.039  50.931  1.00  0.00     0.078 C 
HETATM    4  C5  UNL     1      22.990   1.029  51.798  1.00  0.00    -0.012 A 
HETATM    5  C6  UNL     1      21.838   0.154  52.143  1.00  0.00     0.088 A 
HETATM    6  C7  UNL     1      22.302  -0.865  53.108  1.00  0.00     0.096 A 
HETATM    7  N1  UNL     1      23.479  -1.007  53.577  1.00  0.00    -0.247 NA
HETATM    8  C8  UNL     1      24.572  -0.168  53.232  1.00  0.00     0.132 A 
HETATM    9  C16 UNL     1      24.337   0.829  52.360  1.00  0.00    -0.007 A 
HETATM   10  C17 UNL     1      25.487   1.688  52.004  1.00  0.00     0.053 C 
HETATM   11  C18 UNL     1      21.403   2.227  50.368  1.00  0.00     0.233 C 
HETATM   12  O3  UNL     1      20.988   3.508  50.705  1.00  0.00    -0.375 OA
HETATM   13  C19 UNL     1      21.734   4.481  50.092  1.00  0.00     0.176 C 
ENDROOT
BRANCH   8  14
HETATM   14  N2  UNL     1      25.853  -0.398  53.801  1.00  0.00    -0.357 N 
HETATM   15  C9  UNL     1      26.383   0.194  55.024  1.00  0.00     0.152 C 
HETATM   16  C10 UNL     1      27.822   0.532  54.891  1.00  0.00    -0.005 C 
HETATM   17  C11 UNL     1      28.516   0.253  53.804  1.00  0.00    -0.084 C 
HETATM   18  C12 UNL     1      29.924   0.701  53.946  1.00  0.00     0.043 C 
HETATM   19  C13 UNL     1      27.911  -0.427  52.616  1.00  0.00     0.058 C 
HETATM   20  C14 UNL     1      26.778  -1.293  53.167  1.00  0.00     0.086 C 
HETATM   21  C15 UNL     1      26.137  -2.135  52.094  1.00  0.00     0.032 C 
ENDBRANCH   8  14
BRANCH   1  22
HETATM   22  C2  UNL     1      23.635   4.994  51.637  1.00  0.00     0.202 C 
BRANCH  22  23
HETATM   23  O1  UNL     1      24.146   6.256  51.543  1.00  0.00    -0.393 OA
HETATM   24  C1  UNL     1      24.895   6.429  50.391  1.00  0.00     0.201 C 
ENDBRANCH  22  23
ENDBRANCH   1  22
BRANCH  13  25
HETATM   25  C20 UNL     1      21.336   4.604  48.657  1.00  0.00     0.198 C 
BRANCH  25  26
HETATM   26  O4  UNL     1      22.349   4.295  47.749  1.00  0.00    -0.398 OA
HETATM   27  H30 UNL     1      22.516   3.328  47.775  1.00  0.00     0.209 HD
ENDBRANCH  25  26
ENDBRANCH  13  25
TORSDOF 5
ENDMDL
MODEL 6
REMARK VINA RESULT:      -6.9      3.258      7.331
REMARK  5 active torsions:
REMARK  status: ('A' for Active; 'I' for Inactive)
REMARK    1  A    between atoms: O1_2  and  C2_3 
REMARK    2  A    between atoms: C2_3  and  C3_4 
REMARK    3  A    between atoms: C8_11  and  N2_12 
REMARK    4  A    between atoms: C19_24  and  C20_25 
REMARK    5  A    between atoms: C20_25  and  O4_26 
ROOT
HETATM    1  C3  UNL     1      20.054   2.857  50.261  1.00  0.00     0.183 C 
HETATM    2  O2  UNL     1      20.902   1.722  50.507  1.00  0.00    -0.343 OA
HETATM    3  C4  UNL     1      20.724   0.987  51.666  1.00  0.00     0.078 C 
HETATM    4  C5  UNL     1      21.646   0.473  52.507  1.00  0.00    -0.012 A 
HETATM    5  C6  UNL     1      21.153  -0.281  53.689  1.00  0.00     0.088 A 
HETATM    6  C7  UNL     1      22.322  -0.737  54.470  1.00  0.00     0.096 A 
HETATM    7  N1  UNL     1      23.553  -0.544  54.203  1.00  0.00    -0.247 NA
HETATM    8  C8  UNL     1      24.010   0.171  53.065  1.00  0.00     0.132 A 
HETATM    9  C16 UNL     1      23.080   0.669  52.231  1.00  0.00    -0.007 A 
HETATM   10  C17 UNL     1      23.573   1.405  51.046  1.00  0.00     0.053 C 
HETATM   11  C18 UNL     1      19.280   0.777  51.954  1.00  0.00     0.233 C 
HETATM   12  O3  UNL     1      18.693   2.031  52.063  1.00  0.00    -0.375 OA
HETATM   13  C19 UNL     1      18.695   2.718  50.876  1.00  0.00     0.176 C 
ENDROOT
BRANCH   8  14
HETATM   14  N2  UNL     1      25.404   0.337  52.841  1.00  0.00    -0.357 N 
HETATM   15  C9  UNL     1      26.274  -0.545  52.073  1.00  0.00     0.152 C 
HETATM   16  C10 UNL     1      27.607  -0.693  52.709  1.00  0.00    -0.005 C 
HETATM   17  C11 UNL     1      27.944  -0.036  53.803  1.00  0.00    -0.084 C 
HETATM   18  C12 UNL     1      29.329  -0.374  54.217  1.00  0.00     0.043 C 
HETATM   19  C13 UNL     1      27.013   0.912  54.492  1.00  0.00     0.058 C 
HETATM   20  C14 UNL     1      26.099   1.463  53.397  1.00  0.00     0.086 C 
HETATM   21  C15 UNL     1      25.168   2.526  53.919  1.00  0.00     0.032 C 
ENDBRANCH   8  14
BRANCH   1  22
HETATM   22  C2  UNL     1      20.826   4.030  50.824  1.00  0.00     0.202 C 
BRANCH  22  23
HETATM   23  O1  UNL     1      21.849   4.495  50.050  1.00  0.00    -0.393 OA
HETATM   24  C1  UNL     1      21.393   5.251  48.983  1.00  0.00     0.201 C 
ENDBRANCH  22  23
ENDBRANCH   1  22
BRANCH  13  25
HETATM   25  C20 UNL     1      17.641   2.173  49.968  1.00  0.00     0.198 C 
BRANCH  25  26
HETATM   26  O4  UNL     1      18.132   1.591  48.799  1.00  0.00    -0.398 OA
HETATM   27  H30 UNL     1      18.070   0.615  48.879  1.00  0.00     0.209 HD
ENDBRANCH  25  26
ENDBRANCH  13  25
TORSDOF 5
ENDMDL
MODEL 7
REMARK VINA RESULT:      -6.7      8.001     12.501
REMARK  5 active torsions:
REMARK  status: ('A' for Active; 'I' for Inactive)
REMARK    1  A    between atoms: O1_2  and  C2_3 
REMARK    2  A    between atoms: C2_3  and  C3_4 
REMARK    3  A    between atoms: C8_11  and  N2_12 
REMARK    4  A    between atoms: C19_24  and  C20_25 
REMARK    5  A    between atoms: C20_25  and  O4_26 
ROOT
HETATM    1  C3  UNL     1      27.875   7.893  48.953  1.00  0.00     0.183 C 
HETATM    2  O2  UNL     1      29.306   7.745  48.934  1.00  0.00    -0.343 OA
HETATM    3  C4  UNL     1      30.053   8.530  48.074  1.00  0.00     0.078 C 
HETATM    4  C5  UNL     1      31.107   8.195  47.301  1.00  0.00    -0.012 A 
HETATM    5  C6  UNL     1      31.717   9.265  46.469  1.00  0.00     0.088 A 
HETATM    6  C7  UNL     1      32.834   8.677  45.702  1.00  0.00     0.096 A 
HETATM    7  N1  UNL     1      33.241   7.469  45.729  1.00  0.00    -0.247 NA
HETATM    8  C8  UNL     1      32.653   6.458  46.535  1.00  0.00     0.132 A 
HETATM    9  C16 UNL     1      31.610   6.810  47.308  1.00  0.00    -0.007 A 
HETATM   10  C17 UNL     1      31.015   5.748  48.148  1.00  0.00     0.053 C 
HETATM   11  C18 UNL     1      29.560   9.933  48.061  1.00  0.00     0.233 C 
HETATM   12  O3  UNL     1      28.226   9.900  47.675  1.00  0.00    -0.375 OA
HETATM   13  C19 UNL     1      27.426   9.278  48.597  1.00  0.00     0.176 C 
ENDROOT
BRANCH   8  14
HETATM   14  N2  UNL     1      33.171   5.136  46.507  1.00  0.00    -0.357 N 
HETATM   15  C9  UNL     1      32.679   4.024  45.702  1.00  0.00     0.152 C 
HETATM   16  C10 UNL     1      32.715   2.744  46.453  1.00  0.00    -0.005 C 
HETATM   17  C11 UNL     1      33.203   2.656  47.676  1.00  0.00    -0.084 C 
HETATM   18  C12 UNL     1      33.113   1.264  48.182  1.00  0.00     0.043 C 
HETATM   19  C13 UNL     1      33.759   3.837  48.407  1.00  0.00     0.058 C 
HETATM   20  C14 UNL     1      34.294   4.778  47.327  1.00  0.00     0.086 C 
HETATM   21  C15 UNL     1      34.993   5.975  47.916  1.00  0.00     0.032 C 
ENDBRANCH   8  14
BRANCH   1  22
HETATM   22  C2  UNL     1      27.377   6.855  47.972  1.00  0.00     0.202 C 
BRANCH  22  23
HETATM   23  O1  UNL     1      27.647   5.556  48.293  1.00  0.00    -0.393 OA
HETATM   24  C1  UNL     1      26.653   4.997  49.078  1.00  0.00     0.201 C 
ENDBRANCH  22  23
ENDBRANCH   1  22
BRANCH  13  25
HETATM   25  C20 UNL     1      27.187  10.184  49.761  1.00  0.00     0.198 C 
BRANCH  25  26
HETATM   26  O4  UNL     1      27.598   9.666  50.989  1.00  0.00    -0.398 OA
HETATM   27  H30 UNL     1      28.051  10.372  51.498  1.00  0.00     0.209 HD
ENDBRANCH  25  26
ENDBRANCH  13  25
TORSDOF 5
ENDMDL
MODEL 8
REMARK VINA RESULT:      -6.5      4.728      7.886
REMARK  5 active torsions:
REMARK  status: ('A' for Active; 'I' for Inactive)
REMARK    1  A    between atoms: O1_2  and  C2_3 
REMARK    2  A    between atoms: C2_3  and  C3_4 
REMARK    3  A    between atoms: C8_11  and  N2_12 
REMARK    4  A    between atoms: C19_24  and  C20_25 
REMARK    5  A    between atoms: C20_25  and  O4_26 
ROOT
HETATM    1  C3  UNL     1      16.387   0.208  51.320  1.00  0.00     0.183 C 
HETATM    2  O2  UNL     1      17.781   0.034  51.012  1.00  0.00    -0.343 OA
HETATM    3  C4  UNL     1      18.663  -0.276  52.032  1.00  0.00     0.078 C 
HETATM    4  C5  UNL     1      19.902   0.201  52.271  1.00  0.00    -0.012 A 
HETATM    5  C6  UNL     1      20.623  -0.325  53.460  1.00  0.00     0.088 A 
HETATM    6  C7  UNL     1      21.941   0.338  53.535  1.00  0.00     0.096 A 
HETATM    7  N1  UNL     1      22.417   1.207  52.733  1.00  0.00    -0.247 NA
HETATM    8  C8  UNL     1      21.720   1.694  51.595  1.00  0.00     0.132 A 
HETATM    9  C16 UNL     1      20.490   1.202  51.364  1.00  0.00    -0.007 A 
HETATM   10  C17 UNL     1      19.781   1.713  50.171  1.00  0.00     0.053 C 
HETATM   11  C18 UNL     1      18.084  -1.291  52.953  1.00  0.00     0.233 C 
HETATM   12  O3  UNL     1      16.902  -0.766  53.457  1.00  0.00    -0.375 OA
HETATM   13  C19 UNL     1      15.941  -0.611  52.493  1.00  0.00     0.176 C 
ENDROOT
BRANCH   8  14
HETATM   14  N2  UNL     1      22.327   2.662  50.751  1.00  0.00    -0.357 N 
HETATM   15  C9  UNL     1      22.934   2.423  49.446  1.00  0.00     0.152 C 
HETATM   16  C10 UNL     1      24.163   3.232  49.256  1.00  0.00    -0.005 C 
HETATM   17  C11 UNL     1      24.584   4.100  50.157  1.00  0.00    -0.084 C 
HETATM   18  C12 UNL     1      25.833   4.765  49.707  1.00  0.00     0.043 C 
HETATM   19  C13 UNL     1      23.859   4.340  51.444  1.00  0.00     0.058 C 
HETATM   20  C14 UNL     1      22.389   4.039  51.152  1.00  0.00     0.086 C 
HETATM   21  C15 UNL     1      21.504   4.344  52.332  1.00  0.00     0.032 C 
ENDBRANCH   8  14
BRANCH   1  22
HETATM   22  C2  UNL     1      16.238   1.693  51.563  1.00  0.00     0.202 C 
BRANCH  22  23
HETATM   23  O1  UNL     1      15.317   2.052  52.504  1.00  0.00    -0.393 OA
HETATM   24  C1  UNL     1      15.166   3.426  52.587  1.00  0.00     0.201 C 
ENDBRANCH  22  23
ENDBRANCH   1  22
BRANCH  13  25
HETATM   25  C20 UNL     1      15.342  -1.937  52.149  1.00  0.00     0.198 C 
BRANCH  25  26
HETATM   26  O4  UNL     1      14.423  -2.414  53.083  1.00  0.00    -0.398 OA
HETATM   27  H30 UNL     1      14.538  -3.384  53.176  1.00  0.00     0.209 HD
ENDBRANCH  25  26
ENDBRANCH  13  25
TORSDOF 5
ENDMDL
MODEL 9
REMARK VINA RESULT:      -6.5      3.634      5.725
REMARK  5 active torsions:
REMARK  status: ('A' for Active; 'I' for Inactive)
REMARK    1  A    between atoms: O1_2  and  C2_3 
REMARK    2  A    between atoms: C2_3  and  C3_4 
REMARK    3  A    between atoms: C8_11  and  N2_12 
REMARK    4  A    between atoms: C19_24  and  C20_25 
REMARK    5  A    between atoms: C20_25  and  O4_26 
ROOT
HETATM    1  C3  UNL     1      20.798  -0.450  52.980  1.00  0.00     0.183 C 
HETATM    2  O2  UNL     1      21.558  -0.125  51.803  1.00  0.00    -0.343 OA
HETATM    3  C4  UNL     1      22.691   0.659  51.928  1.00  0.00     0.078 C 
HETATM    4  C5  UNL     1      23.123   1.675  51.151  1.00  0.00    -0.012 A 
HETATM    5  C6  UNL     1      24.394   2.341  51.537  1.00  0.00     0.088 A 
HETATM    6  C7  UNL     1      24.666   3.422  50.566  1.00  0.00     0.096 A 
HETATM    7  N1  UNL     1      23.961   3.748  49.555  1.00  0.00    -0.247 NA
HETATM    8  C8  UNL     1      22.752   3.097  49.194  1.00  0.00     0.132 A 
HETATM    9  C16 UNL     1      22.340   2.080  49.971  1.00  0.00    -0.007 A 
HETATM   10  C17 UNL     1      21.083   1.406  49.577  1.00  0.00     0.053 C 
HETATM   11  C18 UNL     1      23.495   0.258  53.113  1.00  0.00     0.233 C 
HETATM   12  O3  UNL     1      22.678   0.380  54.229  1.00  0.00    -0.375 OA
HETATM   13  C19 UNL     1      21.637  -0.512  54.220  1.00  0.00     0.176 C 
ENDROOT
BRANCH   8  14
HETATM   14  N2  UNL     1      22.029   3.524  48.048  1.00  0.00    -0.357 N 
HETATM   15  C9  UNL     1      22.031   2.896  46.731  1.00  0.00     0.152 C 
HETATM   16  C10 UNL     1      22.017   3.904  45.642  1.00  0.00    -0.005 C 
HETATM   17  C11 UNL     1      21.943   5.200  45.880  1.00  0.00    -0.084 C 
HETATM   18  C12 UNL     1      21.946   5.971  44.611  1.00  0.00     0.043 C 
HETATM   19  C13 UNL     1      21.869   5.761  47.265  1.00  0.00     0.058 C 
HETATM   20  C14 UNL     1      21.188   4.685  48.112  1.00  0.00     0.086 C 
HETATM   21  C15 UNL     1      20.938   5.150  49.522  1.00  0.00     0.032 C 
ENDBRANCH   8  14
BRANCH   1  22
HETATM   22  C2  UNL     1      19.739   0.628  53.052  1.00  0.00     0.202 C 
BRANCH  22  23
HETATM   23  O1  UNL     1      18.623   0.417  52.295  1.00  0.00    -0.393 OA
HETATM   24  C1  UNL     1      18.023  -0.798  52.581  1.00  0.00     0.201 C 
ENDBRANCH  22  23
ENDBRANCH   1  22
BRANCH  13  25
HETATM   25  C20 UNL     1      22.128  -1.875  54.584  1.00  0.00     0.198 C 
BRANCH  25  26
HETATM   26  O4  UNL     1      22.823  -1.934  55.792  1.00  0.00    -0.398 OA
HETATM   27  H30 UNL     1      23.766  -2.135  55.608  1.00  0.00     0.209 HD
ENDBRANCH  25  26
ENDBRANCH  13  25
TORSDOF 5
ENDMDL
