MODEL 1
REMARK VINA RESULT:      -7.8      0.000      0.000
REMARK  4 active torsions:
REMARK  status: ('A' for Active; 'I' for Inactive)
REMARK    1  A    between atoms: C4_5  and  C6_7 
REMARK    2  A    between atoms: C6_7  and  C7_8 
REMARK    3  A    between atoms: C7_8  and  C8_9 
REMARK    4  A    between atoms: C10_11  and  C11_12 
ROOT
HETATM    1  C8  UNL     1      26.400   1.466  52.187  1.00  0.00     0.041 A 
HETATM    2  C9  UNL     1      24.895   1.499  52.380  1.00  0.00     0.119 A 
HETATM    3  C10 UNL     1      24.446   0.224  52.958  1.00  0.00     0.051 A 
HETATM    4  N1  UNL     1      25.217  -0.784  53.322  1.00  0.00    -0.245 NA
HETATM    5  C17 UNL     1      26.628  -0.687  53.146  1.00  0.00     0.233 A 
HETATM    6  N2  UNL     1      27.177   0.338  52.633  1.00  0.00    -0.246 NA
ENDROOT
BRANCH   1   7
HETATM    7  C7  UNL     1      26.978   2.523  51.571  1.00  0.00     0.028 C 
BRANCH   7   8
HETATM    8  C6  UNL     1      26.472   2.731  50.225  1.00  0.00     0.009 C 
BRANCH   8   9
HETATM    9  C4  UNL     1      26.110   3.846  49.579  1.00  0.00    -0.055 C 
HETATM   10  C3  UNL     1      24.703   3.881  49.264  1.00  0.00    -0.040 A 
HETATM   11  C2  UNL     1      23.492   3.034  49.345  1.00  0.00     0.028 A 
HETATM   12  O1  UNL     1      23.703   4.485  48.823  1.00  0.00     0.000 OA
HETATM   13  C1  UNL     1      22.343   3.658  48.987  1.00  0.00     0.011 A 
HETATM   14  C5  UNL     1      26.588   5.107  49.009  1.00  0.00     0.049 C 
ENDBRANCH   8   9
ENDBRANCH   7   8
ENDBRANCH   1   7
BRANCH   3  15
HETATM   15  C11 UNL     1      23.024  -0.129  53.165  1.00  0.00    -0.010 A 
HETATM   16  C12 UNL     1      22.701  -0.857  54.322  1.00  0.00     0.013 A 
HETATM   17  C13 UNL     1      21.368  -1.192  54.619  1.00  0.00     0.002 A 
HETATM   18  C14 UNL     1      20.358  -0.785  53.731  1.00  0.00     0.019 A 
HETATM   19  C15 UNL     1      20.695  -0.077  52.609  1.00  0.00     0.011 A 
HETATM   20 BR1  UNL     1      19.376   0.533  51.354  1.00  0.00    -0.051 Br
HETATM   21  C16 UNL     1      22.006   0.260  52.304  1.00  0.00     0.032 A 
ENDBRANCH   3  15
TORSDOF 4
ENDMDL
MODEL 2
REMARK VINA RESULT:      -7.8      3.351      6.280
REMARK  4 active torsions:
REMARK  status: ('A' for Active; 'I' for Inactive)
REMARK    1  A    between atoms: C4_5  and  C6_7 
REMARK    2  A    between atoms: C6_7  and  C7_8 
REMARK    3  A    between atoms: C7_8  and  C8_9 
REMARK    4  A    between atoms: C10_11  and  C11_12 
ROOT
HETATM    1  C8  UNL     1      24.048   2.646  51.040  1.00  0.00     0.041 A 
HETATM    2  C9  UNL     1      24.831   1.838  52.059  1.00  0.00     0.119 A 
HETATM    3  C10 UNL     1      26.271   2.031  51.837  1.00  0.00     0.051 A 
HETATM    4  N1  UNL     1      26.824   2.827  50.940  1.00  0.00    -0.245 NA
HETATM    5  C17 UNL     1      25.992   3.584  50.066  1.00  0.00     0.233 A 
HETATM    6  N2  UNL     1      24.723   3.512  50.108  1.00  0.00    -0.246 NA
ENDROOT
BRANCH   1   7
HETATM    7  C7  UNL     1      22.701   2.511  51.031  1.00  0.00     0.028 C 
BRANCH   7   8
HETATM    8  C6  UNL     1      22.278   1.122  51.051  1.00  0.00     0.009 C 
BRANCH   8   9
HETATM    9  C4  UNL     1      21.189   0.536  51.564  1.00  0.00    -0.055 C 
HETATM   10  C3  UNL     1      21.458  -0.177  52.788  1.00  0.00    -0.040 A 
HETATM   11  C2  UNL     1      22.589  -0.564  53.660  1.00  0.00     0.028 A 
HETATM   12  O1  UNL     1      21.059  -0.820  53.780  1.00  0.00     0.000 OA
HETATM   13  C1  UNL     1      22.227  -1.171  54.817  1.00  0.00     0.011 A 
HETATM   14  C5  UNL     1      19.758   0.291  51.368  1.00  0.00     0.049 C 
ENDBRANCH   8   9
ENDBRANCH   7   8
ENDBRANCH   1   7
BRANCH   3  15
HETATM   15  C11 UNL     1      27.322   1.296  52.576  1.00  0.00    -0.010 A 
HETATM   16  C12 UNL     1      28.165   2.044  53.413  1.00  0.00     0.013 A 
HETATM   17  C13 UNL     1      29.160   1.418  54.186  1.00  0.00     0.002 A 
HETATM   18  C14 UNL     1      29.296   0.022  54.105  1.00  0.00     0.019 A 
HETATM   19  C15 UNL     1      28.463  -0.687  53.281  1.00  0.00     0.011 A 
HETATM   20 BR1  UNL     1      28.570  -2.598  53.125  1.00  0.00    -0.051 Br
HETATM   21  C16 UNL     1      27.479  -0.082  52.513  1.00  0.00     0.032 A 
ENDBRANCH   3  15
TORSDOF 4
ENDMDL
MODEL 3
REMARK VINA RESULT:      -7.7      2.590      4.639
REMARK  4 active torsions:
REMARK  status: ('A' for Active; 'I' for Inactive)
REMARK    1  A    between atoms: C4_5  and  C6_7 
REMARK    2  A    between atoms: C6_7  and  C7_8 
REMARK    3  A    between atoms: C7_8  and  C8_9 
REMARK    4  A    between atoms: C10_11  and  C11_12 
ROOT
HETATM    1  C8  UNL     1      23.587  -0.779  54.364  1.00  0.00     0.041 A 
HETATM    2  C9  UNL     1      23.269  -0.009  53.096  1.00  0.00     0.119 A 
HETATM    3  C10 UNL     1      21.839  -0.145  52.784  1.00  0.00     0.051 A 
HETATM    4  N1  UNL     1      20.938  -0.779  53.511  1.00  0.00    -0.245 NA
HETATM    5  C17 UNL     1      21.337  -1.425  54.717  1.00  0.00     0.233 A 
HETATM    6  N2  UNL     1      22.544  -1.427  55.117  1.00  0.00    -0.246 NA
ENDROOT
BRANCH   1   7
HETATM    7  C7  UNL     1      24.883  -0.848  54.750  1.00  0.00     0.028 C 
BRANCH   7   8
HETATM    8  C6  UNL     1      25.806  -0.571  53.664  1.00  0.00     0.009 C 
BRANCH   8   9
HETATM    9  C4  UNL     1      26.963   0.103  53.635  1.00  0.00    -0.055 C 
HETATM   10  C3  UNL     1      26.983   1.143  52.636  1.00  0.00    -0.040 A 
HETATM   11  C2  UNL     1      26.157   1.686  51.535  1.00  0.00     0.028 A 
HETATM   12  O1  UNL     1      27.543   2.118  52.095  1.00  0.00     0.000 OA
HETATM   13  C1  UNL     1      26.646   2.817  50.968  1.00  0.00     0.011 A 
HETATM   14  C5  UNL     1      28.300   0.207  54.222  1.00  0.00     0.049 C 
ENDBRANCH   8   9
ENDBRANCH   7   8
ENDBRANCH   1   7
BRANCH   3  15
HETATM   15  C11 UNL     1      21.213   0.381  51.551  1.00  0.00    -0.010 A 
HETATM   16  C12 UNL     1      19.811   0.375  51.486  1.00  0.00     0.013 A 
HETATM   17  C13 UNL     1      19.135   0.899  50.369  1.00  0.00     0.002 A 
HETATM   18  C14 UNL     1      19.892   1.431  49.313  1.00  0.00     0.019 A 
HETATM   19  C15 UNL     1      21.259   1.426  49.397  1.00  0.00     0.011 A 
HETATM   20 BR1  UNL     1      22.368   2.151  48.008  1.00  0.00    -0.051 Br
HETATM   21  C16 UNL     1      21.938   0.912  50.492  1.00  0.00     0.032 A 
ENDBRANCH   3  15
TORSDOF 4
ENDMDL
MODEL 4
REMARK VINA RESULT:      -7.6      3.431      5.369
REMARK  4 active torsions:
REMARK  status: ('A' for Active; 'I' for Inactive)
REMARK    1  A    between atoms: C4_5  and  C6_7 
REMARK    2  A    between atoms: C6_7  and  C7_8 
REMARK    3  A    between atoms: C7_8  and  C8_9 
REMARK    4  A    between atoms: C10_11  and  C11_12 
ROOT
HETATM    1  C8  UNL     1      23.449  -0.821  54.376  1.00  0.00     0.041 A 
HETATM    2  C9  UNL     1      23.118  -0.026  53.126  1.00  0.00     0.119 A 
HETATM    3  C10 UNL     1      21.698  -0.203  52.793  1.00  0.00     0.051 A 
HETATM    4  N1  UNL     1      20.811  -0.889  53.490  1.00  0.00    -0.245 NA
HETATM    5  C17 UNL     1      21.219  -1.556  54.681  1.00  0.00     0.233 A 
HETATM    6  N2  UNL     1      22.420  -1.527  55.096  1.00  0.00    -0.246 NA
ENDROOT
BRANCH   1   7
HETATM    7  C7  UNL     1      24.741  -0.856  54.776  1.00  0.00     0.028 C 
BRANCH   7   8
HETATM    8  C6  UNL     1      25.659  -0.404  53.745  1.00  0.00     0.009 C 
BRANCH   8   9
HETATM    9  C4  UNL     1      26.460   0.667  53.680  1.00  0.00    -0.055 C 
HETATM   10  C3  UNL     1      27.859   0.320  53.630  1.00  0.00    -0.040 A 
HETATM   11  C2  UNL     1      28.747  -0.861  53.712  1.00  0.00     0.028 A 
HETATM   12  O1  UNL     1      29.055   0.649  53.501  1.00  0.00     0.000 OA
HETATM   13  C1  UNL     1      30.056  -0.600  53.471  1.00  0.00     0.011 A 
HETATM   14  C5  UNL     1      26.500   2.130  53.658  1.00  0.00     0.049 C 
ENDBRANCH   8   9
ENDBRANCH   7   8
ENDBRANCH   1   7
BRANCH   3  15
HETATM   15  C11 UNL     1      21.068   0.337  51.568  1.00  0.00    -0.010 A 
HETATM   16  C12 UNL     1      19.665   0.354  51.517  1.00  0.00     0.013 A 
HETATM   17  C13 UNL     1      18.986   0.893  50.409  1.00  0.00     0.002 A 
HETATM   18  C14 UNL     1      19.741   1.416  49.346  1.00  0.00     0.019 A 
HETATM   19  C15 UNL     1      21.109   1.387  49.416  1.00  0.00     0.011 A 
HETATM   20 BR1  UNL     1      22.216   2.096  48.017  1.00  0.00    -0.051 Br
HETATM   21  C16 UNL     1      21.791   0.858  50.503  1.00  0.00     0.032 A 
ENDBRANCH   3  15
TORSDOF 4
ENDMDL
MODEL 5
REMARK VINA RESULT:      -7.6      3.095      5.853
REMARK  4 active torsions:
REMARK  status: ('A' for Active; 'I' for Inactive)
REMARK    1  A    between atoms: C4_5  and  C6_7 
REMARK    2  A    between atoms: C6_7  and  C7_8 
REMARK    3  A    between atoms: C7_8  and  C8_9 
REMARK    4  A    between atoms: C10_11  and  C11_12 
ROOT
HETATM    1  C8  UNL     1      21.304  -0.713  53.812  1.00  0.00     0.041 A 
HETATM    2  C9  UNL     1      22.417  -0.151  52.947  1.00  0.00     0.119 A 
HETATM    3  C10 UNL     1      23.711  -0.366  53.611  1.00  0.00     0.051 A 
HETATM    4  N1  UNL     1      23.908  -1.001  54.751  1.00  0.00    -0.245 NA
HETATM    5  C17 UNL     1      22.793  -1.538  55.457  1.00  0.00     0.233 A 
HETATM    6  N2  UNL     1      21.600  -1.416  55.034  1.00  0.00    -0.246 NA
ENDROOT
BRANCH   1   7
HETATM    7  C7  UNL     1      20.029  -0.516  53.403  1.00  0.00     0.028 C 
BRANCH   7   8
HETATM    8  C6  UNL     1      19.917   0.535  52.407  1.00  0.00     0.009 C 
BRANCH   8   9
HETATM    9  C4  UNL     1      19.322   0.559  51.207  1.00  0.00    -0.055 C 
HETATM   10  C3  UNL     1      20.203   0.990  50.151  1.00  0.00    -0.040 A 
HETATM   11  C2  UNL     1      21.572   1.514  49.947  1.00  0.00     0.028 A 
HETATM   12  O1  UNL     1      20.432   1.184  48.940  1.00  0.00     0.000 OA
HETATM   13  C1  UNL     1      21.937   1.647  48.647  1.00  0.00     0.011 A 
HETATM   14  C5  UNL     1      18.064   0.333  50.493  1.00  0.00     0.049 C 
ENDBRANCH   8   9
ENDBRANCH   7   8
ENDBRANCH   1   7
BRANCH   3  15
HETATM   15  C11 UNL     1      24.994   0.165  53.100  1.00  0.00    -0.010 A 
HETATM   16  C12 UNL     1      24.934   1.179  52.131  1.00  0.00     0.013 A 
HETATM   17  C13 UNL     1      26.106   1.770  51.627  1.00  0.00     0.002 A 
HETATM   18  C14 UNL     1      27.347   1.326  52.112  1.00  0.00     0.019 A 
HETATM   19  C15 UNL     1      27.383   0.336  53.057  1.00  0.00     0.011 A 
HETATM   20 BR1  UNL     1      29.034  -0.317  53.788  1.00  0.00    -0.051 Br
HETATM   21  C16 UNL     1      26.234  -0.257  53.563  1.00  0.00     0.032 A 
ENDBRANCH   3  15
TORSDOF 4
ENDMDL
MODEL 6
REMARK VINA RESULT:      -7.6      3.892      7.332
REMARK  4 active torsions:
REMARK  status: ('A' for Active; 'I' for Inactive)
REMARK    1  A    between atoms: C4_5  and  C6_7 
REMARK    2  A    between atoms: C6_7  and  C7_8 
REMARK    3  A    between atoms: C7_8  and  C8_9 
REMARK    4  A    between atoms: C10_11  and  C11_12 
ROOT
HETATM    1  C8  UNL     1      23.721   2.116  51.069  1.00  0.00     0.041 A 
HETATM    2  C9  UNL     1      24.928   3.023  50.911  1.00  0.00     0.119 A 
HETATM    3  C10 UNL     1      24.763   3.854  49.711  1.00  0.00     0.051 A 
HETATM    4  N1  UNL     1      23.711   3.876  48.912  1.00  0.00    -0.245 NA
HETATM    5  C17 UNL     1      22.607   3.019  49.185  1.00  0.00     0.233 A 
HETATM    6  N2  UNL     1      22.600   2.215  50.170  1.00  0.00    -0.246 NA
ENDROOT
BRANCH   1   7
HETATM    7  C7  UNL     1      23.745   1.206  52.070  1.00  0.00     0.028 C 
BRANCH   7   8
HETATM    8  C6  UNL     1      25.085   0.726  52.359  1.00  0.00     0.009 C 
BRANCH   8   9
HETATM    9  C4  UNL     1      25.677   0.393  53.513  1.00  0.00    -0.055 C 
HETATM   10  C3  UNL     1      26.928   1.080  53.722  1.00  0.00    -0.040 A 
HETATM   11  C2  UNL     1      27.855   2.002  53.028  1.00  0.00     0.028 A 
HETATM   12  O1  UNL     1      27.905   1.360  54.445  1.00  0.00     0.000 OA
HETATM   13  C1  UNL     1      28.887   2.441  53.790  1.00  0.00     0.011 A 
HETATM   14  C5  UNL     1      25.578  -0.446  54.709  1.00  0.00     0.049 C 
ENDBRANCH   8   9
ENDBRANCH   7   8
ENDBRANCH   1   7
BRANCH   3  15
HETATM   15  C11 UNL     1      25.807   4.766  49.193  1.00  0.00    -0.010 A 
HETATM   16  C12 UNL     1      27.110   4.254  49.073  1.00  0.00     0.013 A 
HETATM   17  C13 UNL     1      28.151   5.039  48.547  1.00  0.00     0.002 A 
HETATM   18  C14 UNL     1      27.865   6.353  48.141  1.00  0.00     0.019 A 
HETATM   19  C15 UNL     1      26.589   6.832  48.268  1.00  0.00     0.011 A 
HETATM   20 BR1  UNL     1      26.107   8.608  47.720  1.00  0.00    -0.051 Br
HETATM   21  C16 UNL     1      25.552   6.069  48.786  1.00  0.00     0.032 A 
ENDBRANCH   3  15
TORSDOF 4
ENDMDL
MODEL 7
REMARK VINA RESULT:      -7.5      2.784      4.467
REMARK  4 active torsions:
REMARK  status: ('A' for Active; 'I' for Inactive)
REMARK    1  A    between atoms: C4_5  and  C6_7 
REMARK    2  A    between atoms: C6_7  and  C7_8 
REMARK    3  A    between atoms: C7_8  and  C8_9 
REMARK    4  A    between atoms: C10_11  and  C11_12 
ROOT
HETATM    1  C8  UNL     1      25.357   2.347  51.381  1.00  0.00     0.041 A 
HETATM    2  C9  UNL     1      24.458   1.282  51.980  1.00  0.00     0.119 A 
HETATM    3  C10 UNL     1      23.051   1.642  51.751  1.00  0.00     0.051 A 
HETATM    4  N1  UNL     1      22.612   2.689  51.077  1.00  0.00    -0.245 NA
HETATM    5  C17 UNL     1      23.548   3.600  50.508  1.00  0.00     0.233 A 
HETATM    6  N2  UNL     1      24.804   3.450  50.638  1.00  0.00    -0.246 NA
ENDROOT
BRANCH   1   7
HETATM    7  C7  UNL     1      26.691   2.232  51.585  1.00  0.00     0.028 C 
BRANCH   7   8
HETATM    8  C6  UNL     1      27.021   1.910  52.962  1.00  0.00     0.009 C 
BRANCH   8   9
HETATM    9  C4  UNL     1      28.019   1.188  53.487  1.00  0.00    -0.055 C 
HETATM   10  C3  UNL     1      27.870  -0.228  53.260  1.00  0.00    -0.040 A 
HETATM   11  C2  UNL     1      26.909  -1.199  52.692  1.00  0.00     0.028 A 
HETATM   12  O1  UNL     1      28.314  -1.392  53.331  1.00  0.00     0.000 OA
HETATM   13  C1  UNL     1      27.365  -2.474  52.632  1.00  0.00     0.011 A 
HETATM   14  C5  UNL     1      29.261   1.251  54.261  1.00  0.00     0.049 C 
ENDBRANCH   8   9
ENDBRANCH   7   8
ENDBRANCH   1   7
BRANCH   3  15
HETATM   15  C11 UNL     1      21.908   0.884  52.307  1.00  0.00    -0.010 A 
HETATM   16  C12 UNL     1      22.060   0.337  53.592  1.00  0.00     0.013 A 
HETATM   17  C13 UNL     1      21.006  -0.357  54.213  1.00  0.00     0.002 A 
HETATM   18  C14 UNL     1      19.792  -0.497  53.521  1.00  0.00     0.019 A 
HETATM   19  C15 UNL     1      19.666   0.044  52.269  1.00  0.00     0.011 A 
HETATM   20 BR1  UNL     1      18.036  -0.084  51.263  1.00  0.00    -0.051 Br
HETATM   21  C16 UNL     1      20.697   0.731  51.645  1.00  0.00     0.032 A 
ENDBRANCH   3  15
TORSDOF 4
ENDMDL
MODEL 8
REMARK VINA RESULT:      -7.4      3.598      6.838
REMARK  4 active torsions:
REMARK  status: ('A' for Active; 'I' for Inactive)
REMARK    1  A    between atoms: C4_5  and  C6_7 
REMARK    2  A    between atoms: C6_7  and  C7_8 
REMARK    3  A    between atoms: C7_8  and  C8_9 
REMARK    4  A    between atoms: C10_11  and  C11_12 
ROOT
HETATM    1  C8  UNL     1      23.768   1.185  52.382  1.00  0.00     0.041 A 
HETATM    2  C9  UNL     1      24.902   1.860  51.633  1.00  0.00     0.119 A 
HETATM    3  C10 UNL     1      24.477   3.200  51.202  1.00  0.00     0.051 A 
HETATM    4  N1  UNL     1      23.318   3.775  51.466  1.00  0.00    -0.245 NA
HETATM    5  C17 UNL     1      22.342   3.069  52.226  1.00  0.00     0.233 A 
HETATM    6  N2  UNL     1      22.540   1.887  52.653  1.00  0.00    -0.246 NA
ENDROOT
BRANCH   1   7
HETATM    7  C7  UNL     1      23.947  -0.100  52.769  1.00  0.00     0.028 C 
BRANCH   7   8
HETATM    8  C6  UNL     1      25.207  -0.306  53.459  1.00  0.00     0.009 C 
BRANCH   8   9
HETATM    9  C4  UNL     1      26.319  -0.958  53.097  1.00  0.00    -0.055 C 
HETATM   10  C3  UNL     1      27.525  -0.233  53.412  1.00  0.00    -0.040 A 
HETATM   11  C2  UNL     1      27.965   1.075  53.947  1.00  0.00     0.028 A 
HETATM   12  O1  UNL     1      28.769  -0.170  53.474  1.00  0.00     0.000 OA
HETATM   13  C1  UNL     1      29.301   1.180  54.149  1.00  0.00     0.011 A 
HETATM   14  C5  UNL     1      26.841  -2.167  52.455  1.00  0.00     0.049 C 
ENDBRANCH   8   9
ENDBRANCH   7   8
ENDBRANCH   1   7
BRANCH   3  15
HETATM   15  C11 UNL     1      25.295   4.085  50.344  1.00  0.00    -0.010 A 
HETATM   16  C12 UNL     1      26.504   3.568  49.850  1.00  0.00     0.013 A 
HETATM   17  C13 UNL     1      27.319   4.326  48.990  1.00  0.00     0.002 A 
HETATM   18  C14 UNL     1      26.901   5.619  48.633  1.00  0.00     0.019 A 
HETATM   19  C15 UNL     1      25.719   6.103  49.127  1.00  0.00     0.011 A 
HETATM   20 BR1  UNL     1      25.065   7.851  48.675  1.00  0.00    -0.051 Br
HETATM   21  C16 UNL     1      24.906   5.366  49.976  1.00  0.00     0.032 A 
ENDBRANCH   3  15
TORSDOF 4
ENDMDL
MODEL 9
REMARK VINA RESULT:      -7.3      3.428      6.858
REMARK  4 active torsions:
REMARK  status: ('A' for Active; 'I' for Inactive)
REMARK    1  A    between atoms: C4_5  and  C6_7 
REMARK    2  A    between atoms: C6_7  and  C7_8 
REMARK    3  A    between atoms: C7_8  and  C8_9 
REMARK    4  A    between atoms: C10_11  and  C11_12 
ROOT
HETATM    1  C8  UNL     1      22.276   1.036  51.654  1.00  0.00     0.041 A 
HETATM    2  C9  UNL     1      23.369   2.087  51.590  1.00  0.00     0.119 A 
HETATM    3  C10 UNL     1      23.479   2.598  50.216  1.00  0.00     0.051 A 
HETATM    4  N1  UNL     1      22.716   2.260  49.192  1.00  0.00    -0.245 NA
HETATM    5  C17 UNL     1      21.681   1.298  49.377  1.00  0.00     0.233 A 
HETATM    6  N2  UNL     1      21.469   0.737  50.498  1.00  0.00    -0.246 NA
ENDROOT
BRANCH   1   7
HETATM    7  C7  UNL     1      22.100   0.381  52.825  1.00  0.00     0.028 C 
BRANCH   7   8
HETATM    8  C6  UNL     1      23.128  -0.616  53.069  1.00  0.00     0.009 C 
BRANCH   8   9
HETATM    9  C4  UNL     1      23.907  -0.842  54.135  1.00  0.00    -0.055 C 
HETATM   10  C3  UNL     1      25.314  -0.760  53.831  1.00  0.00    -0.040 A 
HETATM   11  C2  UNL     1      26.225  -0.583  52.679  1.00  0.00     0.028 A 
HETATM   12  O1  UNL     1      26.506  -0.758  54.199  1.00  0.00     0.000 OA
HETATM   13  C1  UNL     1      27.535  -0.459  53.010  1.00  0.00     0.011 A 
HETATM   14  C5  UNL     1      23.914  -1.180  55.560  1.00  0.00     0.049 C 
ENDBRANCH   8   9
ENDBRANCH   7   8
ENDBRANCH   1   7
BRANCH   3  15
HETATM   15  C11 UNL     1      24.523   3.548  49.774  1.00  0.00    -0.010 A 
HETATM   16  C12 UNL     1      25.860   3.130  49.874  1.00  0.00     0.013 A 
HETATM   17  C13 UNL     1      26.912   3.953  49.433  1.00  0.00     0.002 A 
HETATM   18  C14 UNL     1      26.600   5.210  48.888  1.00  0.00     0.019 A 
HETATM   19  C15 UNL     1      25.290   5.598  48.801  1.00  0.00     0.011 A 
HETATM   20 BR1  UNL     1      24.775   7.289  48.053  1.00  0.00    -0.051 Br
HETATM   21  C16 UNL     1      24.243   4.796  49.233  1.00  0.00     0.032 A 
ENDBRANCH   3  15
TORSDOF 4
ENDMDL
