MODEL 1
REMARK VINA RESULT:      -8.3      0.000      0.000
REMARK  5 active torsions:
REMARK  status: ('A' for Active; 'I' for Inactive)
REMARK    1  A    between atoms: O1_2  and  C2_3 
REMARK    2  A    between atoms: C6_9  and  N3_10 
REMARK    3  A    between atoms: N3_10  and  N4_11 
REMARK    4  A    between atoms: N4_11  and  C7_12 
REMARK    5  A    between atoms: C15_22  and  O2_23 
ROOT
HETATM    1  C2  UNL     1      23.967  -0.356  53.653  1.00  0.00     0.103 A 
HETATM    2  C3  UNL     1      25.091  -0.667  54.390  1.00  0.00     0.072 A 
HETATM    3  C4  UNL     1      26.266   0.021  54.208  1.00  0.00     0.074 A 
HETATM    4  N1  UNL     1      27.459  -0.185  54.785  1.00  0.00    -0.241 NA
HETATM    5  C5  UNL     1      28.584   0.483  54.527  1.00  0.00     0.235 A 
HETATM    6  N2  UNL     1      28.605   1.488  53.599  1.00  0.00    -0.228 NA
HETATM    7  C6  UNL     1      27.481   1.846  52.907  1.00  0.00     0.135 A 
HETATM    8  C13 UNL     1      26.423   1.032  53.326  1.00  0.00     0.037 A 
HETATM    9  C14 UNL     1      25.235   1.312  52.598  1.00  0.00     0.057 A 
HETATM   10  C15 UNL     1      23.991   0.676  52.701  1.00  0.00     0.102 A 
ENDROOT
BRANCH   7  11
HETATM   11  N3  UNL     1      27.343   2.819  51.940  1.00  0.00    -0.187 NA
HETATM   12  H6  UNL     1      26.609   2.152  51.524  1.00  0.00     0.154 HD
BRANCH  11  13
HETATM   13  N4  UNL     1      26.864   3.419  50.822  1.00  0.00    -0.316 N 
HETATM   14  H7  UNL     1      27.682   3.390  50.130  1.00  0.00     0.181 HD
BRANCH  13  15
HETATM   15  C7  UNL     1      25.861   4.086  50.069  1.00  0.00     0.045 A 
HETATM   16  C8  UNL     1      25.768   5.396  49.707  1.00  0.00     0.033 A 
HETATM   17  C9  UNL     1      24.661   5.772  48.983  1.00  0.00     0.046 A 
HETATM   18  C10 UNL     1      23.690   4.823  48.651  1.00  0.00     0.138 A 
HETATM   19  F1  UNL     1      22.618   5.260  47.937  1.00  0.00    -0.204 F 
HETATM   20  C11 UNL     1      23.770   3.506  49.010  1.00  0.00     0.074 A 
HETATM   21 CL1  UNL     1      22.486   2.419  48.538  1.00  0.00    -0.081 Cl
HETATM   22  C12 UNL     1      24.899   3.125  49.748  1.00  0.00     0.057 A 
ENDBRANCH  13  15
ENDBRANCH  11  13
ENDBRANCH   7  11
BRANCH  10  23
HETATM   23  O2  UNL     1      22.826   0.894  52.045  1.00  0.00    -0.353 OA
HETATM   24  C16 UNL     1      22.059   2.066  52.144  1.00  0.00     0.210 C 
ENDBRANCH  10  23
BRANCH   1  25
HETATM   25  O1  UNL     1      22.801  -1.060  53.847  1.00  0.00    -0.353 OA
HETATM   26  C1  UNL     1      21.911  -0.885  54.933  1.00  0.00     0.210 C 
ENDBRANCH   1  25
TORSDOF 5
ENDMDL
MODEL 2
REMARK VINA RESULT:      -8.1      1.329      1.636
REMARK  5 active torsions:
REMARK  status: ('A' for Active; 'I' for Inactive)
REMARK    1  A    between atoms: O1_2  and  C2_3 
REMARK    2  A    between atoms: C6_9  and  N3_10 
REMARK    3  A    between atoms: N3_10  and  N4_11 
REMARK    4  A    between atoms: N4_11  and  C7_12 
REMARK    5  A    between atoms: C15_22  and  O2_23 
ROOT
HETATM    1  C2  UNL     1      24.043  -0.387  53.677  1.00  0.00     0.103 A 
HETATM    2  C3  UNL     1      25.191  -0.682  54.383  1.00  0.00     0.072 A 
HETATM    3  C4  UNL     1      26.350   0.023  54.171  1.00  0.00     0.074 A 
HETATM    4  N1  UNL     1      27.561  -0.166  54.716  1.00  0.00    -0.241 NA
HETATM    5  C5  UNL     1      28.669   0.518  54.429  1.00  0.00     0.235 A 
HETATM    6  N2  UNL     1      28.651   1.524  53.502  1.00  0.00    -0.228 NA
HETATM    7  C6  UNL     1      27.503   1.867  52.841  1.00  0.00     0.135 A 
HETATM    8  C13 UNL     1      26.469   1.037  53.286  1.00  0.00     0.037 A 
HETATM    9  C14 UNL     1      25.259   1.301  52.591  1.00  0.00     0.057 A 
HETATM   10  C15 UNL     1      24.027   0.647  52.725  1.00  0.00     0.102 A 
ENDROOT
BRANCH   7  11
HETATM   11  N3  UNL     1      27.326   2.840  51.879  1.00  0.00    -0.187 NA
HETATM   12  H6  UNL     1      26.592   2.162  51.482  1.00  0.00     0.154 HD
BRANCH  11  13
HETATM   13  N4  UNL     1      26.809   3.434  50.776  1.00  0.00    -0.316 N 
HETATM   14  H7  UNL     1      27.639   3.515  50.101  1.00  0.00     0.181 HD
BRANCH  13  15
HETATM   15  C7  UNL     1      25.758   4.027  50.027  1.00  0.00     0.045 A 
HETATM   16  C8  UNL     1      24.489   3.584  49.803  1.00  0.00     0.033 A 
HETATM   17  C9  UNL     1      23.680   4.366  49.013  1.00  0.00     0.046 A 
HETATM   18  C10 UNL     1      24.172   5.560  48.478  1.00  0.00     0.138 A 
HETATM   19  F1  UNL     1      23.323   6.286  47.701  1.00  0.00    -0.204 F 
HETATM   20  C11 UNL     1      25.443   6.015  48.693  1.00  0.00     0.074 A 
HETATM   21 CL1  UNL     1      25.940   7.523  47.963  1.00  0.00    -0.081 Cl
HETATM   22  C12 UNL     1      26.266   5.216  49.499  1.00  0.00     0.057 A 
ENDBRANCH  13  15
ENDBRANCH  11  13
ENDBRANCH   7  11
BRANCH  10  23
HETATM   23  O2  UNL     1      22.842   0.849  52.101  1.00  0.00    -0.353 OA
HETATM   24  C16 UNL     1      22.089   2.032  52.176  1.00  0.00     0.210 C 
ENDBRANCH  10  23
BRANCH   1  25
HETATM   25  O1  UNL     1      22.893  -1.108  53.900  1.00  0.00    -0.353 OA
HETATM   26  C1  UNL     1      21.925  -0.817  54.889  1.00  0.00     0.210 C 
ENDBRANCH   1  25
TORSDOF 5
ENDMDL
MODEL 3
REMARK VINA RESULT:      -8.0      3.460      5.601
REMARK  5 active torsions:
REMARK  status: ('A' for Active; 'I' for Inactive)
REMARK    1  A    between atoms: O1_2  and  C2_3 
REMARK    2  A    between atoms: C6_9  and  N3_10 
REMARK    3  A    between atoms: N3_10  and  N4_11 
REMARK    4  A    between atoms: N4_11  and  C7_12 
REMARK    5  A    between atoms: C15_22  and  O2_23 
ROOT
HETATM    1  C2  UNL     1      21.799   0.649  53.150  1.00  0.00     0.103 A 
HETATM    2  C3  UNL     1      21.159   1.812  52.775  1.00  0.00     0.072 A 
HETATM    3  C4  UNL     1      21.865   2.870  52.257  1.00  0.00     0.074 A 
HETATM    4  N1  UNL     1      21.420   4.085  51.902  1.00  0.00    -0.241 NA
HETATM    5  C5  UNL     1      22.164   5.097  51.455  1.00  0.00     0.235 A 
HETATM    6  N2  UNL     1      23.518   4.962  51.316  1.00  0.00    -0.228 NA
HETATM    7  C6  UNL     1      24.155   3.791  51.626  1.00  0.00     0.135 A 
HETATM    8  C13 UNL     1      23.202   2.869  52.069  1.00  0.00     0.037 A 
HETATM    9  C14 UNL     1      23.809   1.648  52.467  1.00  0.00     0.057 A 
HETATM   10  C15 UNL     1      23.190   0.513  53.007  1.00  0.00     0.102 A 
ENDROOT
BRANCH   7  11
HETATM   11  N3  UNL     1      25.503   3.504  51.553  1.00  0.00    -0.187 NA
HETATM   12  H6  UNL     1      25.326   2.956  52.461  1.00  0.00     0.154 HD
BRANCH  11  13
HETATM   13  N4  UNL     1      26.694   2.973  51.922  1.00  0.00    -0.316 N 
HETATM   14  H7  UNL     1      27.416   3.490  51.321  1.00  0.00     0.181 HD
BRANCH  13  15
HETATM   15  C7  UNL     1      27.512   2.083  52.668  1.00  0.00     0.045 A 
HETATM   16  C8  UNL     1      28.543   2.350  53.516  1.00  0.00     0.033 A 
HETATM   17  C9  UNL     1      29.176   1.275  54.095  1.00  0.00     0.046 A 
HETATM   18  C10 UNL     1      28.753  -0.024  53.804  1.00  0.00     0.138 A 
HETATM   19  F1  UNL     1      29.423  -1.043  54.406  1.00  0.00    -0.204 F 
HETATM   20  C11 UNL     1      27.720  -0.306  52.953  1.00  0.00     0.074 A 
HETATM   21 CL1  UNL     1      27.289  -1.975  52.665  1.00  0.00    -0.081 Cl
HETATM   22  C12 UNL     1      27.076   0.791  52.363  1.00  0.00     0.057 A 
ENDBRANCH  13  15
ENDBRANCH  11  13
ENDBRANCH   7  11
BRANCH  10  23
HETATM   23  O2  UNL     1      23.706  -0.676  53.402  1.00  0.00    -0.353 OA
HETATM   24  C16 UNL     1      24.382  -0.893  54.613  1.00  0.00     0.210 C 
ENDBRANCH  10  23
BRANCH   1  25
HETATM   25  O1  UNL     1      21.075  -0.398  53.672  1.00  0.00    -0.353 OA
HETATM   26  C1  UNL     1      19.681  -0.583  53.521  1.00  0.00     0.210 C 
ENDBRANCH   1  25
TORSDOF 5
ENDMDL
MODEL 4
REMARK VINA RESULT:      -7.8      3.611      6.067
REMARK  5 active torsions:
REMARK  status: ('A' for Active; 'I' for Inactive)
REMARK    1  A    between atoms: O1_2  and  C2_3 
REMARK    2  A    between atoms: C6_9  and  N3_10 
REMARK    3  A    between atoms: N3_10  and  N4_11 
REMARK    4  A    between atoms: N4_11  and  C7_12 
REMARK    5  A    between atoms: C15_22  and  O2_23 
ROOT
HETATM    1  C2  UNL     1      27.481   0.222  53.805  1.00  0.00     0.103 A 
HETATM    2  C3  UNL     1      27.827   1.139  52.834  1.00  0.00     0.072 A 
HETATM    3  C4  UNL     1      26.867   1.883  52.193  1.00  0.00     0.074 A 
HETATM    4  N1  UNL     1      27.016   2.765  51.193  1.00  0.00    -0.241 NA
HETATM    5  C5  UNL     1      26.037   3.419  50.568  1.00  0.00     0.235 A 
HETATM    6  N2  UNL     1      24.729   3.229  50.923  1.00  0.00    -0.228 NA
HETATM    7  C6  UNL     1      24.379   2.368  51.927  1.00  0.00     0.135 A 
HETATM    8  C13 UNL     1      25.544   1.792  52.446  1.00  0.00     0.037 A 
HETATM    9  C14 UNL     1      25.244   0.838  53.455  1.00  0.00     0.057 A 
HETATM   10  C15 UNL     1      26.138   0.028  54.168  1.00  0.00     0.102 A 
ENDROOT
BRANCH   7  11
HETATM   11  N3  UNL     1      23.117   2.059  52.391  1.00  0.00    -0.187 NA
HETATM   12  H6  UNL     1      23.197   1.215  51.729  1.00  0.00     0.154 HD
BRANCH  11  13
HETATM   13  N4  UNL     1      21.959   1.364  52.509  1.00  0.00    -0.316 N 
HETATM   14  H7  UNL     1      21.257   1.908  51.908  1.00  0.00     0.181 HD
BRANCH  13  15
HETATM   15  C7  UNL     1      21.160   0.305  53.015  1.00  0.00     0.045 A 
HETATM   16  C8  UNL     1      21.473  -0.675  53.908  1.00  0.00     0.033 A 
HETATM   17  C9  UNL     1      20.493  -1.592  54.205  1.00  0.00     0.046 A 
HETATM   18  C10 UNL     1      19.238  -1.495  53.598  1.00  0.00     0.138 A 
HETATM   19  F1  UNL     1      18.315  -2.436  53.931  1.00  0.00    -0.204 F 
HETATM   20  C11 UNL     1      18.911  -0.518  52.699  1.00  0.00     0.074 A 
HETATM   21 CL1  UNL     1      17.308  -0.507  52.003  1.00  0.00    -0.081 Cl
HETATM   22  C12 UNL     1      19.912   0.417  52.397  1.00  0.00     0.057 A 
ENDBRANCH  13  15
ENDBRANCH  11  13
ENDBRANCH   7  11
BRANCH  10  23
HETATM   23  O2  UNL     1      25.920  -0.893  55.137  1.00  0.00    -0.353 OA
HETATM   24  C16 UNL     1      24.657  -1.245  55.638  1.00  0.00     0.210 C 
ENDBRANCH  10  23
BRANCH   1  25
HETATM   25  O1  UNL     1      28.457  -0.517  54.433  1.00  0.00    -0.353 OA
HETATM   26  C1  UNL     1      29.663  -0.952  53.837  1.00  0.00     0.210 C 
ENDBRANCH   1  25
TORSDOF 5
ENDMDL
MODEL 5
REMARK VINA RESULT:      -7.6      3.102      4.352
REMARK  5 active torsions:
REMARK  status: ('A' for Active; 'I' for Inactive)
REMARK    1  A    between atoms: O1_2  and  C2_3 
REMARK    2  A    between atoms: C6_9  and  N3_10 
REMARK    3  A    between atoms: N3_10  and  N4_11 
REMARK    4  A    between atoms: N4_11  and  C7_12 
REMARK    5  A    between atoms: C15_22  and  O2_23 
ROOT
HETATM    1  C2  UNL     1      26.943  -0.158  53.606  1.00  0.00     0.103 A 
HETATM    2  C3  UNL     1      25.724  -0.781  53.783  1.00  0.00     0.072 A 
HETATM    3  C4  UNL     1      24.570  -0.223  53.291  1.00  0.00     0.074 A 
HETATM    4  N1  UNL     1      23.306  -0.653  53.422  1.00  0.00    -0.241 NA
HETATM    5  C5  UNL     1      22.214  -0.038  52.968  1.00  0.00     0.235 A 
HETATM    6  N2  UNL     1      22.308   1.150  52.294  1.00  0.00    -0.228 NA
HETATM    7  C6  UNL     1      23.517   1.744  52.059  1.00  0.00     0.135 A 
HETATM    8  C13 UNL     1      24.522   0.943  52.610  1.00  0.00     0.037 A 
HETATM    9  C14 UNL     1      25.802   1.538  52.454  1.00  0.00     0.057 A 
HETATM   10  C15 UNL     1      27.037   1.061  52.914  1.00  0.00     0.102 A 
ENDROOT
BRANCH   7  11
HETATM   11  N3  UNL     1      23.775   2.935  51.412  1.00  0.00    -0.187 NA
HETATM   12  H6  UNL     1      24.804   2.632  51.490  1.00  0.00     0.154 HD
BRANCH  11  13
HETATM   13  N4  UNL     1      24.513   3.919  50.841  1.00  0.00    -0.316 N 
HETATM   14  H7  UNL     1      24.056   4.828  51.179  1.00  0.00     0.181 HD
BRANCH  13  15
HETATM   15  C7  UNL     1      25.563   4.402  50.016  1.00  0.00     0.045 A 
HETATM   16  C8  UNL     1      26.666   3.759  49.541  1.00  0.00     0.033 A 
HETATM   17  C9  UNL     1      27.537   4.491  48.769  1.00  0.00     0.046 A 
HETATM   18  C10 UNL     1      27.272   5.837  48.503  1.00  0.00     0.138 A 
HETATM   19  F1  UNL     1      28.175   6.505  47.736  1.00  0.00    -0.204 F 
HETATM   20  C11 UNL     1      26.170   6.495  48.974  1.00  0.00     0.074 A 
HETATM   21 CL1  UNL     1      25.954   8.182  48.576  1.00  0.00    -0.081 Cl
HETATM   22  C12 UNL     1      25.283   5.747  49.762  1.00  0.00     0.057 A 
ENDBRANCH  13  15
ENDBRANCH  11  13
ENDBRANCH   7  11
BRANCH  10  23
HETATM   23  O2  UNL     1      28.285   1.573  52.797  1.00  0.00    -0.353 OA
HETATM   24  C16 UNL     1      28.831   2.553  53.641  1.00  0.00     0.210 C 
ENDBRANCH  10  23
BRANCH   1  25
HETATM   25  O1  UNL     1      28.088  -0.731  54.111  1.00  0.00    -0.353 OA
HETATM   26  C1  UNL     1      29.024  -1.482  53.362  1.00  0.00     0.210 C 
ENDBRANCH   1  25
TORSDOF 5
ENDMDL
MODEL 6
REMARK VINA RESULT:      -7.5      4.023      6.230
REMARK  5 active torsions:
REMARK  status: ('A' for Active; 'I' for Inactive)
REMARK    1  A    between atoms: O1_2  and  C2_3 
REMARK    2  A    between atoms: C6_9  and  N3_10 
REMARK    3  A    between atoms: N3_10  and  N4_11 
REMARK    4  A    between atoms: N4_11  and  C7_12 
REMARK    5  A    between atoms: C15_22  and  O2_23 
ROOT
HETATM    1  C2  UNL     1      19.794  -0.440  53.115  1.00  0.00     0.103 A 
HETATM    2  C3  UNL     1      19.521   0.213  51.930  1.00  0.00     0.072 A 
HETATM    3  C4  UNL     1      20.524   0.816  51.211  1.00  0.00     0.074 A 
HETATM    4  N1  UNL     1      20.433   1.539  50.085  1.00  0.00    -0.241 NA
HETATM    5  C5  UNL     1      21.438   2.149  49.457  1.00  0.00     0.235 A 
HETATM    6  N2  UNL     1      22.715   2.078  49.945  1.00  0.00    -0.228 NA
HETATM    7  C6  UNL     1      23.006   1.380  51.085  1.00  0.00     0.135 A 
HETATM    8  C13 UNL     1      21.824   0.821  51.579  1.00  0.00     0.037 A 
HETATM    9  C14 UNL     1      22.048   0.132  52.801  1.00  0.00     0.057 A 
HETATM   10  C15 UNL     1      21.105  -0.512  53.614  1.00  0.00     0.102 A 
ENDROOT
BRANCH   7  11
HETATM   11  N3  UNL     1      24.228   1.225  51.707  1.00  0.00    -0.187 NA
HETATM   12  H6  UNL     1      24.607   1.775  50.864  1.00  0.00     0.154 HD
BRANCH  11  13
HETATM   13  N4  UNL     1      25.567   1.339  51.889  1.00  0.00    -0.316 N 
HETATM   14  H7  UNL     1      25.872   2.081  51.178  1.00  0.00     0.181 HD
BRANCH  13  15
HETATM   15  C7  UNL     1      26.798   0.993  52.506  1.00  0.00     0.045 A 
HETATM   16  C8  UNL     1      27.753   1.793  53.058  1.00  0.00     0.033 A 
HETATM   17  C9  UNL     1      28.868   1.178  53.574  1.00  0.00     0.046 A 
HETATM   18  C10 UNL     1      28.986  -0.214  53.519  1.00  0.00     0.138 A 
HETATM   19  F1  UNL     1      30.116  -0.760  54.044  1.00  0.00    -0.204 F 
HETATM   20  C11 UNL     1      28.037  -1.028  52.967  1.00  0.00     0.074 A 
HETATM   21 CL1  UNL     1      28.304  -2.755  52.953  1.00  0.00    -0.081 Cl
HETATM   22  C12 UNL     1      26.900  -0.399  52.440  1.00  0.00     0.057 A 
ENDBRANCH  13  15
ENDBRANCH  11  13
ENDBRANCH   7  11
BRANCH  10  23
HETATM   23  O2  UNL     1      21.251  -1.185  54.780  1.00  0.00    -0.353 OA
HETATM   24  C16 UNL     1      22.481  -1.603  55.315  1.00  0.00     0.210 C 
ENDBRANCH  10  23
BRANCH   1  25
HETATM   25  O1  UNL     1      18.775  -1.033  53.824  1.00  0.00    -0.353 OA
HETATM   26  C1  UNL     1      18.167  -2.269  53.503  1.00  0.00     0.210 C 
ENDBRANCH   1  25
TORSDOF 5
ENDMDL
MODEL 7
REMARK VINA RESULT:      -7.5      2.908      4.287
REMARK  5 active torsions:
REMARK  status: ('A' for Active; 'I' for Inactive)
REMARK    1  A    between atoms: O1_2  and  C2_3 
REMARK    2  A    between atoms: C6_9  and  N3_10 
REMARK    3  A    between atoms: N3_10  and  N4_11 
REMARK    4  A    between atoms: N4_11  and  C7_12 
REMARK    5  A    between atoms: C15_22  and  O2_23 
ROOT
HETATM    1  C2  UNL     1      27.426   0.719  53.555  1.00  0.00     0.103 A 
HETATM    2  C3  UNL     1      26.912  -0.113  54.528  1.00  0.00     0.072 A 
HETATM    3  C4  UNL     1      25.576  -0.428  54.552  1.00  0.00     0.074 A 
HETATM    4  N1  UNL     1      24.901  -1.162  55.450  1.00  0.00    -0.241 NA
HETATM    5  C5  UNL     1      23.587  -1.390  55.453  1.00  0.00     0.235 A 
HETATM    6  N2  UNL     1      22.782  -0.859  54.482  1.00  0.00    -0.228 NA
HETATM    7  C6  UNL     1      23.291  -0.083  53.477  1.00  0.00     0.135 A 
HETATM    8  C13 UNL     1      24.673   0.028  53.656  1.00  0.00     0.037 A 
HETATM    9  C14 UNL     1      25.256   0.876  52.677  1.00  0.00     0.057 A 
HETATM   10  C15 UNL     1      26.598   1.263  52.560  1.00  0.00     0.102 A 
ENDROOT
BRANCH   7  11
HETATM   11  N3  UNL     1      22.616   0.529  52.441  1.00  0.00    -0.187 NA
HETATM   12  H6  UNL     1      22.987  -0.292  51.855  1.00  0.00     0.154 HD
BRANCH  11  13
HETATM   13  N4  UNL     1      22.157   0.717  51.179  1.00  0.00    -0.316 N 
HETATM   14  H7  UNL     1      21.550  -0.145  50.983  1.00  0.00     0.181 HD
BRANCH  13  15
HETATM   15  C7  UNL     1      22.057   1.436  49.959  1.00  0.00     0.045 A 
HETATM   16  C8  UNL     1      21.288   1.189  48.862  1.00  0.00     0.033 A 
HETATM   17  C9  UNL     1      21.410   2.055  47.800  1.00  0.00     0.046 A 
HETATM   18  C10 UNL     1      22.295   3.133  47.877  1.00  0.00     0.138 A 
HETATM   19  F1  UNL     1      22.371   3.950  46.792  1.00  0.00    -0.204 F 
HETATM   20  C11 UNL     1      23.073   3.392  48.971  1.00  0.00     0.074 A 
HETATM   21 CL1  UNL     1      24.147   4.770  48.943  1.00  0.00    -0.081 Cl
HETATM   22  C12 UNL     1      22.948   2.507  50.053  1.00  0.00     0.057 A 
ENDBRANCH  13  15
ENDBRANCH  11  13
ENDBRANCH   7  11
BRANCH  10  23
HETATM   23  O2  UNL     1      27.215   2.060  51.655  1.00  0.00    -0.353 OA
HETATM   24  C16 UNL     1      26.560   2.967  50.808  1.00  0.00     0.210 C 
ENDBRANCH  10  23
BRANCH   1  25
HETATM   25  O1  UNL     1      28.767   1.027  53.551  1.00  0.00    -0.353 OA
HETATM   26  C1  UNL     1      29.397   1.950  54.418  1.00  0.00     0.210 C 
ENDBRANCH   1  25
TORSDOF 5
ENDMDL
MODEL 8
REMARK VINA RESULT:      -7.3      3.157      5.589
REMARK  5 active torsions:
REMARK  status: ('A' for Active; 'I' for Inactive)
REMARK    1  A    between atoms: O1_2  and  C2_3 
REMARK    2  A    between atoms: C6_9  and  N3_10 
REMARK    3  A    between atoms: N3_10  and  N4_11 
REMARK    4  A    between atoms: N4_11  and  C7_12 
REMARK    5  A    between atoms: C15_22  and  O2_23 
ROOT
HETATM    1  C2  UNL     1      25.706   3.029  51.061  1.00  0.00     0.103 A 
HETATM    2  C3  UNL     1      26.711   2.121  51.321  1.00  0.00     0.072 A 
HETATM    3  C4  UNL     1      26.472   1.004  52.085  1.00  0.00     0.074 A 
HETATM    4  N1  UNL     1      27.335   0.059  52.485  1.00  0.00    -0.241 NA
HETATM    5  C5  UNL     1      27.056  -0.978  53.276  1.00  0.00     0.235 A 
HETATM    6  N2  UNL     1      25.792  -1.165  53.765  1.00  0.00    -0.228 NA
HETATM    7  C6  UNL     1      24.774  -0.304  53.463  1.00  0.00     0.135 A 
HETATM    8  C13 UNL     1      25.273   0.701  52.628  1.00  0.00     0.037 A 
HETATM    9  C14 UNL     1      24.276   1.666  52.326  1.00  0.00     0.057 A 
HETATM   10  C15 UNL     1      24.409   2.835  51.565  1.00  0.00     0.102 A 
ENDROOT
BRANCH   7  11
HETATM   11  N3  UNL     1      23.460  -0.348  53.884  1.00  0.00    -0.187 NA
HETATM   12  H6  UNL     1      23.277  -0.783  52.918  1.00  0.00     0.154 HD
BRANCH  11  13
HETATM   13  N4  UNL     1      22.129  -0.594  53.818  1.00  0.00    -0.316 N 
HETATM   14  H7  UNL     1      21.925  -1.200  54.679  1.00  0.00     0.181 HD
BRANCH  13  15
HETATM   15  C7  UNL     1      20.848  -0.497  53.212  1.00  0.00     0.045 A 
HETATM   16  C8  UNL     1      19.639  -0.944  53.653  1.00  0.00     0.033 A 
HETATM   17  C9  UNL     1      18.552  -0.724  52.840  1.00  0.00     0.046 A 
HETATM   18  C10 UNL     1      18.717  -0.065  51.618  1.00  0.00     0.138 A 
HETATM   19  F1  UNL     1      17.604   0.117  50.859  1.00  0.00    -0.204 F 
HETATM   20  C11 UNL     1      19.925   0.387  51.163  1.00  0.00     0.074 A 
HETATM   21 CL1  UNL     1      20.002   1.190  49.613  1.00  0.00    -0.081 Cl
HETATM   22  C12 UNL     1      21.032   0.160  51.994  1.00  0.00     0.057 A 
ENDBRANCH  13  15
ENDBRANCH  11  13
ENDBRANCH   7  11
BRANCH  10  23
HETATM   23  O2  UNL     1      23.505   3.789  51.238  1.00  0.00    -0.353 OA
HETATM   24  C16 UNL     1      23.070   4.809  52.100  1.00  0.00     0.210 C 
ENDBRANCH  10  23
BRANCH   1  25
HETATM   25  O1  UNL     1      25.967   4.144  50.298  1.00  0.00    -0.353 OA
HETATM   26  C1  UNL     1      26.894   4.206  49.232  1.00  0.00     0.210 C 
ENDBRANCH   1  25
TORSDOF 5
ENDMDL
MODEL 9
REMARK VINA RESULT:      -7.3      4.429      6.480
REMARK  5 active torsions:
REMARK  status: ('A' for Active; 'I' for Inactive)
REMARK    1  A    between atoms: O1_2  and  C2_3 
REMARK    2  A    between atoms: C6_9  and  N3_10 
REMARK    3  A    between atoms: N3_10  and  N4_11 
REMARK    4  A    between atoms: N4_11  and  C7_12 
REMARK    5  A    between atoms: C15_22  and  O2_23 
ROOT
HETATM    1  C2  UNL     1      24.453   1.329  51.916  1.00  0.00     0.103 A 
HETATM    2  C3  UNL     1      25.159   0.589  52.841  1.00  0.00     0.072 A 
HETATM    3  C4  UNL     1      24.507  -0.174  53.780  1.00  0.00     0.074 A 
HETATM    4  N1  UNL     1      25.027  -0.898  54.782  1.00  0.00    -0.241 NA
HETATM    5  C5  UNL     1      24.340  -1.577  55.701  1.00  0.00     0.235 A 
HETATM    6  N2  UNL     1      22.971  -1.585  55.688  1.00  0.00    -0.228 NA
HETATM    7  C6  UNL     1      22.262  -0.905  54.736  1.00  0.00     0.135 A 
HETATM    8  C13 UNL     1      23.164  -0.269  53.877  1.00  0.00     0.037 A 
HETATM    9  C14 UNL     1      22.488   0.508  52.900  1.00  0.00     0.057 A 
HETATM   10  C15 UNL     1      23.048   1.319  51.904  1.00  0.00     0.102 A 
ENDROOT
BRANCH   7  11
HETATM   11  N3  UNL     1      20.893  -0.806  54.596  1.00  0.00    -0.187 NA
HETATM   12  H6  UNL     1      21.119  -0.619  53.562  1.00  0.00     0.154 HD
BRANCH  11  13
HETATM   13  N4  UNL     1      19.706  -0.619  53.968  1.00  0.00    -0.316 N 
HETATM   14  H7  UNL     1      18.989  -0.558  54.763  1.00  0.00     0.181 HD
BRANCH  13  15
HETATM   15  C7  UNL     1      18.887  -0.473  52.817  1.00  0.00     0.045 A 
HETATM   16  C8  UNL     1      19.127   0.196  51.655  1.00  0.00     0.033 A 
HETATM   17  C9  UNL     1      18.134   0.184  50.705  1.00  0.00     0.046 A 
HETATM   18  C10 UNL     1      16.938  -0.497  50.954  1.00  0.00     0.138 A 
HETATM   19  F1  UNL     1      15.994  -0.467  49.975  1.00  0.00    -0.204 F 
HETATM   20  C11 UNL     1      16.684  -1.170  52.116  1.00  0.00     0.074 A 
HETATM   21 CL1  UNL     1      15.146  -1.978  52.310  1.00  0.00    -0.081 Cl
HETATM   22  C12 UNL     1      17.699  -1.156  53.084  1.00  0.00     0.057 A 
ENDBRANCH  13  15
ENDBRANCH  11  13
ENDBRANCH   7  11
BRANCH  10  23
HETATM   23  O2  UNL     1      22.465   2.078  50.945  1.00  0.00    -0.353 OA
HETATM   24  C16 UNL     1      21.946   1.583  49.738  1.00  0.00     0.210 C 
ENDBRANCH  10  23
BRANCH   1  25
HETATM   25  O1  UNL     1      25.124   2.090  50.986  1.00  0.00    -0.353 OA
HETATM   26  C1  UNL     1      26.502   2.406  51.030  1.00  0.00     0.210 C 
ENDBRANCH   1  25
TORSDOF 5
ENDMDL
