MODEL 1
REMARK VINA RESULT:      -6.7      0.000      0.000
REMARK  6 active torsions:
REMARK  status: ('A' for Active; 'I' for Inactive)
REMARK    1  A    between atoms: C2_2  and  O1_3 
REMARK    2  A    between atoms: C2_2  and  C4_5 
REMARK    3  A    between atoms: C4_5  and  O2_6 
REMARK    4  A    between atoms: C4_5  and  C6_8 
REMARK    5  A    between atoms: C9_13  and  C10_14 
REMARK    6  A    between atoms: C12_16  and  O3_17 
ROOT
HETATM    1  C6  UNL     1      22.788   0.569  53.176  1.00  0.00     0.024 A 
HETATM    2  C7  UNL     1      21.393   0.579  53.301  1.00  0.00     0.130 A 
HETATM    3  N1  UNL     1      20.832  -0.355  54.113  1.00  0.00    -0.253 NA
HETATM    4  C8  UNL     1      21.594  -1.247  54.765  1.00  0.00     0.233 A 
HETATM    5  N2  UNL     1      22.912  -1.194  54.598  1.00  0.00    -0.241 NA
HETATM    6  C9  UNL     1      23.582  -0.327  53.832  1.00  0.00     0.079 A 
ENDROOT
BRANCH   6   7
HETATM    7  C10 UNL     1      25.019  -0.307  53.823  1.00  0.00    -0.007 A 
HETATM    8  C11 UNL     1      25.656  -1.005  52.866  1.00  0.00     0.023 A 
HETATM    9  C12 UNL     1      27.112  -0.944  52.919  1.00  0.00     0.170 A 
HETATM   10  C13 UNL     1      27.353  -0.094  54.112  1.00  0.00    -0.051 A 
HETATM   11  C14 UNL     1      28.659   0.303  54.669  1.00  0.00     0.046 C 
HETATM   12  C15 UNL     1      26.149   0.213  54.543  1.00  0.00     0.019 A 
BRANCH   9  13
HETATM   13  O3  UNL     1      27.606  -2.239  53.105  1.00  0.00    -0.387 OA
HETATM   14  H14 UNL     1      28.587  -2.216  52.864  1.00  0.00     0.210 HD
ENDBRANCH   9  13
ENDBRANCH   6   7
BRANCH   1  15
HETATM   15  C4  UNL     1      23.278   1.539  52.205  1.00  0.00     0.213 C 
BRANCH  15  16
HETATM   16  C2  UNL     1      22.599   1.431  50.864  1.00  0.00     0.070 C 
HETATM   17  C1  UNL     1      21.886   1.215  49.758  1.00  0.00     0.049 C 
BRANCH  16  18
HETATM   18  O1  UNL     1      23.361   2.320  50.150  1.00  0.00    -0.358 OA
HETATM   19  C3  UNL     1      23.112   2.831  48.882  1.00  0.00     0.209 C 
ENDBRANCH  16  18
ENDBRANCH  15  16
BRANCH  15  20
HETATM   20  O2  UNL     1      23.253   2.851  52.659  1.00  0.00    -0.379 OA
HETATM   21  C5  UNL     1      24.441   3.244  53.252  1.00  0.00     0.202 C 
ENDBRANCH  15  20
ENDBRANCH   1  15
TORSDOF 6
ENDMDL
MODEL 2
REMARK VINA RESULT:      -6.7      1.735      2.015
REMARK  6 active torsions:
REMARK  status: ('A' for Active; 'I' for Inactive)
REMARK    1  A    between atoms: C2_2  and  O1_3 
REMARK    2  A    between atoms: C2_2  and  C4_5 
REMARK    3  A    between atoms: C4_5  and  O2_6 
REMARK    4  A    between atoms: C4_5  and  C6_8 
REMARK    5  A    between atoms: C9_13  and  C10_14 
REMARK    6  A    between atoms: C12_16  and  O3_17 
ROOT
HETATM    1  C6  UNL     1      24.050   0.621  52.946  1.00  0.00     0.024 A 
HETATM    2  C7  UNL     1      22.656   0.756  52.962  1.00  0.00     0.130 A 
HETATM    3  N1  UNL     1      21.962  -0.013  53.841  1.00  0.00    -0.253 NA
HETATM    4  C8  UNL     1      22.598  -0.867  54.658  1.00  0.00     0.233 A 
HETATM    5  N2  UNL     1      23.924  -0.941  54.587  1.00  0.00    -0.241 NA
HETATM    6  C9  UNL     1      24.716  -0.239  53.770  1.00  0.00     0.079 A 
ENDROOT
BRANCH   6   7
HETATM    7  C10 UNL     1      26.147  -0.334  53.869  1.00  0.00    -0.007 A 
HETATM    8  C11 UNL     1      26.757   0.310  54.880  1.00  0.00     0.023 A 
HETATM    9  C12 UNL     1      28.208   0.173  54.917  1.00  0.00     0.170 A 
HETATM   10  C13 UNL     1      28.481  -0.663  53.721  1.00  0.00    -0.051 A 
HETATM   11  C14 UNL     1      29.798  -1.117  53.238  1.00  0.00     0.046 C 
HETATM   12  C15 UNL     1      27.293  -0.898  53.208  1.00  0.00     0.019 A 
BRANCH   9  13
HETATM   13  O3  UNL     1      28.779   1.444  54.794  1.00  0.00    -0.387 OA
HETATM   14  H14 UNL     1      28.017   2.108  54.790  1.00  0.00     0.210 HD
ENDBRANCH   9  13
ENDBRANCH   6   7
BRANCH   1  15
HETATM   15  C4  UNL     1      24.686   1.409  51.899  1.00  0.00     0.213 C 
BRANCH  15  16
HETATM   16  C2  UNL     1      23.709   1.961  50.894  1.00  0.00     0.070 C 
HETATM   17  C1  UNL     1      22.837   2.278  49.936  1.00  0.00     0.049 C 
BRANCH  16  18
HETATM   18  O1  UNL     1      23.673   3.269  51.304  1.00  0.00    -0.358 OA
HETATM   19  C3  UNL     1      22.628   4.175  51.174  1.00  0.00     0.209 C 
ENDBRANCH  16  18
ENDBRANCH  15  16
BRANCH  15  20
HETATM   20  O2  UNL     1      25.511   2.418  52.380  1.00  0.00    -0.379 OA
HETATM   21  C5  UNL     1      26.747   2.453  51.756  1.00  0.00     0.202 C 
ENDBRANCH  15  20
ENDBRANCH   1  15
TORSDOF 6
ENDMDL
MODEL 3
REMARK VINA RESULT:      -6.3      2.351      4.885
REMARK  6 active torsions:
REMARK  status: ('A' for Active; 'I' for Inactive)
REMARK    1  A    between atoms: C2_2  and  O1_3 
REMARK    2  A    between atoms: C2_2  and  C4_5 
REMARK    3  A    between atoms: C4_5  and  O2_6 
REMARK    4  A    between atoms: C4_5  and  C6_8 
REMARK    5  A    between atoms: C9_13  and  C10_14 
REMARK    6  A    between atoms: C12_16  and  O3_17 
ROOT
HETATM    1  C6  UNL     1      24.645   1.414  51.910  1.00  0.00     0.024 A 
HETATM    2  C7  UNL     1      26.013   1.546  51.642  1.00  0.00     0.130 A 
HETATM    3  N1  UNL     1      26.855   0.657  52.230  1.00  0.00    -0.253 NA
HETATM    4  C8  UNL     1      26.383  -0.308  53.035  1.00  0.00     0.233 A 
HETATM    5  N2  UNL     1      25.072  -0.372  53.242  1.00  0.00    -0.241 NA
HETATM    6  C9  UNL     1      24.144   0.438  52.723  1.00  0.00     0.079 A 
ENDROOT
BRANCH   6   7
HETATM    7  C10 UNL     1      22.744   0.194  52.941  1.00  0.00    -0.007 A 
HETATM    8  C11 UNL     1      22.342  -0.119  54.186  1.00  0.00     0.023 A 
HETATM    9  C12 UNL     1      20.911  -0.358  54.333  1.00  0.00     0.170 A 
HETATM   10  C13 UNL     1      20.412  -0.178  52.947  1.00  0.00    -0.051 A 
HETATM   11  C14 UNL     1      19.020  -0.314  52.480  1.00  0.00     0.046 C 
HETATM   12  C15 UNL     1      21.485   0.126  52.250  1.00  0.00     0.019 A 
BRANCH   9  13
HETATM   13  O3  UNL     1      20.722  -1.670  54.779  1.00  0.00    -0.387 OA
HETATM   14  H14 UNL     1      20.779  -2.267  53.967  1.00  0.00     0.210 HD
ENDBRANCH   9  13
ENDBRANCH   6   7
BRANCH   1  15
HETATM   15  C4  UNL     1      23.843   2.477  51.318  1.00  0.00     0.213 C 
BRANCH  15  16
HETATM   16  C2  UNL     1      23.625   3.643  52.246  1.00  0.00     0.070 C 
HETATM   17  C1  UNL     1      23.616   4.694  53.067  1.00  0.00     0.049 C 
BRANCH  16  18
HETATM   18  O1  UNL     1      22.257   3.620  52.326  1.00  0.00    -0.358 OA
HETATM   19  C3  UNL     1      21.352   4.480  51.717  1.00  0.00     0.209 C 
ENDBRANCH  16  18
ENDBRANCH  15  16
BRANCH  15  20
HETATM   20  O2  UNL     1      24.314   2.915  50.087  1.00  0.00    -0.379 OA
HETATM   21  C5  UNL     1      23.370   2.819  49.078  1.00  0.00     0.202 C 
ENDBRANCH  15  20
ENDBRANCH   1  15
TORSDOF 6
ENDMDL
MODEL 4
REMARK VINA RESULT:      -6.3      3.019      4.206
REMARK  6 active torsions:
REMARK  status: ('A' for Active; 'I' for Inactive)
REMARK    1  A    between atoms: C2_2  and  O1_3 
REMARK    2  A    between atoms: C2_2  and  C4_5 
REMARK    3  A    between atoms: C4_5  and  O2_6 
REMARK    4  A    between atoms: C4_5  and  C6_8 
REMARK    5  A    between atoms: C9_13  and  C10_14 
REMARK    6  A    between atoms: C12_16  and  O3_17 
ROOT
HETATM    1  C6  UNL     1      21.383   0.287  53.408  1.00  0.00     0.024 A 
HETATM    2  C7  UNL     1      20.810  -0.598  54.330  1.00  0.00     0.130 A 
HETATM    3  N1  UNL     1      21.654  -1.371  55.063  1.00  0.00    -0.253 NA
HETATM    4  C8  UNL     1      22.984  -1.282  54.901  1.00  0.00     0.233 A 
HETATM    5  N2  UNL     1      23.455  -0.417  54.008  1.00  0.00    -0.241 NA
HETATM    6  C9  UNL     1      22.732   0.396  53.230  1.00  0.00     0.079 A 
ENDROOT
BRANCH   6   7
HETATM    7  C10 UNL     1      23.370   1.364  52.380  1.00  0.00    -0.007 A 
HETATM    8  C11 UNL     1      24.091   2.340  52.960  1.00  0.00     0.023 A 
HETATM    9  C12 UNL     1      24.706   3.288  52.038  1.00  0.00     0.170 A 
HETATM   10  C13 UNL     1      24.245   2.793  50.716  1.00  0.00    -0.051 A 
HETATM   11  C14 UNL     1      24.547   3.376  49.397  1.00  0.00     0.046 C 
HETATM   12  C15 UNL     1      23.520   1.732  50.998  1.00  0.00     0.019 A 
BRANCH   9  13
HETATM   13  O3  UNL     1      24.204   4.564  52.310  1.00  0.00    -0.387 OA
HETATM   14  H14 UNL     1      23.240   4.571  52.008  1.00  0.00     0.210 HD
ENDBRANCH   9  13
ENDBRANCH   6   7
BRANCH   1  15
HETATM   15  C4  UNL     1      20.392   0.989  52.603  1.00  0.00     0.213 C 
BRANCH  15  16
HETATM   16  C2  UNL     1      19.156   0.171  52.336  1.00  0.00     0.070 C 
HETATM   17  C1  UNL     1      18.047  -0.568  52.283  1.00  0.00     0.049 C 
BRANCH  16  18
HETATM   18  O1  UNL     1      19.146   0.211  50.966  1.00  0.00    -0.358 OA
HETATM   19  C3  UNL     1      18.135   0.675  50.133  1.00  0.00     0.209 C 
ENDBRANCH  16  18
ENDBRANCH  15  16
BRANCH  15  20
HETATM   20  O2  UNL     1      20.050   2.240  53.100  1.00  0.00    -0.379 OA
HETATM   21  C5  UNL     1      20.284   3.266  52.199  1.00  0.00     0.202 C 
ENDBRANCH  15  20
ENDBRANCH   1  15
TORSDOF 6
ENDMDL
MODEL 5
REMARK VINA RESULT:      -6.2      1.560      5.049
REMARK  6 active torsions:
REMARK  status: ('A' for Active; 'I' for Inactive)
REMARK    1  A    between atoms: C2_2  and  O1_3 
REMARK    2  A    between atoms: C2_2  and  C4_5 
REMARK    3  A    between atoms: C4_5  and  O2_6 
REMARK    4  A    between atoms: C4_5  and  C6_8 
REMARK    5  A    between atoms: C9_13  and  C10_14 
REMARK    6  A    between atoms: C12_16  and  O3_17 
ROOT
HETATM    1  C6  UNL     1      24.033  -0.463  53.758  1.00  0.00     0.024 A 
HETATM    2  C7  UNL     1      23.964  -1.291  54.886  1.00  0.00     0.130 A 
HETATM    3  N1  UNL     1      22.760  -1.404  55.506  1.00  0.00    -0.253 NA
HETATM    4  C8  UNL     1      21.685  -0.744  55.047  1.00  0.00     0.233 A 
HETATM    5  N2  UNL     1      21.827   0.023  53.970  1.00  0.00    -0.241 NA
HETATM    6  C9  UNL     1      22.952   0.215  53.273  1.00  0.00     0.079 A 
ENDROOT
BRANCH   6   7
HETATM    7  C10 UNL     1      22.947   0.986  52.060  1.00  0.00    -0.007 A 
HETATM    8  C11 UNL     1      21.856   0.924  51.275  1.00  0.00     0.023 A 
HETATM    9  C12 UNL     1      21.921   1.728  50.060  1.00  0.00     0.170 A 
HETATM   10  C13 UNL     1      23.275   2.329  50.146  1.00  0.00    -0.051 A 
HETATM   11  C14 UNL     1      23.907   3.236  49.170  1.00  0.00     0.046 C 
HETATM   12  C15 UNL     1      23.766   1.870  51.277  1.00  0.00     0.019 A 
BRANCH   9  13
HETATM   13  O3  UNL     1      21.808   0.877  48.956  1.00  0.00    -0.387 OA
HETATM   14  H14 UNL     1      20.857   0.951  48.625  1.00  0.00     0.210 HD
ENDBRANCH   9  13
ENDBRANCH   6   7
BRANCH   1  15
HETATM   15  C4  UNL     1      25.386  -0.329  53.233  1.00  0.00     0.213 C 
BRANCH  15  16
HETATM   16  C2  UNL     1      26.071   0.938  53.675  1.00  0.00     0.070 C 
HETATM   17  C1  UNL     1      26.562   2.147  53.950  1.00  0.00     0.049 C 
BRANCH  16  18
HETATM   18  O1  UNL     1      26.975   0.413  54.561  1.00  0.00    -0.358 OA
HETATM   19  C3  UNL     1      28.338   0.671  54.642  1.00  0.00     0.209 C 
ENDBRANCH  16  18
ENDBRANCH  15  16
BRANCH  15  20
HETATM   20  O2  UNL     1      26.195  -1.430  53.480  1.00  0.00    -0.379 OA
HETATM   21  C5  UNL     1      26.736  -1.976  52.327  1.00  0.00     0.202 C 
ENDBRANCH  15  20
ENDBRANCH   1  15
TORSDOF 6
ENDMDL
MODEL 6
REMARK VINA RESULT:      -6.1      3.251      5.096
REMARK  6 active torsions:
REMARK  status: ('A' for Active; 'I' for Inactive)
REMARK    1  A    between atoms: C2_2  and  O1_3 
REMARK    2  A    between atoms: C2_2  and  C4_5 
REMARK    3  A    between atoms: C4_5  and  O2_6 
REMARK    4  A    between atoms: C4_5  and  C6_8 
REMARK    5  A    between atoms: C9_13  and  C10_14 
REMARK    6  A    between atoms: C12_16  and  O3_17 
ROOT
HETATM    1  C6  UNL     1      24.363   2.073  51.472  1.00  0.00     0.024 A 
HETATM    2  C7  UNL     1      24.135   0.975  52.310  1.00  0.00     0.130 A 
HETATM    3  N1  UNL     1      25.215   0.244  52.692  1.00  0.00    -0.253 NA
HETATM    4  C8  UNL     1      26.449   0.571  52.275  1.00  0.00     0.233 A 
HETATM    5  N2  UNL     1      26.588   1.628  51.481  1.00  0.00    -0.241 NA
HETATM    6  C9  UNL     1      25.609   2.425  51.039  1.00  0.00     0.079 A 
ENDROOT
BRANCH   6   7
HETATM    7  C10 UNL     1      25.906   3.603  50.271  1.00  0.00    -0.007 A 
HETATM    8  C11 UNL     1      26.989   3.582  49.473  1.00  0.00     0.023 A 
HETATM    9  C12 UNL     1      27.232   4.812  48.727  1.00  0.00     0.170 A 
HETATM   10  C13 UNL     1      26.127   5.689  49.187  1.00  0.00    -0.051 A 
HETATM   11  C14 UNL     1      25.870   7.082  48.776  1.00  0.00     0.046 C 
HETATM   12  C15 UNL     1      25.447   4.944  50.030  1.00  0.00     0.019 A 
BRANCH   9  13
HETATM   13  O3  UNL     1      28.480   5.321  49.101  1.00  0.00    -0.387 OA
HETATM   14  H14 UNL     1      28.654   6.127  48.519  1.00  0.00     0.210 HD
ENDBRANCH   9  13
ENDBRANCH   6   7
BRANCH   1  15
HETATM   15  C4  UNL     1      23.133   2.723  51.039  1.00  0.00     0.213 C 
BRANCH  15  16
HETATM   16  C2  UNL     1      22.312   1.876  50.101  1.00  0.00     0.070 C 
HETATM   17  C1  UNL     1      21.505   1.059  49.423  1.00  0.00     0.049 C 
BRANCH  16  18
HETATM   18  O1  UNL     1      22.828   2.296  48.903  1.00  0.00    -0.358 OA
HETATM   19  C3  UNL     1      22.195   2.329  47.666  1.00  0.00     0.209 C 
ENDBRANCH  16  18
ENDBRANCH  15  16
BRANCH  15  20
HETATM   20  O2  UNL     1      22.348   3.192  52.084  1.00  0.00    -0.379 OA
HETATM   21  C5  UNL     1      21.947   4.507  51.915  1.00  0.00     0.202 C 
ENDBRANCH  15  20
ENDBRANCH   1  15
TORSDOF 6
ENDMDL
MODEL 7
REMARK VINA RESULT:      -6.0      2.637      4.679
REMARK  6 active torsions:
REMARK  status: ('A' for Active; 'I' for Inactive)
REMARK    1  A    between atoms: C2_2  and  O1_3 
REMARK    2  A    between atoms: C2_2  and  C4_5 
REMARK    3  A    between atoms: C4_5  and  O2_6 
REMARK    4  A    between atoms: C4_5  and  C6_8 
REMARK    5  A    between atoms: C9_13  and  C10_14 
REMARK    6  A    between atoms: C12_16  and  O3_17 
ROOT
HETATM    1  C6  UNL     1      23.174   2.023  50.658  1.00  0.00     0.024 A 
HETATM    2  C7  UNL     1      23.140   2.715  49.440  1.00  0.00     0.130 A 
HETATM    3  N1  UNL     1      22.212   2.328  48.527  1.00  0.00    -0.253 NA
HETATM    4  C8  UNL     1      21.365   1.319  48.791  1.00  0.00     0.233 A 
HETATM    5  N2  UNL     1      21.457   0.710  49.969  1.00  0.00    -0.241 NA
HETATM    6  C9  UNL     1      22.322   0.997  50.947  1.00  0.00     0.079 A 
ENDROOT
BRANCH   6   7
HETATM    7  C10 UNL     1      22.245   0.331  52.219  1.00  0.00    -0.007 A 
HETATM    8  C11 UNL     1      21.034   0.188  52.787  1.00  0.00     0.023 A 
HETATM    9  C12 UNL     1      21.031  -0.493  54.077  1.00  0.00     0.170 A 
HETATM   10  C13 UNL     1      22.474  -0.763  54.299  1.00  0.00    -0.051 A 
HETATM   11  C14 UNL     1      23.082  -1.427  55.466  1.00  0.00     0.046 C 
HETATM   12  C15 UNL     1      23.066  -0.281  53.228  1.00  0.00     0.019 A 
BRANCH   9  13
HETATM   13  O3  UNL     1      20.519   0.381  55.041  1.00  0.00    -0.387 OA
HETATM   14  H14 UNL     1      20.359   1.265  54.579  1.00  0.00     0.210 HD
ENDBRANCH   9  13
ENDBRANCH   6   7
BRANCH   1  15
HETATM   15  C4  UNL     1      24.270   2.444  51.521  1.00  0.00     0.213 C 
BRANCH  15  16
HETATM   16  C2  UNL     1      25.432   3.030  50.762  1.00  0.00     0.070 C 
HETATM   17  C1  UNL     1      26.344   3.678  50.036  1.00  0.00     0.049 C 
BRANCH  16  18
HETATM   18  O1  UNL     1      26.403   2.120  51.093  1.00  0.00    -0.358 OA
HETATM   19  C3  UNL     1      27.167   2.071  52.252  1.00  0.00     0.209 C 
ENDBRANCH  16  18
ENDBRANCH  15  16
BRANCH  15  20
HETATM   20  O2  UNL     1      23.880   3.296  52.546  1.00  0.00    -0.379 OA
HETATM   21  C5  UNL     1      23.567   4.571  52.105  1.00  0.00     0.202 C 
ENDBRANCH  15  20
ENDBRANCH   1  15
TORSDOF 6
ENDMDL
MODEL 8
REMARK VINA RESULT:      -6.0      1.532      2.228
REMARK  6 active torsions:
REMARK  status: ('A' for Active; 'I' for Inactive)
REMARK    1  A    between atoms: C2_2  and  O1_3 
REMARK    2  A    between atoms: C2_2  and  C4_5 
REMARK    3  A    between atoms: C4_5  and  O2_6 
REMARK    4  A    between atoms: C4_5  and  C6_8 
REMARK    5  A    between atoms: C9_13  and  C10_14 
REMARK    6  A    between atoms: C12_16  and  O3_17 
ROOT
HETATM    1  C6  UNL     1      22.428   1.058  52.897  1.00  0.00     0.024 A 
HETATM    2  C7  UNL     1      21.092   0.758  53.194  1.00  0.00     0.130 A 
HETATM    3  N1  UNL     1      20.858  -0.258  54.065  1.00  0.00    -0.253 NA
HETATM    4  C8  UNL     1      21.875  -0.942  54.613  1.00  0.00     0.233 A 
HETATM    5  N2  UNL     1      23.116  -0.600  54.284  1.00  0.00    -0.241 NA
HETATM    6  C9  UNL     1      23.476   0.378  53.445  1.00  0.00     0.079 A 
ENDROOT
BRANCH   6   7
HETATM    7  C10 UNL     1      24.860   0.718  53.258  1.00  0.00    -0.007 A 
HETATM    8  C11 UNL     1      25.612  -0.087  52.486  1.00  0.00     0.023 A 
HETATM    9  C12 UNL     1      27.006   0.316  52.343  1.00  0.00     0.170 A 
HETATM   10  C13 UNL     1      27.075   1.534  53.188  1.00  0.00    -0.051 A 
HETATM   11  C14 UNL     1      28.260   2.374  53.439  1.00  0.00     0.046 C 
HETATM   12  C15 UNL     1      25.852   1.683  53.648  1.00  0.00     0.019 A 
BRANCH   9  13
HETATM   13  O3  UNL     1      27.819  -0.704  52.849  1.00  0.00    -0.387 OA
HETATM   14  H14 UNL     1      28.675  -0.688  52.314  1.00  0.00     0.210 HD
ENDBRANCH   9  13
ENDBRANCH   6   7
BRANCH   1  15
HETATM   15  C4  UNL     1      22.565   2.090  51.877  1.00  0.00     0.213 C 
BRANCH  15  16
HETATM   16  C2  UNL     1      23.022   3.415  52.431  1.00  0.00     0.070 C 
HETATM   17  C1  UNL     1      23.590   4.507  52.942  1.00  0.00     0.049 C 
BRANCH  16  18
HETATM   18  O1  UNL     1      21.852   4.122  52.323  1.00  0.00    -0.358 OA
HETATM   19  C3  UNL     1      21.535   5.111  51.400  1.00  0.00     0.209 C 
ENDBRANCH  16  18
ENDBRANCH  15  16
BRANCH  15  20
HETATM   20  O2  UNL     1      23.358   1.713  50.801  1.00  0.00    -0.379 OA
HETATM   21  C5  UNL     1      22.813   2.060  49.576  1.00  0.00     0.202 C 
ENDBRANCH  15  20
ENDBRANCH   1  15
TORSDOF 6
ENDMDL
MODEL 9
REMARK VINA RESULT:      -5.8      3.684      5.560
REMARK  6 active torsions:
REMARK  status: ('A' for Active; 'I' for Inactive)
REMARK    1  A    between atoms: C2_2  and  O1_3 
REMARK    2  A    between atoms: C2_2  and  C4_5 
REMARK    3  A    between atoms: C4_5  and  O2_6 
REMARK    4  A    between atoms: C4_5  and  C6_8 
REMARK    5  A    between atoms: C9_13  and  C10_14 
REMARK    6  A    between atoms: C12_16  and  O3_17 
ROOT
HETATM    1  C6  UNL     1      23.577   3.429  50.856  1.00  0.00     0.024 A 
HETATM    2  C7  UNL     1      22.898   2.620  51.776  1.00  0.00     0.130 A 
HETATM    3  N1  UNL     1      23.649   1.845  52.602  1.00  0.00    -0.253 NA
HETATM    4  C8  UNL     1      24.990   1.861  52.530  1.00  0.00     0.233 A 
HETATM    5  N2  UNL     1      25.564   2.656  51.632  1.00  0.00    -0.241 NA
HETATM    6  C9  UNL     1      24.939   3.463  50.769  1.00  0.00     0.079 A 
ENDROOT
BRANCH   6   7
HETATM    7  C10 UNL     1      25.682   4.355  49.921  1.00  0.00    -0.007 A 
HETATM    8  C11 UNL     1      26.871   3.937  49.449  1.00  0.00     0.023 A 
HETATM    9  C12 UNL     1      27.571   4.894  48.599  1.00  0.00     0.170 A 
HETATM   10  C13 UNL     1      26.650   6.058  48.602  1.00  0.00    -0.051 A 
HETATM   11  C14 UNL     1      26.847   7.346  47.912  1.00  0.00     0.046 C 
HETATM   12  C15 UNL     1      25.639   5.673  49.349  1.00  0.00     0.019 A 
BRANCH   9  13
HETATM   13  O3  UNL     1      28.795   5.208  49.197  1.00  0.00    -0.387 OA
HETATM   14  H14 UNL     1      28.627   5.986  49.818  1.00  0.00     0.210 HD
ENDBRANCH   9  13
ENDBRANCH   6   7
BRANCH   1  15
HETATM   15  C4  UNL     1      22.681   4.137  49.952  1.00  0.00     0.213 C 
BRANCH  15  16
HETATM   16  C2  UNL     1      22.232   3.299  48.784  1.00  0.00     0.070 C 
HETATM   17  C1  UNL     1      21.753   2.449  47.875  1.00  0.00     0.049 C 
BRANCH  16  18
HETATM   18  O1  UNL     1      22.785   4.021  47.758  1.00  0.00    -0.358 OA
HETATM   19  C3  UNL     1      22.480   5.319  47.367  1.00  0.00     0.209 C 
ENDBRANCH  16  18
ENDBRANCH  15  16
BRANCH  15  20
HETATM   20  O2  UNL     1      21.588   4.716  50.584  1.00  0.00    -0.379 OA
HETATM   21  C5  UNL     1      21.808   6.033  50.953  1.00  0.00     0.202 C 
ENDBRANCH  15  20
ENDBRANCH   1  15
TORSDOF 6
ENDMDL
