MODEL 1
REMARK VINA RESULT:      -9.7      0.000      0.000
REMARK  1 active torsions:
REMARK  status: ('A' for Active; 'I' for Inactive)
REMARK    1  A    between atoms: C1_2  and  C2_3 
ROOT
HETATM    1  C2  UNL     1      19.578   0.371  51.305  1.00  0.00     0.015 C 
HETATM    2  C3  UNL     1      19.877   1.553  51.745  1.00  0.00     0.034 C 
HETATM    3  C4  UNL     1      19.442   2.965  51.728  1.00  0.00     0.065 C 
HETATM    4  C5  UNL     1      20.574   3.945  51.599  1.00  0.00     0.062 C 
HETATM    5  C6  UNL     1      21.799   3.506  52.181  1.00  0.00     0.034 C 
HETATM    6  N1  UNL     1      21.997   2.412  52.743  1.00  0.00    -0.176 NA
HETATM    7  N2  UNL     1      21.017   1.404  52.524  1.00  0.00    -0.238 N 
HETATM    8  C7  UNL     1      21.458   0.315  53.238  1.00  0.00     0.059 A 
HETATM    9  C8  UNL     1      20.510  -0.525  53.752  1.00  0.00     0.031 A 
HETATM   10  C9  UNL     1      21.069  -1.529  54.531  1.00  0.00     0.003 A 
HETATM   11  C10 UNL     1      22.439  -1.701  54.793  1.00  0.00     0.011 A 
HETATM   12  C11 UNL     1      23.401  -0.872  54.291  1.00  0.00    -0.032 A 
HETATM   13  C12 UNL     1      22.717   0.034  53.562  1.00  0.00     0.043 A 
HETATM   14  C13 UNL     1      24.796  -0.779  54.515  1.00  0.00     0.046 C 
HETATM   15  C14 UNL     1      25.772   0.084  54.389  1.00  0.00     0.077 C 
HETATM   16  O1  UNL     1      27.041  -0.241  54.749  1.00  0.00    -0.351 OA
HETATM   17  C15 UNL     1      28.250  -0.012  54.042  1.00  0.00     0.201 C 
HETATM   18  C16 UNL     1      28.457   1.470  53.814  1.00  0.00     0.195 C 
HETATM   19  O2  UNL     1      27.203   2.066  53.965  1.00  0.00    -0.376 OA
HETATM   20  C17 UNL     1      25.923   1.517  53.904  1.00  0.00     0.094 C 
HETATM   21  C18 UNL     1      25.266   2.612  53.360  1.00  0.00     0.121 C 
HETATM   22  C19 UNL     1      24.441   3.719  52.775  1.00  0.00     0.039 C 
HETATM   23  C20 UNL     1      23.182   3.849  52.413  1.00  0.00     0.025 C 
ENDROOT
BRANCH   1  24
HETATM   24  C1  UNL     1      18.359   0.257  50.451  1.00  0.00     0.143 C 
HETATM   25 CL1  UNL     1      17.014  -0.544  51.257  1.00  0.00    -0.126 Cl
ENDBRANCH   1  24
TORSDOF 1
ENDMDL
MODEL 2
REMARK VINA RESULT:      -9.5      1.992      4.016
REMARK  1 active torsions:
REMARK  status: ('A' for Active; 'I' for Inactive)
REMARK    1  A    between atoms: C1_2  and  C2_3 
ROOT
HETATM    1  C2  UNL     1      20.544   3.187  51.568  1.00  0.00     0.015 C 
HETATM    2  C3  UNL     1      20.614   1.911  51.780  1.00  0.00     0.034 C 
HETATM    3  C4  UNL     1      19.792   0.705  52.009  1.00  0.00     0.065 C 
HETATM    4  C5  UNL     1      20.353  -0.220  53.053  1.00  0.00     0.062 C 
HETATM    5  C6  UNL     1      21.775  -0.208  53.143  1.00  0.00     0.034 C 
HETATM    6  N1  UNL     1      22.551   0.495  52.468  1.00  0.00    -0.176 NA
HETATM    7  N2  UNL     1      21.963   1.584  51.766  1.00  0.00    -0.238 N 
HETATM    8  C7  UNL     1      23.009   2.192  51.109  1.00  0.00     0.059 A 
HETATM    9  C8  UNL     1      22.731   2.802  49.918  1.00  0.00     0.031 A 
HETATM   10  C9  UNL     1      23.877   3.293  49.305  1.00  0.00     0.003 A 
HETATM   11  C10 UNL     1      25.185   3.196  49.807  1.00  0.00     0.011 A 
HETATM   12  C11 UNL     1      25.483   2.589  50.993  1.00  0.00    -0.032 A 
HETATM   13  C12 UNL     1      24.289   2.175  51.467  1.00  0.00     0.043 A 
HETATM   14  C13 UNL     1      26.709   2.270  51.625  1.00  0.00     0.046 C 
HETATM   15  C14 UNL     1      27.181   1.463  52.542  1.00  0.00     0.077 C 
HETATM   16  O1  UNL     1      28.500   1.469  52.863  1.00  0.00    -0.351 OA
HETATM   17  C15 UNL     1      29.100   1.463  54.149  1.00  0.00     0.201 C 
HETATM   18  C16 UNL     1      28.689   0.226  54.919  1.00  0.00     0.195 C 
HETATM   19  O2  UNL     1      27.530  -0.250  54.302  1.00  0.00    -0.376 OA
HETATM   20  C17 UNL     1      26.620   0.390  53.462  1.00  0.00     0.094 C 
HETATM   21  C18 UNL     1      25.474  -0.277  53.869  1.00  0.00     0.121 C 
HETATM   22  C19 UNL     1      24.165  -0.920  54.221  1.00  0.00     0.039 C 
HETATM   23  C20 UNL     1      22.915  -0.752  53.843  1.00  0.00     0.025 C 
ENDROOT
BRANCH   1  24
HETATM   24  C1  UNL     1      19.179   3.789  51.511  1.00  0.00     0.143 C 
HETATM   25 CL1  UNL     1      18.918   4.795  50.090  1.00  0.00    -0.126 Cl
ENDBRANCH   1  24
TORSDOF 1
ENDMDL
MODEL 3
REMARK VINA RESULT:      -8.9      3.997      7.354
REMARK  1 active torsions:
REMARK  status: ('A' for Active; 'I' for Inactive)
REMARK    1  A    between atoms: C1_2  and  C2_3 
ROOT
HETATM    1  C2  UNL     1      26.183  -0.514  52.541  1.00  0.00     0.015 C 
HETATM    2  C3  UNL     1      25.459  -0.469  53.614  1.00  0.00     0.034 C 
HETATM    3  C4  UNL     1      25.478  -0.749  55.065  1.00  0.00     0.065 C 
HETATM    4  C5  UNL     1      24.211  -1.374  55.578  1.00  0.00     0.062 C 
HETATM    5  C6  UNL     1      23.037  -0.989  54.865  1.00  0.00     0.034 C 
HETATM    6  N1  UNL     1      22.990  -0.225  53.882  1.00  0.00    -0.176 NA
HETATM    7  N2  UNL     1      24.227   0.046  53.234  1.00  0.00    -0.238 N 
HETATM    8  C7  UNL     1      23.910   0.897  52.201  1.00  0.00     0.059 A 
HETATM    9  C8  UNL     1      24.858   1.807  51.825  1.00  0.00     0.031 A 
HETATM   10  C9  UNL     1      24.391   2.671  50.843  1.00  0.00     0.003 A 
HETATM   11  C10 UNL     1      23.106   2.654  50.276  1.00  0.00     0.011 A 
HETATM   12  C11 UNL     1      22.145   1.756  50.639  1.00  0.00    -0.032 A 
HETATM   13  C12 UNL     1      22.738   0.992  51.580  1.00  0.00     0.043 A 
HETATM   14  C13 UNL     1      20.775   1.630  50.303  1.00  0.00     0.046 C 
HETATM   15  C14 UNL     1      19.682   1.073  50.758  1.00  0.00     0.077 C 
HETATM   16  O1  UNL     1      18.502   1.210  50.099  1.00  0.00    -0.351 OA
HETATM   17  C15 UNL     1      17.539   0.216  49.789  1.00  0.00     0.201 C 
HETATM   18  C16 UNL     1      17.011  -0.424  51.056  1.00  0.00     0.195 C 
HETATM   19  O2  UNL     1      17.954  -0.153  52.050  1.00  0.00    -0.376 OA
HETATM   20  C17 UNL     1      19.295   0.216  51.954  1.00  0.00     0.094 C 
HETATM   21  C18 UNL     1      19.758  -0.427  53.093  1.00  0.00     0.121 C 
HETATM   22  C19 UNL     1      20.383  -1.076  54.292  1.00  0.00     0.039 C 
HETATM   23  C20 UNL     1      21.608  -1.168  54.766  1.00  0.00     0.025 C 
ENDROOT
BRANCH   1  24
HETATM   24  C1  UNL     1      27.582  -1.015  52.690  1.00  0.00     0.143 C 
HETATM   25 CL1  UNL     1      28.668   0.156  53.430  1.00  0.00    -0.126 Cl
ENDBRANCH   1  24
TORSDOF 1
ENDMDL
MODEL 4
REMARK VINA RESULT:      -8.6      4.087      7.261
REMARK  1 active torsions:
REMARK  status: ('A' for Active; 'I' for Inactive)
REMARK    1  A    between atoms: C1_2  and  C2_3 
ROOT
HETATM    1  C2  UNL     1      26.445  -0.709  52.348  1.00  0.00     0.015 C 
HETATM    2  C3  UNL     1      25.507  -0.434  53.198  1.00  0.00     0.034 C 
HETATM    3  C4  UNL     1      25.003  -0.763  54.548  1.00  0.00     0.065 C 
HETATM    4  C5  UNL     1      23.505  -0.868  54.625  1.00  0.00     0.062 C 
HETATM    5  C6  UNL     1      22.811  -0.025  53.708  1.00  0.00     0.034 C 
HETATM    6  N1  UNL     1      23.329   0.739  52.872  1.00  0.00    -0.176 NA
HETATM    7  N2  UNL     1      24.711   0.536  52.604  1.00  0.00    -0.238 N 
HETATM    8  C7  UNL     1      25.037   1.489  51.667  1.00  0.00     0.059 A 
HETATM    9  C8  UNL     1      26.315   1.974  51.684  1.00  0.00     0.031 A 
HETATM   10  C9  UNL     1      26.498   2.994  50.759  1.00  0.00     0.003 A 
HETATM   11  C10 UNL     1      25.517   3.504  49.892  1.00  0.00     0.011 A 
HETATM   12  C11 UNL     1      24.235   3.035  49.862  1.00  0.00    -0.032 A 
HETATM   13  C12 UNL     1      24.213   2.059  50.794  1.00  0.00     0.043 A 
HETATM   14  C13 UNL     1      23.074   3.467  49.178  1.00  0.00     0.046 C 
HETATM   15  C14 UNL     1      21.771   3.359  49.254  1.00  0.00     0.077 C 
HETATM   16  O1  UNL     1      20.966   3.973  48.349  1.00  0.00    -0.351 OA
HETATM   17  C15 UNL     1      19.843   3.447  47.659  1.00  0.00     0.201 C 
HETATM   18  C16 UNL     1      18.778   3.007  48.640  1.00  0.00     0.195 C 
HETATM   19  O2  UNL     1      19.423   2.846  49.868  1.00  0.00    -0.376 OA
HETATM   20  C17 UNL     1      20.772   2.668  50.170  1.00  0.00     0.094 C 
HETATM   21  C18 UNL     1      20.621   1.845  51.276  1.00  0.00     0.121 C 
HETATM   22  C19 UNL     1      20.593   0.951  52.481  1.00  0.00     0.039 C 
HETATM   23  C20 UNL     1      21.508   0.370  53.228  1.00  0.00     0.025 C 
ENDROOT
BRANCH   1  24
HETATM   24  C1  UNL     1      27.460  -1.720  52.765  1.00  0.00     0.143 C 
HETATM   25 CL1  UNL     1      28.877  -1.012  53.534  1.00  0.00    -0.126 Cl
ENDBRANCH   1  24
TORSDOF 1
ENDMDL
MODEL 5
REMARK VINA RESULT:      -8.6      2.110      4.056
REMARK  1 active torsions:
REMARK  status: ('A' for Active; 'I' for Inactive)
REMARK    1  A    between atoms: C1_2  and  C2_3 
ROOT
HETATM    1  C2  UNL     1      17.996   2.148  51.057  1.00  0.00     0.015 C 
HETATM    2  C3  UNL     1      18.136   0.940  51.504  1.00  0.00     0.034 C 
HETATM    3  C4  UNL     1      17.382  -0.247  51.956  1.00  0.00     0.065 C 
HETATM    4  C5  UNL     1      17.983  -0.926  53.155  1.00  0.00     0.062 C 
HETATM    5  C6  UNL     1      19.402  -0.815  53.240  1.00  0.00     0.034 C 
HETATM    6  N1  UNL     1      20.143  -0.207  52.444  1.00  0.00    -0.176 NA
HETATM    7  N2  UNL     1      19.502   0.695  51.551  1.00  0.00    -0.238 N 
HETATM    8  C7  UNL     1      20.518   1.228  50.791  1.00  0.00     0.059 A 
HETATM    9  C8  UNL     1      20.219   1.587  49.507  1.00  0.00     0.031 A 
HETATM   10  C9  UNL     1      21.341   2.020  48.812  1.00  0.00     0.003 A 
HETATM   11  C10 UNL     1      22.647   2.094  49.323  1.00  0.00     0.011 A 
HETATM   12  C11 UNL     1      22.967   1.738  50.602  1.00  0.00    -0.032 A 
HETATM   13  C12 UNL     1      21.793   1.353  51.145  1.00  0.00     0.043 A 
HETATM   14  C13 UNL     1      24.202   1.615  51.281  1.00  0.00     0.046 C 
HETATM   15  C14 UNL     1      24.710   1.023  52.333  1.00  0.00     0.077 C 
HETATM   16  O1  UNL     1      26.024   1.165  52.647  1.00  0.00    -0.351 OA
HETATM   17  C15 UNL     1      26.609   1.435  53.911  1.00  0.00     0.201 C 
HETATM   18  C16 UNL     1      26.261   0.343  54.900  1.00  0.00     0.195 C 
HETATM   19  O2  UNL     1      25.138  -0.306  54.383  1.00  0.00    -0.376 OA
HETATM   20  C17 UNL     1      24.201   0.111  53.438  1.00  0.00     0.094 C 
HETATM   21  C18 UNL     1      23.091  -0.533  53.964  1.00  0.00     0.121 C 
HETATM   22  C19 UNL     1      21.818  -1.174  54.431  1.00  0.00     0.039 C 
HETATM   23  C20 UNL     1      20.564  -1.152  54.029  1.00  0.00     0.025 C 
ENDROOT
BRANCH   1  24
HETATM   24  C1  UNL     1      16.600   2.648  50.888  1.00  0.00     0.143 C 
HETATM   25 CL1  UNL     1      15.848   3.145  52.401  1.00  0.00    -0.126 Cl
ENDBRANCH   1  24
TORSDOF 1
ENDMDL
MODEL 6
REMARK VINA RESULT:      -8.6      3.884      5.889
REMARK  1 active torsions:
REMARK  status: ('A' for Active; 'I' for Inactive)
REMARK    1  A    between atoms: C1_2  and  C2_3 
ROOT
HETATM    1  C2  UNL     1      23.953   5.552  49.157  1.00  0.00     0.015 C 
HETATM    2  C3  UNL     1      23.222   4.657  48.572  1.00  0.00     0.034 C 
HETATM    3  C4  UNL     1      22.327   4.434  47.417  1.00  0.00     0.065 C 
HETATM    4  C5  UNL     1      21.120   3.598  47.740  1.00  0.00     0.062 C 
HETATM    5  C6  UNL     1      21.333   2.635  48.770  1.00  0.00     0.034 C 
HETATM    6  N1  UNL     1      22.390   2.458  49.407  1.00  0.00    -0.176 NA
HETATM    7  N2  UNL     1      23.363   3.491  49.311  1.00  0.00    -0.238 N 
HETATM    8  C7  UNL     1      24.415   3.063  50.088  1.00  0.00     0.059 A 
HETATM    9  C8  UNL     1      25.670   3.456  49.715  1.00  0.00     0.031 A 
HETATM   10  C9  UNL     1      26.653   2.886  50.514  1.00  0.00     0.003 A 
HETATM   11  C10 UNL     1      26.434   2.004  51.585  1.00  0.00     0.011 A 
HETATM   12  C11 UNL     1      25.189   1.598  51.971  1.00  0.00    -0.032 A 
HETATM   13  C12 UNL     1      24.352   2.229  51.121  1.00  0.00     0.043 A 
HETATM   14  C13 UNL     1      24.744   0.644  52.916  1.00  0.00     0.046 C 
HETATM   15  C14 UNL     1      23.682  -0.072  53.189  1.00  0.00     0.077 C 
HETATM   16  O1  UNL     1      23.668  -0.925  54.247  1.00  0.00    -0.351 OA
HETATM   17  C15 UNL     1      22.660  -1.104  55.229  1.00  0.00     0.201 C 
HETATM   18  C16 UNL     1      21.361  -1.533  54.582  1.00  0.00     0.195 C 
HETATM   19  O2  UNL     1      21.459  -1.174  53.236  1.00  0.00    -0.376 OA
HETATM   20  C17 UNL     1      22.292  -0.255  52.599  1.00  0.00     0.094 C 
HETATM   21  C18 UNL     1      21.412   0.154  51.607  1.00  0.00     0.121 C 
HETATM   22  C19 UNL     1      20.559   0.682  50.493  1.00  0.00     0.039 C 
HETATM   23  C20 UNL     1      20.712   1.596  49.558  1.00  0.00     0.025 C 
ENDROOT
BRANCH   1  24
HETATM   24  C1  UNL     1      23.992   6.907  48.533  1.00  0.00     0.143 C 
HETATM   25 CL1  UNL     1      25.546   7.296  47.803  1.00  0.00    -0.126 Cl
ENDBRANCH   1  24
TORSDOF 1
ENDMDL
MODEL 7
REMARK VINA RESULT:      -8.6      3.484      5.755
REMARK  1 active torsions:
REMARK  status: ('A' for Active; 'I' for Inactive)
REMARK    1  A    between atoms: C1_2  and  C2_3 
ROOT
HETATM    1  C2  UNL     1      21.767   0.369  53.472  1.00  0.00     0.015 C 
HETATM    2  C3  UNL     1      22.970   0.041  53.123  1.00  0.00     0.034 C 
HETATM    3  C4  UNL     1      24.088  -0.869  53.450  1.00  0.00     0.065 C 
HETATM    4  C5  UNL     1      25.441  -0.217  53.374  1.00  0.00     0.062 C 
HETATM    5  C6  UNL     1      25.533   0.831  52.411  1.00  0.00     0.034 C 
HETATM    6  N1  UNL     1      24.613   1.241  51.677  1.00  0.00    -0.176 NA
HETATM    7  N2  UNL     1      23.296   0.841  52.036  1.00  0.00    -0.238 N 
HETATM    8  C7  UNL     1      22.478   1.412  51.088  1.00  0.00     0.059 A 
HETATM    9  C8  UNL     1      21.330   0.744  50.765  1.00  0.00     0.031 A 
HETATM   10  C9  UNL     1      20.639   1.365  49.733  1.00  0.00     0.003 A 
HETATM   11  C10 UNL     1      21.033   2.537  49.067  1.00  0.00     0.011 A 
HETATM   12  C11 UNL     1      22.176   3.217  49.373  1.00  0.00    -0.032 A 
HETATM   13  C12 UNL     1      22.728   2.509  50.381  1.00  0.00     0.043 A 
HETATM   14  C13 UNL     1      22.823   4.323  48.770  1.00  0.00     0.046 C 
HETATM   15  C14 UNL     1      24.005   4.883  48.721  1.00  0.00     0.077 C 
HETATM   16  O1  UNL     1      24.218   5.996  47.971  1.00  0.00    -0.351 OA
HETATM   17  C15 UNL     1      24.911   7.183  48.323  1.00  0.00     0.201 C 
HETATM   18  C16 UNL     1      26.350   6.873  48.673  1.00  0.00     0.195 C 
HETATM   19  O2  UNL     1      26.393   5.509  48.970  1.00  0.00    -0.376 OA
HETATM   20  C17 UNL     1      25.376   4.624  49.326  1.00  0.00     0.094 C 
HETATM   21  C18 UNL     1      26.112   3.809  50.174  1.00  0.00     0.121 C 
HETATM   22  C19 UNL     1      26.793   2.858  51.113  1.00  0.00     0.039 C 
HETATM   23  C20 UNL     1      26.404   1.829  51.836  1.00  0.00     0.025 C 
ENDROOT
BRANCH   1  24
HETATM   24  C1  UNL     1      21.168  -0.376  54.618  1.00  0.00     0.143 C 
HETATM   25 CL1  UNL     1      20.682  -2.018  54.208  1.00  0.00    -0.126 Cl
ENDBRANCH   1  24
TORSDOF 1
ENDMDL
MODEL 8
REMARK VINA RESULT:      -8.4      3.771      7.191
REMARK  1 active torsions:
REMARK  status: ('A' for Active; 'I' for Inactive)
REMARK    1  A    between atoms: C1_2  and  C2_3 
ROOT
HETATM    1  C2  UNL     1      25.197   2.410  51.341  1.00  0.00     0.015 C 
HETATM    2  C3  UNL     1      25.052   1.783  52.465  1.00  0.00     0.034 C 
HETATM    3  C4  UNL     1      25.802   1.162  53.577  1.00  0.00     0.065 C 
HETATM    4  C5  UNL     1      25.206  -0.131  54.061  1.00  0.00     0.062 C 
HETATM    5  C6  UNL     1      23.789  -0.210  53.925  1.00  0.00     0.034 C 
HETATM    6  N1  UNL     1      23.045   0.663  53.439  1.00  0.00    -0.176 NA
HETATM    7  N2  UNL     1      23.684   1.688  52.688  1.00  0.00    -0.238 N 
HETATM    8  C7  UNL     1      22.665   2.511  52.268  1.00  0.00     0.059 A 
HETATM    9  C8  UNL     1      22.955   3.838  52.111  1.00  0.00     0.031 A 
HETATM   10  C9  UNL     1      21.830   4.581  51.778  1.00  0.00     0.003 A 
HETATM   11  C10 UNL     1      20.529   4.077  51.616  1.00  0.00     0.011 A 
HETATM   12  C11 UNL     1      20.219   2.756  51.771  1.00  0.00    -0.032 A 
HETATM   13  C12 UNL     1      21.394   2.170  52.080  1.00  0.00     0.043 A 
HETATM   14  C13 UNL     1      18.989   2.056  51.778  1.00  0.00     0.046 C 
HETATM   15  C14 UNL     1      18.487   0.923  52.199  1.00  0.00     0.077 C 
HETATM   16  O1  UNL     1      17.177   0.623  52.000  1.00  0.00    -0.351 OA
HETATM   17  C15 UNL     1      16.606  -0.590  51.536  1.00  0.00     0.201 C 
HETATM   18  C16 UNL     1      16.955  -1.731  52.468  1.00  0.00     0.195 C 
HETATM   19  O2  UNL     1      18.068  -1.310  53.198  1.00  0.00    -0.376 OA
HETATM   20  C17 UNL     1      18.999  -0.305  52.937  1.00  0.00     0.094 C 
HETATM   21  C18 UNL     1      20.110  -0.913  53.504  1.00  0.00     0.121 C 
HETATM   22  C19 UNL     1      21.383  -1.461  54.077  1.00  0.00     0.039 C 
HETATM   23  C20 UNL     1      22.632  -1.050  54.128  1.00  0.00     0.025 C 
ENDROOT
BRANCH   1  24
HETATM   24  C1  UNL     1      26.595   2.664  50.884  1.00  0.00     0.143 C 
HETATM   25 CL1  UNL     1      26.685   3.623  49.410  1.00  0.00    -0.126 Cl
ENDBRANCH   1  24
TORSDOF 1
ENDMDL
MODEL 9
REMARK VINA RESULT:      -8.3      3.788      7.306
REMARK  1 active torsions:
REMARK  status: ('A' for Active; 'I' for Inactive)
REMARK    1  A    between atoms: C1_2  and  C2_3 
ROOT
HETATM    1  C2  UNL     1      24.930  -0.146  53.160  1.00  0.00     0.015 C 
HETATM    2  C3  UNL     1      23.873  -0.361  53.877  1.00  0.00     0.034 C 
HETATM    3  C4  UNL     1      23.366  -1.131  55.033  1.00  0.00     0.065 C 
HETATM    4  C5  UNL     1      21.980  -1.678  54.834  1.00  0.00     0.062 C 
HETATM    5  C6  UNL     1      21.149  -0.879  53.994  1.00  0.00     0.034 C 
HETATM    6  N1  UNL     1      21.479   0.178  53.422  1.00  0.00    -0.176 NA
HETATM    7  N2  UNL     1      22.874   0.450  53.357  1.00  0.00    -0.238 N 
HETATM    8  C7  UNL     1      22.972   1.650  52.691  1.00  0.00     0.059 A 
HETATM    9  C8  UNL     1      24.021   2.464  53.017  1.00  0.00     0.031 A 
HETATM   10  C9  UNL     1      23.962   3.682  52.353  1.00  0.00     0.003 A 
HETATM   11  C10 UNL     1      22.962   4.078  51.448  1.00  0.00     0.011 A 
HETATM   12  C11 UNL     1      21.906   3.281  51.112  1.00  0.00    -0.032 A 
HETATM   13  C12 UNL     1      22.102   2.149  51.819  1.00  0.00     0.043 A 
HETATM   14  C13 UNL     1      20.743   3.509  50.338  1.00  0.00     0.046 C 
HETATM   15  C14 UNL     1      19.542   3.016  50.172  1.00  0.00     0.077 C 
HETATM   16  O1  UNL     1      18.678   3.569  49.280  1.00  0.00    -0.351 OA
HETATM   17  C15 UNL     1      17.857   2.921  48.322  1.00  0.00     0.201 C 
HETATM   18  C16 UNL     1      16.893   1.974  49.006  1.00  0.00     0.195 C 
HETATM   19  O2  UNL     1      17.429   1.719  50.270  1.00  0.00    -0.376 OA
HETATM   20  C17 UNL     1      18.728   1.871  50.754  1.00  0.00     0.094 C 
HETATM   21  C18 UNL     1      18.735   0.802  51.638  1.00  0.00     0.121 C 
HETATM   22  C19 UNL     1      18.872  -0.320  52.624  1.00  0.00     0.039 C 
HETATM   23  C20 UNL     1      19.844  -0.774  53.387  1.00  0.00     0.025 C 
ENDROOT
BRANCH   1  24
HETATM   24  C1  UNL     1      26.167  -0.891  53.538  1.00  0.00     0.143 C 
HETATM   25 CL1  UNL     1      26.719  -2.007  52.293  1.00  0.00    -0.126 Cl
ENDBRANCH   1  24
TORSDOF 1
ENDMDL
