MODEL 1
REMARK VINA RESULT:      -7.2      0.000      0.000
REMARK  4 active torsions:
REMARK  status: ('A' for Active; 'I' for Inactive)
REMARK    1  A    between atoms: C2_2  and  C3_3 
REMARK       I    between atoms: C3_3  and  N1_5 
REMARK    2  A    between atoms: N1_5  and  C4_6 
REMARK    3  A    between atoms: C4_6  and  C6_8 
REMARK    4  A    between atoms: C11_16  and  S1_17 
ROOT
HETATM    1  C6  UNL     1      25.671   0.267  53.439  1.00  0.00     0.192 C 
HETATM    2  C7  UNL     1      26.242  -0.756  52.562  1.00  0.00     0.044 C 
HETATM    3  C8  UNL     1      27.367  -1.237  53.095  1.00  0.00     0.087 C 
HETATM    4  N2  UNL     1      28.336  -0.468  52.803  1.00  0.00    -0.218 NA
HETATM    5  C9  UNL     1      28.202   0.892  53.196  1.00  0.00     0.229 C 
HETATM    6  C10 UNL     1      28.918   1.527  54.275  1.00  0.00     0.140 C 
HETATM    7  N3  UNL     1      29.477   2.049  55.126  1.00  0.00    -0.188 NA
HETATM    8  N4  UNL     1      27.383   1.196  52.331  1.00  0.00    -0.244 NA
HETATM    9  C11 UNL     1      26.769   2.433  52.102  1.00  0.00     0.195 C 
HETATM   10  C13 UNL     1      25.527   2.509  53.050  1.00  0.00     0.207 C 
HETATM   11  O2  UNL     1      24.919   1.259  52.765  1.00  0.00    -0.373 OA
ENDROOT
BRANCH   9  12
HETATM   12  S1  UNL     1      26.279   2.732  50.391  1.00  0.00    -0.144 SA
HETATM   13  C12 UNL     1      24.928   3.964  50.391  1.00  0.00     0.092 C 
ENDBRANCH   9  12
BRANCH   1  14
HETATM   14  C4  UNL     1      24.671  -0.455  54.246  1.00  0.00     0.023 C 
HETATM   15  C5  UNL     1      25.003  -1.017  55.383  1.00  0.00     0.061 C 
BRANCH  14  16
HETATM   16  N1  UNL     1      23.318  -0.600  53.852  1.00  0.00    -0.328 N 
HETATM   17  C3  UNL     1      22.410  -1.310  54.662  1.00  0.00     0.244 C 
HETATM   18  O1  UNL     1      22.691  -1.850  55.744  1.00  0.00    -0.268 OA
HETATM   19  H4  UNL     1      23.035  -0.170  52.965  1.00  0.00     0.168 HD
BRANCH  17  20
HETATM   20  C2  UNL     1      21.010  -1.460  54.255  1.00  0.00     0.064 C 
HETATM   21  C1  UNL     1      20.922  -0.139  54.296  1.00  0.00     0.017 C 
ENDBRANCH  17  20
ENDBRANCH  14  16
ENDBRANCH   1  14
TORSDOF 4
ENDMDL
MODEL 2
REMARK VINA RESULT:      -7.0      2.741      4.820
REMARK  4 active torsions:
REMARK  status: ('A' for Active; 'I' for Inactive)
REMARK    1  A    between atoms: C2_2  and  C3_3 
REMARK       I    between atoms: C3_3  and  N1_5 
REMARK    2  A    between atoms: N1_5  and  C4_6 
REMARK    3  A    between atoms: C4_6  and  C6_8 
REMARK    4  A    between atoms: C11_16  and  S1_17 
ROOT
HETATM    1  C6  UNL     1      24.966   0.477  53.188  1.00  0.00     0.192 C 
HETATM    2  C7  UNL     1      25.683   0.535  51.913  1.00  0.00     0.044 C 
HETATM    3  C8  UNL     1      26.308   1.708  51.796  1.00  0.00     0.087 C 
HETATM    4  N2  UNL     1      25.493   2.580  51.359  1.00  0.00    -0.218 NA
HETATM    5  C9  UNL     1      24.312   2.778  52.127  1.00  0.00     0.229 C 
HETATM    6  C10 UNL     1      24.033   3.927  52.954  1.00  0.00     0.140 C 
HETATM    7  N3  UNL     1      23.794   4.829  53.615  1.00  0.00    -0.188 NA
HETATM    8  N4  UNL     1      23.758   1.736  51.783  1.00  0.00    -0.244 NA
HETATM    9  C11 UNL     1      22.506   1.242  52.167  1.00  0.00     0.195 C 
HETATM   10  C13 UNL     1      22.710   0.477  53.515  1.00  0.00     0.207 C 
HETATM   11  O2  UNL     1      23.813  -0.345  53.171  1.00  0.00    -0.373 OA
ENDROOT
BRANCH   9  12
HETATM   12  S1  UNL     1      21.705   0.176  50.949  1.00  0.00    -0.144 SA
HETATM   13  C12 UNL     1      21.546   1.113  49.387  1.00  0.00     0.092 C 
ENDBRANCH   9  12
BRANCH   1  14
HETATM   14  C4  UNL     1      25.892  -0.221  54.100  1.00  0.00     0.023 C 
HETATM   15  C5  UNL     1      25.567  -0.437  55.351  1.00  0.00     0.061 C 
BRANCH  14  16
HETATM   16  N1  UNL     1      27.169  -0.684  53.699  1.00  0.00    -0.328 N 
HETATM   17  C3  UNL     1      28.338  -0.080  54.203  1.00  0.00     0.244 C 
HETATM   18  O1  UNL     1      28.362   0.867  55.006  1.00  0.00    -0.268 OA
HETATM   19  H4  UNL     1      27.203  -1.466  53.037  1.00  0.00     0.168 HD
BRANCH  17  20
HETATM   20  C2  UNL     1      29.660  -0.558  53.790  1.00  0.00     0.064 C 
HETATM   21  C1  UNL     1      29.052  -1.630  53.304  1.00  0.00     0.017 C 
ENDBRANCH  17  20
ENDBRANCH  14  16
ENDBRANCH   1  14
TORSDOF 4
ENDMDL
MODEL 3
REMARK VINA RESULT:      -7.0      2.851      5.640
REMARK  4 active torsions:
REMARK  status: ('A' for Active; 'I' for Inactive)
REMARK    1  A    between atoms: C2_2  and  C3_3 
REMARK       I    between atoms: C3_3  and  N1_5 
REMARK    2  A    between atoms: N1_5  and  C4_6 
REMARK    3  A    between atoms: C4_6  and  C6_8 
REMARK    4  A    between atoms: C11_16  and  S1_17 
ROOT
HETATM    1  C6  UNL     1      25.390   2.230  51.494  1.00  0.00     0.192 C 
HETATM    2  C7  UNL     1      24.656   2.800  52.626  1.00  0.00     0.044 C 
HETATM    3  C8  UNL     1      23.450   2.236  52.717  1.00  0.00     0.087 C 
HETATM    4  N2  UNL     1      22.649   2.822  51.923  1.00  0.00    -0.218 NA
HETATM    5  C9  UNL     1      23.027   2.847  50.552  1.00  0.00     0.229 C 
HETATM    6  C10 UNL     1      22.419   2.071  49.499  1.00  0.00     0.140 C 
HETATM    7  N3  UNL     1      21.950   1.463  48.652  1.00  0.00    -0.188 NA
HETATM    8  N4  UNL     1      23.907   3.698  50.677  1.00  0.00    -0.244 NA
HETATM    9  C11 UNL     1      24.746   4.239  49.697  1.00  0.00     0.195 C 
HETATM   10  C13 UNL     1      25.960   3.265  49.545  1.00  0.00     0.207 C 
HETATM   11  O2  UNL     1      26.329   3.111  50.906  1.00  0.00    -0.373 OA
ENDROOT
BRANCH   9  12
HETATM   12  S1  UNL     1      25.320   5.918  50.033  1.00  0.00    -0.144 SA
HETATM   13  C12 UNL     1      24.188   6.674  51.254  1.00  0.00     0.092 C 
ENDBRANCH   9  12
BRANCH   1  14
HETATM   14  C4  UNL     1      26.219   1.167  52.091  1.00  0.00     0.023 C 
HETATM   15  C5  UNL     1      25.741  -0.041  52.263  1.00  0.00     0.061 C 
BRANCH  14  16
HETATM   16  N1  UNL     1      27.554   1.376  52.519  1.00  0.00    -0.328 N 
HETATM   17  C3  UNL     1      27.864   1.416  53.892  1.00  0.00     0.244 C 
HETATM   18  O1  UNL     1      27.044   1.280  54.814  1.00  0.00    -0.268 OA
HETATM   19  H4  UNL     1      28.270   1.493  51.795  1.00  0.00     0.168 HD
BRANCH  17  20
HETATM   20  C2  UNL     1      29.245   1.632  54.337  1.00  0.00     0.064 C 
HETATM   21  C1  UNL     1      29.529   0.444  53.823  1.00  0.00     0.017 C 
ENDBRANCH  17  20
ENDBRANCH  14  16
ENDBRANCH   1  14
TORSDOF 4
ENDMDL
MODEL 4
REMARK VINA RESULT:      -6.9      3.552      7.231
REMARK  4 active torsions:
REMARK  status: ('A' for Active; 'I' for Inactive)
REMARK    1  A    between atoms: C2_2  and  C3_3 
REMARK       I    between atoms: C3_3  and  N1_5 
REMARK    2  A    between atoms: N1_5  and  C4_6 
REMARK    3  A    between atoms: C4_6  and  C6_8 
REMARK    4  A    between atoms: C11_16  and  S1_17 
ROOT
HETATM    1  C6  UNL     1      24.153   3.668  51.215  1.00  0.00     0.192 C 
HETATM    2  C7  UNL     1      24.133   2.959  49.935  1.00  0.00     0.044 C 
HETATM    3  C8  UNL     1      22.896   2.956  49.436  1.00  0.00     0.087 C 
HETATM    4  N2  UNL     1      22.233   2.003  49.955  1.00  0.00    -0.218 NA
HETATM    5  C9  UNL     1      22.142   2.000  51.374  1.00  0.00     0.229 C 
HETATM    6  C10 UNL     1      20.963   2.326  52.140  1.00  0.00     0.140 C 
HETATM    7  N3  UNL     1      20.039   2.582  52.764  1.00  0.00    -0.188 NA
HETATM    8  N4  UNL     1      23.297   1.629  51.577  1.00  0.00    -0.244 NA
HETATM    9  C11 UNL     1      23.942   1.402  52.798  1.00  0.00     0.195 C 
HETATM   10  C13 UNL     1      24.490   2.783  53.289  1.00  0.00     0.207 C 
HETATM   11  O2  UNL     1      25.152   3.220  52.113  1.00  0.00    -0.373 OA
ENDROOT
BRANCH   9  12
HETATM   12  S1  UNL     1      25.269   0.179  52.739  1.00  0.00    -0.144 SA
HETATM   13  C12 UNL     1      26.192   0.264  54.315  1.00  0.00     0.092 C 
ENDBRANCH   9  12
BRANCH   1  14
HETATM   14  C4  UNL     1      24.569   5.040  50.871  1.00  0.00     0.023 C 
HETATM   15  C5  UNL     1      23.755   6.053  51.045  1.00  0.00     0.061 C 
BRANCH  14  16
HETATM   16  N1  UNL     1      25.840   5.350  50.328  1.00  0.00    -0.328 N 
HETATM   17  C3  UNL     1      25.956   5.837  49.012  1.00  0.00     0.244 C 
HETATM   18  O1  UNL     1      25.006   6.033  48.238  1.00  0.00    -0.268 OA
HETATM   19  H4  UNL     1      26.658   5.206  50.930  1.00  0.00     0.168 HD
BRANCH  17  20
HETATM   20  C2  UNL     1      27.271   6.158  48.450  1.00  0.00     0.064 C 
HETATM   21  C1  UNL     1      27.592   4.886  48.637  1.00  0.00     0.017 C 
ENDBRANCH  17  20
ENDBRANCH  14  16
ENDBRANCH   1  14
TORSDOF 4
ENDMDL
MODEL 5
REMARK VINA RESULT:      -6.9      3.362      5.833
REMARK  4 active torsions:
REMARK  status: ('A' for Active; 'I' for Inactive)
REMARK    1  A    between atoms: C2_2  and  C3_3 
REMARK       I    between atoms: C3_3  and  N1_5 
REMARK    2  A    between atoms: N1_5  and  C4_6 
REMARK    3  A    between atoms: C4_6  and  C6_8 
REMARK    4  A    between atoms: C11_16  and  S1_17 
ROOT
HETATM    1  C6  UNL     1      23.995   3.368  51.807  1.00  0.00     0.192 C 
HETATM    2  C7  UNL     1      24.028   2.672  50.520  1.00  0.00     0.044 C 
HETATM    3  C8  UNL     1      25.074   3.088  49.804  1.00  0.00     0.087 C 
HETATM    4  N2  UNL     1      24.769   4.162  49.197  1.00  0.00    -0.218 NA
HETATM    5  C9  UNL     1      24.328   5.242  50.010  1.00  0.00     0.229 C 
HETATM    6  C10 UNL     1      25.086   6.433  50.308  1.00  0.00     0.140 C 
HETATM    7  N3  UNL     1      25.671   7.383  50.556  1.00  0.00    -0.188 NA
HETATM    8  N4  UNL     1      23.215   4.776  50.249  1.00  0.00    -0.244 NA
HETATM    9  C11 UNL     1      22.187   5.319  51.029  1.00  0.00     0.195 C 
HETATM   10  C13 UNL     1      22.477   4.915  52.512  1.00  0.00     0.207 C 
HETATM   11  O2  UNL     1      22.698   3.523  52.352  1.00  0.00    -0.373 OA
ENDROOT
BRANCH   9  12
HETATM   12  S1  UNL     1      20.522   4.814  50.549  1.00  0.00    -0.144 SA
HETATM   13  C12 UNL     1      20.667   3.498  49.287  1.00  0.00     0.092 C 
ENDBRANCH   9  12
BRANCH   1  14
HETATM   14  C4  UNL     1      24.670   2.447  52.741  1.00  0.00     0.023 C 
HETATM   15  C5  UNL     1      24.120   1.305  53.074  1.00  0.00     0.061 C 
BRANCH  14  16
HETATM   16  N1  UNL     1      25.923   2.733  53.338  1.00  0.00    -0.328 N 
HETATM   17  C3  UNL     1      27.095   2.107  52.872  1.00  0.00     0.244 C 
HETATM   18  O1  UNL     1      27.144   1.287  51.941  1.00  0.00    -0.268 OA
HETATM   19  H4  UNL     1      25.935   3.406  54.112  1.00  0.00     0.168 HD
BRANCH  17  20
HETATM   20  C2  UNL     1      28.392   2.401  53.489  1.00  0.00     0.064 C 
HETATM   21  C1  UNL     1      28.613   1.095  53.500  1.00  0.00     0.017 C 
ENDBRANCH  17  20
ENDBRANCH  14  16
ENDBRANCH   1  14
TORSDOF 4
ENDMDL
MODEL 6
REMARK VINA RESULT:      -6.9      2.932      5.102
REMARK  4 active torsions:
REMARK  status: ('A' for Active; 'I' for Inactive)
REMARK    1  A    between atoms: C2_2  and  C3_3 
REMARK       I    between atoms: C3_3  and  N1_5 
REMARK    2  A    between atoms: N1_5  and  C4_6 
REMARK    3  A    between atoms: C4_6  and  C6_8 
REMARK    4  A    between atoms: C11_16  and  S1_17 
ROOT
HETATM    1  C6  UNL     1      25.104   2.564  51.353  1.00  0.00     0.192 C 
HETATM    2  C7  UNL     1      26.077   2.508  50.260  1.00  0.00     0.044 C 
HETATM    3  C8  UNL     1      26.759   3.652  50.198  1.00  0.00     0.087 C 
HETATM    4  N2  UNL     1      26.091   4.508  49.538  1.00  0.00    -0.218 NA
HETATM    5  C9  UNL     1      24.783   4.794  50.019  1.00  0.00     0.229 C 
HETATM    6  C10 UNL     1      24.382   6.008  50.685  1.00  0.00     0.140 C 
HETATM    7  N3  UNL     1      24.044   6.964  51.215  1.00  0.00    -0.188 NA
HETATM    8  N4  UNL     1      24.273   3.742  49.637  1.00  0.00    -0.244 NA
HETATM    9  C11 UNL     1      22.949   3.310  49.777  1.00  0.00     0.195 C 
HETATM   10  C13 UNL     1      22.832   2.645  51.188  1.00  0.00     0.207 C 
HETATM   11  O2  UNL     1      23.949   1.772  51.146  1.00  0.00    -0.373 OA
ENDROOT
BRANCH   9  12
HETATM   12  S1  UNL     1      22.382   2.174  48.493  1.00  0.00    -0.144 SA
HETATM   13  C12 UNL     1      20.906   1.295  49.121  1.00  0.00     0.092 C 
ENDBRANCH   9  12
BRANCH   1  14
HETATM   14  C4  UNL     1      25.786   1.916  52.488  1.00  0.00     0.023 C 
HETATM   15  C5  UNL     1      25.690   2.406  53.699  1.00  0.00     0.061 C 
BRANCH  14  16
HETATM   16  N1  UNL     1      26.584   0.753  52.348  1.00  0.00    -0.328 N 
HETATM   17  C3  UNL     1      26.075  -0.510  52.707  1.00  0.00     0.244 C 
HETATM   18  O1  UNL     1      24.937  -0.719  53.156  1.00  0.00    -0.268 OA
HETATM   19  H4  UNL     1      27.534   0.873  51.979  1.00  0.00     0.168 HD
BRANCH  17  20
HETATM   20  C2  UNL     1      26.900  -1.713  52.562  1.00  0.00     0.064 C 
HETATM   21  C1  UNL     1      27.898  -1.015  53.082  1.00  0.00     0.017 C 
ENDBRANCH  17  20
ENDBRANCH  14  16
ENDBRANCH   1  14
TORSDOF 4
ENDMDL
MODEL 7
REMARK VINA RESULT:      -6.8      8.666     10.944
REMARK  4 active torsions:
REMARK  status: ('A' for Active; 'I' for Inactive)
REMARK    1  A    between atoms: C2_2  and  C3_3 
REMARK       I    between atoms: C3_3  and  N1_5 
REMARK    2  A    between atoms: N1_5  and  C4_6 
REMARK    3  A    between atoms: C4_6  and  C6_8 
REMARK    4  A    between atoms: C11_16  and  S1_17 
ROOT
HETATM    1  C6  UNL     1      31.608   7.207  47.808  1.00  0.00     0.192 C 
HETATM    2  C7  UNL     1      31.801   5.823  48.247  1.00  0.00     0.044 C 
HETATM    3  C8  UNL     1      32.730   5.774  49.204  1.00  0.00     0.087 C 
HETATM    4  N2  UNL     1      33.884   5.749  48.672  1.00  0.00    -0.218 NA
HETATM    5  C9  UNL     1      34.198   6.828  47.799  1.00  0.00     0.229 C 
HETATM    6  C10 UNL     1      35.109   7.907  48.094  1.00  0.00     0.140 C 
HETATM    7  N3  UNL     1      35.828   8.770  48.309  1.00  0.00    -0.188 NA
HETATM    8  N4  UNL     1      33.494   6.447  46.865  1.00  0.00    -0.244 NA
HETATM    9  C11 UNL     1      33.298   7.048  45.616  1.00  0.00     0.195 C 
HETATM   10  C13 UNL     1      32.170   8.117  45.795  1.00  0.00     0.207 C 
HETATM   11  O2  UNL     1      31.191   7.337  46.462  1.00  0.00    -0.373 OA
ENDROOT
BRANCH   9  12
HETATM   12  S1  UNL     1      32.879   5.904  44.283  1.00  0.00    -0.144 SA
HETATM   13  C12 UNL     1      34.373   5.652  43.258  1.00  0.00     0.092 C 
ENDBRANCH   9  12
BRANCH   1  14
HETATM   14  C4  UNL     1      30.454   7.684  48.591  1.00  0.00     0.023 C 
HETATM   15  C5  UNL     1      30.386   8.928  48.999  1.00  0.00     0.061 C 
BRANCH  14  16
HETATM   16  N1  UNL     1      29.370   6.849  48.958  1.00  0.00    -0.328 N 
HETATM   17  C3  UNL     1      28.189   6.832  48.191  1.00  0.00     0.244 C 
HETATM   18  O1  UNL     1      27.992   7.510  47.170  1.00  0.00    -0.268 OA
HETATM   19  H4  UNL     1      29.484   6.266  49.795  1.00  0.00     0.168 HD
BRANCH  17  20
HETATM   20  C2  UNL     1      27.068   5.967  48.570  1.00  0.00     0.064 C 
HETATM   21  C1  UNL     1      27.922   4.955  48.547  1.00  0.00     0.017 C 
ENDBRANCH  17  20
ENDBRANCH  14  16
ENDBRANCH   1  14
TORSDOF 4
ENDMDL
MODEL 8
REMARK VINA RESULT:      -6.7      2.670      5.569
REMARK  4 active torsions:
REMARK  status: ('A' for Active; 'I' for Inactive)
REMARK    1  A    between atoms: C2_2  and  C3_3 
REMARK       I    between atoms: C3_3  and  N1_5 
REMARK    2  A    between atoms: N1_5  and  C4_6 
REMARK    3  A    between atoms: C4_6  and  C6_8 
REMARK    4  A    between atoms: C11_16  and  S1_17 
ROOT
HETATM    1  C6  UNL     1      24.751   2.107  52.178  1.00  0.00     0.192 C 
HETATM    2  C7  UNL     1      25.078   2.570  53.528  1.00  0.00     0.044 C 
HETATM    3  C8  UNL     1      26.265   2.088  53.900  1.00  0.00     0.087 C 
HETATM    4  N2  UNL     1      26.119   0.911  54.357  1.00  0.00    -0.218 NA
HETATM    5  C9  UNL     1      25.508  -0.032  53.485  1.00  0.00     0.229 C 
HETATM    6  C10 UNL     1      26.185  -1.114  52.813  1.00  0.00     0.140 C 
HETATM    7  N3  UNL     1      26.704  -1.977  52.272  1.00  0.00    -0.188 NA
HETATM    8  N4  UNL     1      24.366   0.413  53.594  1.00  0.00    -0.244 NA
HETATM    9  C11 UNL     1      23.190  -0.037  52.984  1.00  0.00     0.195 C 
HETATM   10  C13 UNL     1      23.122   0.632  51.572  1.00  0.00     0.207 C 
HETATM   11  O2  UNL     1      23.364   1.984  51.925  1.00  0.00    -0.373 OA
ENDROOT
BRANCH   9  12
HETATM   12  S1  UNL     1      21.678   0.295  53.914  1.00  0.00    -0.144 SA
HETATM   13  C12 UNL     1      20.255   0.083  52.786  1.00  0.00     0.092 C 
ENDBRANCH   9  12
BRANCH   1  14
HETATM   14  C4  UNL     1      25.182   3.207  51.296  1.00  0.00     0.023 C 
HETATM   15  C5  UNL     1      25.936   2.973  50.250  1.00  0.00     0.061 C 
BRANCH  14  16
HETATM   16  N1  UNL     1      24.830   4.561  51.520  1.00  0.00    -0.328 N 
HETATM   17  C3  UNL     1      23.824   5.174  50.749  1.00  0.00     0.244 C 
HETATM   18  O1  UNL     1      23.180   4.619  49.844  1.00  0.00    -0.268 OA
HETATM   19  H4  UNL     1      25.334   5.064  52.259  1.00  0.00     0.168 HD
BRANCH  17  20
HETATM   20  C2  UNL     1      23.459   6.575  50.980  1.00  0.00     0.064 C 
HETATM   21  C1  UNL     1      24.722   6.881  50.723  1.00  0.00     0.017 C 
ENDBRANCH  17  20
ENDBRANCH  14  16
ENDBRANCH   1  14
TORSDOF 4
ENDMDL
MODEL 9
REMARK VINA RESULT:      -6.6     10.008     11.641
REMARK  4 active torsions:
REMARK  status: ('A' for Active; 'I' for Inactive)
REMARK    1  A    between atoms: C2_2  and  C3_3 
REMARK       I    between atoms: C3_3  and  N1_5 
REMARK    2  A    between atoms: N1_5  and  C4_6 
REMARK    3  A    between atoms: C4_6  and  C6_8 
REMARK    4  A    between atoms: C11_16  and  S1_17 
ROOT
HETATM    1  C6  UNL     1      32.744   6.877  47.833  1.00  0.00     0.192 C 
HETATM    2  C7  UNL     1      32.880   7.981  48.785  1.00  0.00     0.044 C 
HETATM    3  C8  UNL     1      31.959   7.871  49.744  1.00  0.00     0.087 C 
HETATM    4  N2  UNL     1      30.865   8.375  49.340  1.00  0.00    -0.218 NA
HETATM    5  C9  UNL     1      30.327   7.833  48.140  1.00  0.00     0.229 C 
HETATM    6  C10 UNL     1      29.171   6.975  48.052  1.00  0.00     0.140 C 
HETATM    7  N3  UNL     1      28.256   6.294  47.962  1.00  0.00    -0.188 NA
HETATM    8  N4  UNL     1      31.134   8.369  47.383  1.00  0.00    -0.244 NA
HETATM    9  C11 UNL     1      31.221   8.278  45.989  1.00  0.00     0.195 C 
HETATM   10  C13 UNL     1      32.047   6.989  45.666  1.00  0.00     0.207 C 
HETATM   11  O2  UNL     1      33.164   7.189  46.517  1.00  0.00    -0.373 OA
ENDROOT
BRANCH   9  12
HETATM   12  S1  UNL     1      31.951   9.717  45.178  1.00  0.00    -0.144 SA
HETATM   13  C12 UNL     1      32.455  10.906  46.473  1.00  0.00     0.092 C 
ENDBRANCH   9  12
BRANCH   1  14
HETATM   14  C4  UNL     1      33.720   5.872  48.293  1.00  0.00     0.023 C 
HETATM   15  C5  UNL     1      34.965   6.205  48.533  1.00  0.00     0.061 C 
BRANCH  14  16
HETATM   16  N1  UNL     1      33.391   4.508  48.489  1.00  0.00    -0.328 N 
HETATM   17  C3  UNL     1      33.453   3.597  47.417  1.00  0.00     0.244 C 
HETATM   18  O1  UNL     1      33.785   3.884  46.255  1.00  0.00    -0.268 OA
HETATM   19  H4  UNL     1      33.112   4.220  49.433  1.00  0.00     0.168 HD
BRANCH  17  20
HETATM   20  C2  UNL     1      33.114   2.186  47.619  1.00  0.00     0.064 C 
HETATM   21  C1  UNL     1      32.202   2.334  46.669  1.00  0.00     0.017 C 
ENDBRANCH  17  20
ENDBRANCH  14  16
ENDBRANCH   1  14
TORSDOF 4
ENDMDL
