MODEL 1
REMARK VINA RESULT:      -6.8      0.000      0.000
REMARK  7 active torsions:
REMARK  status: ('A' for Active; 'I' for Inactive)
REMARK    1  A    between atoms: C2_2  and  O3_19 
REMARK    2  A    between atoms: C3_3  and  C4_4 
REMARK    3  A    between atoms: C5_5  and  S1_6 
REMARK    4  A    between atoms: S1_6  and  N1_9 
REMARK    5  A    between atoms: N1_9  and  C6_10 
REMARK    6  A    between atoms: C6_10  and  C7_11 
REMARK    7  A    between atoms: C7_11  and  C8_12 
ROOT
HETATM    1  N1  UNL     1      27.707   0.032  55.010  1.00  0.00    -0.209 NA
HETATM    2  H5  UNL     1      28.103  -0.070  55.947  1.00  0.00     0.140 HD
ENDROOT
BRANCH   1   3
HETATM    3  S1  UNL     1      28.618   1.067  53.981  1.00  0.00     0.281 S 
HETATM    4  O1  UNL     1      29.124   2.200  54.860  1.00  0.00    -0.198 OA
HETATM    5  O2  UNL     1      29.825   0.352  53.451  1.00  0.00    -0.198 OA
BRANCH   3   6
HETATM    6  C5  UNL     1      27.635   1.682  52.704  1.00  0.00     0.048 C 
HETATM    7  C4  UNL     1      26.938   2.105  51.803  1.00  0.00    -0.058 C 
BRANCH   7   8
HETATM    8  C3  UNL     1      26.109   2.590  50.712  1.00  0.00     0.100 C 
HETATM    9  C2  UNL     1      25.010   3.293  50.933  1.00  0.00     0.093 C 
HETATM   10  C1  UNL     1      24.228   3.745  49.738  1.00  0.00     0.080 C 
BRANCH   9  11
HETATM   11  O3  UNL     1      24.664   3.558  52.253  1.00  0.00    -0.160 OA
HETATM   12  F1  UNL     1      23.395   3.618  52.669  1.00  0.00    -0.042 F 
ENDBRANCH   9  11
ENDBRANCH   7   8
ENDBRANCH   3   6
ENDBRANCH   1   3
BRANCH   1  13
HETATM   13  C6  UNL     1      26.294   0.295  54.963  1.00  0.00     0.109 C 
BRANCH  13  14
HETATM   14  C7  UNL     1      25.574  -0.873  54.324  1.00  0.00     0.054 C 
BRANCH  14  15
HETATM   15  C8  UNL     1      24.195  -0.541  53.934  1.00  0.00    -0.057 A 
HETATM   16  C9  UNL     1      23.850   0.216  52.833  1.00  0.00     0.009 A 
HETATM   17  C10 UNL     1      22.523   0.485  52.533  1.00  0.00     0.024 A 
HETATM   18  C11 UNL     1      21.509  -0.003  53.336  1.00  0.00     0.034 A 
HETATM   19 CL1  UNL     1      19.830   0.332  52.963  1.00  0.00    -0.084 Cl
HETATM   20  C12 UNL     1      21.845  -0.761  54.437  1.00  0.00     0.024 A 
HETATM   21  C13 UNL     1      23.178  -1.031  54.739  1.00  0.00     0.009 A 
ENDBRANCH  14  15
ENDBRANCH  13  14
ENDBRANCH   1  13
TORSDOF 7
ENDMDL
MODEL 2
REMARK VINA RESULT:      -6.6      1.745      2.087
REMARK  7 active torsions:
REMARK  status: ('A' for Active; 'I' for Inactive)
REMARK    1  A    between atoms: C2_2  and  O3_19 
REMARK    2  A    between atoms: C3_3  and  C4_4 
REMARK    3  A    between atoms: C5_5  and  S1_6 
REMARK    4  A    between atoms: S1_6  and  N1_9 
REMARK    5  A    between atoms: N1_9  and  C6_10 
REMARK    6  A    between atoms: C6_10  and  C7_11 
REMARK    7  A    between atoms: C7_11  and  C8_12 
ROOT
HETATM    1  N1  UNL     1      27.513  -0.884  53.729  1.00  0.00    -0.209 NA
HETATM    2  H5  UNL     1      27.754  -1.297  54.632  1.00  0.00     0.140 HD
ENDROOT
BRANCH   1   3
HETATM    3  S1  UNL     1      28.132   0.705  53.505  1.00  0.00     0.281 S 
HETATM    4  O1  UNL     1      28.262   1.309  54.896  1.00  0.00    -0.198 OA
HETATM    5  O2  UNL     1      29.512   0.654  52.921  1.00  0.00    -0.198 OA
BRANCH   3   6
HETATM    6  C5  UNL     1      27.066   1.648  52.531  1.00  0.00     0.048 C 
HETATM    7  C4  UNL     1      26.305   2.305  51.849  1.00  0.00    -0.058 C 
BRANCH   7   8
HETATM    8  C3  UNL     1      25.384   3.071  51.026  1.00  0.00     0.100 C 
HETATM    9  C2  UNL     1      25.790   3.721  49.946  1.00  0.00     0.093 C 
HETATM   10  C1  UNL     1      24.759   4.480  49.170  1.00  0.00     0.080 C 
BRANCH   9  11
HETATM   11  O3  UNL     1      27.138   3.650  49.617  1.00  0.00    -0.160 OA
HETATM   12  F1  UNL     1      27.658   4.287  48.563  1.00  0.00    -0.042 F 
ENDBRANCH   9  11
ENDBRANCH   7   8
ENDBRANCH   3   6
ENDBRANCH   1   3
BRANCH   1  13
HETATM   13  C6  UNL     1      26.132  -1.009  53.345  1.00  0.00     0.109 C 
BRANCH  13  14
HETATM   14  C7  UNL     1      25.239  -0.609  54.500  1.00  0.00     0.054 C 
BRANCH  14  15
HETATM   15  C8  UNL     1      23.817  -0.569  54.126  1.00  0.00    -0.057 A 
HETATM   16  C9  UNL     1      22.803  -1.194  54.822  1.00  0.00     0.009 A 
HETATM   17  C10 UNL     1      21.483  -1.108  54.403  1.00  0.00     0.024 A 
HETATM   18  C11 UNL     1      21.153  -0.389  53.270  1.00  0.00     0.034 A 
HETATM   19 CL1  UNL     1      19.488  -0.275  52.735  1.00  0.00    -0.084 Cl
HETATM   20  C12 UNL     1      22.160   0.239  52.569  1.00  0.00     0.024 A 
HETATM   21  C13 UNL     1      23.485   0.152  52.989  1.00  0.00     0.009 A 
ENDBRANCH  14  15
ENDBRANCH  13  14
ENDBRANCH   1  13
TORSDOF 7
ENDMDL
MODEL 3
REMARK VINA RESULT:      -6.6      4.239      6.953
REMARK  7 active torsions:
REMARK  status: ('A' for Active; 'I' for Inactive)
REMARK    1  A    between atoms: C2_2  and  O3_19 
REMARK    2  A    between atoms: C3_3  and  C4_4 
REMARK    3  A    between atoms: C5_5  and  S1_6 
REMARK    4  A    between atoms: S1_6  and  N1_9 
REMARK    5  A    between atoms: N1_9  and  C6_10 
REMARK    6  A    between atoms: C6_10  and  C7_11 
REMARK    7  A    between atoms: C7_11  and  C8_12 
ROOT
HETATM    1  N1  UNL     1      27.316   2.831  51.658  1.00  0.00    -0.209 NA
HETATM    2  H5  UNL     1      28.145   2.567  51.121  1.00  0.00     0.140 HD
ENDROOT
BRANCH   1   3
HETATM    3  S1  UNL     1      26.995   1.793  52.992  1.00  0.00     0.281 S 
HETATM    4  O1  UNL     1      27.855   0.555  52.783  1.00  0.00    -0.198 OA
HETATM    5  O2  UNL     1      27.446   2.428  54.273  1.00  0.00    -0.198 OA
BRANCH   3   6
HETATM    6  C5  UNL     1      25.324   1.368  53.050  1.00  0.00     0.048 C 
HETATM    7  C4  UNL     1      24.149   1.064  53.102  1.00  0.00    -0.058 C 
BRANCH   7   8
HETATM    8  C3  UNL     1      22.749   0.681  53.176  1.00  0.00     0.100 C 
HETATM    9  C2  UNL     1      22.349  -0.363  53.884  1.00  0.00     0.093 C 
HETATM   10  C1  UNL     1      20.884  -0.671  53.892  1.00  0.00     0.080 C 
BRANCH   9  11
HETATM   11  O3  UNL     1      23.316  -1.093  54.564  1.00  0.00    -0.160 OA
HETATM   12  F1  UNL     1      23.294  -1.264  55.890  1.00  0.00    -0.042 F 
ENDBRANCH   9  11
ENDBRANCH   7   8
ENDBRANCH   3   6
ENDBRANCH   1   3
BRANCH   1  13
HETATM   13  C6  UNL     1      26.144   3.123  50.878  1.00  0.00     0.109 C 
BRANCH  13  14
HETATM   14  C7  UNL     1      26.517   3.235  49.415  1.00  0.00     0.054 C 
BRANCH  14  15
HETATM   15  C8  UNL     1      26.753   4.627  48.998  1.00  0.00    -0.057 A 
HETATM   16  C9  UNL     1      25.800   5.625  49.014  1.00  0.00     0.009 A 
HETATM   17  C10 UNL     1      26.103   6.915  48.604  1.00  0.00     0.024 A 
HETATM   18  C11 UNL     1      27.376   7.231  48.167  1.00  0.00     0.034 A 
HETATM   19 CL1  UNL     1      27.766   8.858  47.649  1.00  0.00    -0.084 Cl
HETATM   20  C12 UNL     1      28.334   6.240  48.149  1.00  0.00     0.024 A 
HETATM   21  C13 UNL     1      28.029   4.944  48.560  1.00  0.00     0.009 A 
ENDBRANCH  14  15
ENDBRANCH  13  14
ENDBRANCH   1  13
TORSDOF 7
ENDMDL
MODEL 4
REMARK VINA RESULT:      -6.5      2.879      4.805
REMARK  7 active torsions:
REMARK  status: ('A' for Active; 'I' for Inactive)
REMARK    1  A    between atoms: C2_2  and  O3_19 
REMARK    2  A    between atoms: C3_3  and  C4_4 
REMARK    3  A    between atoms: C5_5  and  S1_6 
REMARK    4  A    between atoms: S1_6  and  N1_9 
REMARK    5  A    between atoms: N1_9  and  C6_10 
REMARK    6  A    between atoms: C6_10  and  C7_11 
REMARK    7  A    between atoms: C7_11  and  C8_12 
ROOT
HETATM    1  N1  UNL     1      26.871   0.799  52.111  1.00  0.00    -0.209 NA
HETATM    2  H5  UNL     1      26.552   0.286  51.286  1.00  0.00     0.140 HD
ENDROOT
BRANCH   1   3
HETATM    3  S1  UNL     1      26.113   0.300  53.573  1.00  0.00     0.281 S 
HETATM    4  O1  UNL     1      26.742  -1.036  53.941  1.00  0.00    -0.198 OA
HETATM    5  O2  UNL     1      26.434   1.254  54.683  1.00  0.00    -0.198 OA
BRANCH   3   6
HETATM    6  C5  UNL     1      24.411   0.130  53.355  1.00  0.00     0.048 C 
HETATM    7  C4  UNL     1      23.213   0.009  53.190  1.00  0.00    -0.058 C 
BRANCH   7   8
HETATM    8  C3  UNL     1      21.782  -0.122  52.973  1.00  0.00     0.100 C 
HETATM    9  C2  UNL     1      20.994  -0.711  53.859  1.00  0.00     0.093 C 
HETATM   10  C1  UNL     1      19.534  -0.792  53.537  1.00  0.00     0.080 C 
BRANCH   9  11
HETATM   11  O3  UNL     1      21.580  -1.208  55.017  1.00  0.00    -0.160 OA
HETATM   12  F1  UNL     1      22.121  -2.428  55.086  1.00  0.00    -0.042 F 
ENDBRANCH   9  11
ENDBRANCH   7   8
ENDBRANCH   3   6
ENDBRANCH   1   3
BRANCH   1  13
HETATM   13  C6  UNL     1      26.923   2.229  51.965  1.00  0.00     0.109 C 
BRANCH  13  14
HETATM   14  C7  UNL     1      26.091   2.654  50.774  1.00  0.00     0.054 C 
BRANCH  14  15
HETATM   15  C8  UNL     1      24.691   2.930  51.134  1.00  0.00    -0.057 A 
HETATM   16  C9  UNL     1      24.291   3.634  52.252  1.00  0.00     0.009 A 
HETATM   17  C10 UNL     1      22.948   3.852  52.522  1.00  0.00     0.024 A 
HETATM   18  C11 UNL     1      21.974   3.365  51.671  1.00  0.00     0.034 A 
HETATM   19 CL1  UNL     1      20.275   3.637  52.005  1.00  0.00    -0.084 Cl
HETATM   20  C12 UNL     1      22.365   2.661  50.552  1.00  0.00     0.024 A 
HETATM   21  C13 UNL     1      23.713   2.442  50.281  1.00  0.00     0.009 A 
ENDBRANCH  14  15
ENDBRANCH  13  14
ENDBRANCH   1  13
TORSDOF 7
ENDMDL
MODEL 5
REMARK VINA RESULT:      -6.5      4.174      6.278
REMARK  7 active torsions:
REMARK  status: ('A' for Active; 'I' for Inactive)
REMARK    1  A    between atoms: C2_2  and  O3_19 
REMARK    2  A    between atoms: C3_3  and  C4_4 
REMARK    3  A    between atoms: C5_5  and  S1_6 
REMARK    4  A    between atoms: S1_6  and  N1_9 
REMARK    5  A    between atoms: N1_9  and  C6_10 
REMARK    6  A    between atoms: C6_10  and  C7_11 
REMARK    7  A    between atoms: C7_11  and  C8_12 
ROOT
HETATM    1  N1  UNL     1      22.254   0.899  53.421  1.00  0.00    -0.209 NA
HETATM    2  H5  UNL     1      21.597   1.205  54.142  1.00  0.00     0.140 HD
ENDROOT
BRANCH   1   3
HETATM    3  S1  UNL     1      23.069  -0.567  53.804  1.00  0.00     0.281 S 
HETATM    4  O1  UNL     1      22.592  -0.967  55.192  1.00  0.00    -0.198 OA
HETATM    5  O2  UNL     1      22.651  -1.660  52.866  1.00  0.00    -0.198 OA
BRANCH   3   6
HETATM    6  C5  UNL     1      24.779  -0.340  53.792  1.00  0.00     0.048 C 
HETATM    7  C4  UNL     1      25.982  -0.172  53.792  1.00  0.00    -0.058 C 
BRANCH   7   8
HETATM    8  C3  UNL     1      27.418   0.053  53.794  1.00  0.00     0.100 C 
HETATM    9  C2  UNL     1      28.274  -0.913  53.502  1.00  0.00     0.093 C 
HETATM   10  C1  UNL     1      29.732  -0.575  53.534  1.00  0.00     0.080 C 
BRANCH   9  11
HETATM   11  O3  UNL     1      27.757  -2.165  53.189  1.00  0.00    -0.160 OA
HETATM   12  F1  UNL     1      28.523  -3.182  52.786  1.00  0.00    -0.042 F 
ENDBRANCH   9  11
ENDBRANCH   7   8
ENDBRANCH   3   6
ENDBRANCH   1   3
BRANCH   1  13
HETATM   13  C6  UNL     1      23.136   1.919  52.920  1.00  0.00     0.109 C 
BRANCH  13  14
HETATM   14  C7  UNL     1      23.027   1.997  51.412  1.00  0.00     0.054 C 
BRANCH  14  15
HETATM   15  C8  UNL     1      24.204   2.626  50.793  1.00  0.00    -0.057 A 
HETATM   16  C9  UNL     1      25.511   2.379  51.158  1.00  0.00     0.009 A 
HETATM   17  C10 UNL     1      26.568   3.014  50.524  1.00  0.00     0.024 A 
HETATM   18  C11 UNL     1      26.333   3.917  49.504  1.00  0.00     0.034 A 
HETATM   19 CL1  UNL     1      27.663   4.723  48.697  1.00  0.00    -0.084 Cl
HETATM   20  C12 UNL     1      25.030   4.169  49.132  1.00  0.00     0.024 A 
HETATM   21  C13 UNL     1      23.969   3.532  49.770  1.00  0.00     0.009 A 
ENDBRANCH  14  15
ENDBRANCH  13  14
ENDBRANCH   1  13
TORSDOF 7
ENDMDL
MODEL 6
REMARK VINA RESULT:      -6.4      3.901      5.547
REMARK  7 active torsions:
REMARK  status: ('A' for Active; 'I' for Inactive)
REMARK    1  A    between atoms: C2_2  and  O3_19 
REMARK    2  A    between atoms: C3_3  and  C4_4 
REMARK    3  A    between atoms: C5_5  and  S1_6 
REMARK    4  A    between atoms: S1_6  and  N1_9 
REMARK    5  A    between atoms: N1_9  and  C6_10 
REMARK    6  A    between atoms: C6_10  and  C7_11 
REMARK    7  A    between atoms: C7_11  and  C8_12 
ROOT
HETATM    1  N1  UNL     1      22.268   0.726  52.699  1.00  0.00    -0.209 NA
HETATM    2  H5  UNL     1      22.001  -0.238  52.492  1.00  0.00     0.140 HD
ENDROOT
BRANCH   1   3
HETATM    3  S1  UNL     1      21.669   1.872  51.564  1.00  0.00     0.281 S 
HETATM    4  O1  UNL     1      20.751   1.100  50.628  1.00  0.00    -0.198 OA
HETATM    5  O2  UNL     1      20.826   2.902  52.252  1.00  0.00    -0.198 OA
BRANCH   3   6
HETATM    6  C5  UNL     1      22.963   2.596  50.683  1.00  0.00     0.048 C 
HETATM    7  C4  UNL     1      23.879   3.111  50.072  1.00  0.00    -0.058 C 
BRANCH   7   8
HETATM    8  C3  UNL     1      24.972   3.747  49.356  1.00  0.00     0.100 C 
HETATM    9  C2  UNL     1      26.218   3.697  49.800  1.00  0.00     0.093 C 
HETATM   10  C1  UNL     1      27.269   4.385  48.985  1.00  0.00     0.080 C 
BRANCH   9  11
HETATM   11  O3  UNL     1      26.456   3.011  50.985  1.00  0.00    -0.160 OA
HETATM   12  F1  UNL     1      26.812   1.723  51.015  1.00  0.00    -0.042 F 
ENDBRANCH   9  11
ENDBRANCH   7   8
ENDBRANCH   3   6
ENDBRANCH   1   3
BRANCH   1  13
HETATM   13  C6  UNL     1      23.657   0.924  53.018  1.00  0.00     0.109 C 
BRANCH  13  14
HETATM   14  C7  UNL     1      24.181  -0.266  53.792  1.00  0.00     0.054 C 
BRANCH  14  15
HETATM   15  C8  UNL     1      25.651  -0.326  53.809  1.00  0.00    -0.057 A 
HETATM   16  C9  UNL     1      26.455   0.337  54.713  1.00  0.00     0.009 A 
HETATM   17  C10 UNL     1      27.837   0.230  54.662  1.00  0.00     0.024 A 
HETATM   18  C11 UNL     1      28.444  -0.550  53.696  1.00  0.00     0.034 A 
HETATM   19 CL1  UNL     1      30.189  -0.691  53.625  1.00  0.00    -0.084 Cl
HETATM   20  C12 UNL     1      27.648  -1.216  52.788  1.00  0.00     0.024 A 
HETATM   21  C13 UNL     1      26.261  -1.108  52.840  1.00  0.00     0.009 A 
ENDBRANCH  14  15
ENDBRANCH  13  14
ENDBRANCH   1  13
TORSDOF 7
ENDMDL
MODEL 7
REMARK VINA RESULT:      -6.3      2.424      4.354
REMARK  7 active torsions:
REMARK  status: ('A' for Active; 'I' for Inactive)
REMARK    1  A    between atoms: C2_2  and  O3_19 
REMARK    2  A    between atoms: C3_3  and  C4_4 
REMARK    3  A    between atoms: C5_5  and  S1_6 
REMARK    4  A    between atoms: S1_6  and  N1_9 
REMARK    5  A    between atoms: N1_9  and  C6_10 
REMARK    6  A    between atoms: C6_10  and  C7_11 
REMARK    7  A    between atoms: C7_11  and  C8_12 
ROOT
HETATM    1  N1  UNL     1      27.265   0.435  52.343  1.00  0.00    -0.209 NA
HETATM    2  H5  UNL     1      27.244   0.041  51.400  1.00  0.00     0.140 HD
ENDROOT
BRANCH   1   3
HETATM    3  S1  UNL     1      26.552  -0.581  53.534  1.00  0.00     0.281 S 
HETATM    4  O1  UNL     1      26.900  -2.008  53.138  1.00  0.00    -0.198 OA
HETATM    5  O2  UNL     1      27.175  -0.336  54.876  1.00  0.00    -0.198 OA
BRANCH   3   6
HETATM    6  C5  UNL     1      24.841  -0.365  53.581  1.00  0.00     0.048 C 
HETATM    7  C4  UNL     1      23.635  -0.219  53.604  1.00  0.00    -0.058 C 
BRANCH   7   8
HETATM    8  C3  UNL     1      22.193  -0.041  53.607  1.00  0.00     0.100 C 
HETATM    9  C2  UNL     1      21.518   0.202  52.495  1.00  0.00     0.093 C 
HETATM   10  C1  UNL     1      20.035   0.370  52.610  1.00  0.00     0.080 C 
BRANCH   9  11
HETATM   11  O3  UNL     1      22.236   0.283  51.307  1.00  0.00    -0.160 OA
HETATM   12  F1  UNL     1      21.654   0.510  50.125  1.00  0.00    -0.042 F 
ENDBRANCH   9  11
ENDBRANCH   7   8
ENDBRANCH   3   6
ENDBRANCH   1   3
BRANCH   1  13
HETATM   13  C6  UNL     1      26.842   1.806  52.447  1.00  0.00     0.109 C 
BRANCH  13  14
HETATM   14  C7  UNL     1      26.385   2.306  51.093  1.00  0.00     0.054 C 
BRANCH  14  15
HETATM   15  C8  UNL     1      25.004   2.815  51.117  1.00  0.00    -0.057 A 
HETATM   16  C9  UNL     1      24.240   3.066  49.996  1.00  0.00     0.009 A 
HETATM   17  C10 UNL     1      22.943   3.547  50.103  1.00  0.00     0.024 A 
HETATM   18  C11 UNL     1      22.384   3.787  51.344  1.00  0.00     0.034 A 
HETATM   19 CL1  UNL     1      20.746   4.393  51.487  1.00  0.00    -0.084 Cl
HETATM   20  C12 UNL     1      23.141   3.538  52.469  1.00  0.00     0.024 A 
HETATM   21  C13 UNL     1      24.443   3.056  52.362  1.00  0.00     0.009 A 
ENDBRANCH  14  15
ENDBRANCH  13  14
ENDBRANCH   1  13
TORSDOF 7
ENDMDL
MODEL 8
REMARK VINA RESULT:      -6.3      4.651      7.605
REMARK  7 active torsions:
REMARK  status: ('A' for Active; 'I' for Inactive)
REMARK    1  A    between atoms: C2_2  and  O3_19 
REMARK    2  A    between atoms: C3_3  and  C4_4 
REMARK    3  A    between atoms: C5_5  and  S1_6 
REMARK    4  A    between atoms: S1_6  and  N1_9 
REMARK    5  A    between atoms: N1_9  and  C6_10 
REMARK    6  A    between atoms: C6_10  and  C7_11 
REMARK    7  A    between atoms: C7_11  and  C8_12 
ROOT
HETATM    1  N1  UNL     1      24.376   3.669  50.816  1.00  0.00    -0.209 NA
HETATM    2  H5  UNL     1      24.895   4.293  51.439  1.00  0.00     0.140 HD
ENDROOT
BRANCH   1   3
HETATM    3  S1  UNL     1      23.912   2.184  51.551  1.00  0.00     0.281 S 
HETATM    4  O1  UNL     1      23.094   2.556  52.779  1.00  0.00    -0.198 OA
HETATM    5  O2  UNL     1      23.008   1.408  50.642  1.00  0.00    -0.198 OA
BRANCH   3   6
HETATM    6  C5  UNL     1      25.299   1.264  52.003  1.00  0.00     0.048 C 
HETATM    7  C4  UNL     1      26.276   0.620  52.332  1.00  0.00    -0.058 C 
BRANCH   7   8
HETATM    8  C3  UNL     1      27.453  -0.130  52.736  1.00  0.00     0.100 C 
HETATM    9  C2  UNL     1      28.281   0.321  53.666  1.00  0.00     0.093 C 
HETATM   10  C1  UNL     1      29.464  -0.530  54.008  1.00  0.00     0.080 C 
BRANCH   9  11
HETATM   11  O3  UNL     1      27.990   1.547  54.253  1.00  0.00    -0.160 OA
HETATM   12  F1  UNL     1      28.460   2.705  53.779  1.00  0.00    -0.042 F 
ENDBRANCH   9  11
ENDBRANCH   7   8
ENDBRANCH   3   6
ENDBRANCH   1   3
BRANCH   1  13
HETATM   13  C6  UNL     1      24.945   3.495  49.507  1.00  0.00     0.109 C 
BRANCH  13  14
HETATM   14  C7  UNL     1      26.444   3.702  49.566  1.00  0.00     0.054 C 
BRANCH  14  15
HETATM   15  C8  UNL     1      26.865   4.960  48.930  1.00  0.00    -0.057 A 
HETATM   16  C9  UNL     1      26.034   6.035  48.687  1.00  0.00     0.009 A 
HETATM   17  C10 UNL     1      26.509   7.189  48.082  1.00  0.00     0.024 A 
HETATM   18  C11 UNL     1      27.836   7.288  47.705  1.00  0.00     0.034 A 
HETATM   19 CL1  UNL     1      28.443   8.742  46.940  1.00  0.00    -0.084 Cl
HETATM   20  C12 UNL     1      28.673   6.219  47.945  1.00  0.00     0.024 A 
HETATM   21  C13 UNL     1      28.195   5.060  48.552  1.00  0.00     0.009 A 
ENDBRANCH  14  15
ENDBRANCH  13  14
ENDBRANCH   1  13
TORSDOF 7
ENDMDL
MODEL 9
REMARK VINA RESULT:      -6.3      2.962      5.741
REMARK  7 active torsions:
REMARK  status: ('A' for Active; 'I' for Inactive)
REMARK    1  A    between atoms: C2_2  and  O3_19 
REMARK    2  A    between atoms: C3_3  and  C4_4 
REMARK    3  A    between atoms: C5_5  and  S1_6 
REMARK    4  A    between atoms: S1_6  and  N1_9 
REMARK    5  A    between atoms: N1_9  and  C6_10 
REMARK    6  A    between atoms: C6_10  and  C7_11 
REMARK    7  A    between atoms: C7_11  and  C8_12 
ROOT
HETATM    1  N1  UNL     1      28.014   2.428  52.465  1.00  0.00    -0.209 NA
HETATM    2  H5  UNL     1      28.691   2.417  51.699  1.00  0.00     0.140 HD
ENDROOT
BRANCH   1   3
HETATM    3  S1  UNL     1      28.355   1.288  53.708  1.00  0.00     0.281 S 
HETATM    4  O1  UNL     1      29.391   0.332  53.134  1.00  0.00    -0.198 OA
HETATM    5  O2  UNL     1      28.990   1.967  54.884  1.00  0.00    -0.198 OA
BRANCH   3   6
HETATM    6  C5  UNL     1      26.928   0.433  54.165  1.00  0.00     0.048 C 
HETATM    7  C4  UNL     1      25.916  -0.161  54.481  1.00  0.00    -0.058 C 
BRANCH   7   8
HETATM    8  C3  UNL     1      24.696  -0.850  54.865  1.00  0.00     0.100 C 
HETATM    9  C2  UNL     1      23.551  -0.642  54.234  1.00  0.00     0.093 C 
HETATM   10  C1  UNL     1      22.353  -1.404  54.711  1.00  0.00     0.080 C 
BRANCH   9  11
HETATM   11  O3  UNL     1      23.546   0.264  53.180  1.00  0.00    -0.160 OA
HETATM   12  F1  UNL     1      23.407   1.581  53.361  1.00  0.00    -0.042 F 
ENDBRANCH   9  11
ENDBRANCH   7   8
ENDBRANCH   3   6
ENDBRANCH   1   3
BRANCH   1  13
HETATM   13  C6  UNL     1      26.632   2.427  52.065  1.00  0.00     0.109 C 
BRANCH  13  14
HETATM   14  C7  UNL     1      26.534   2.318  50.558  1.00  0.00     0.054 C 
BRANCH  14  15
HETATM   15  C8  UNL     1      26.300   3.619  49.912  1.00  0.00    -0.057 A 
HETATM   16  C9  UNL     1      27.242   4.317  49.186  1.00  0.00     0.009 A 
HETATM   17  C10 UNL     1      26.942   5.541  48.607  1.00  0.00     0.024 A 
HETATM   18  C11 UNL     1      25.682   6.092  48.745  1.00  0.00     0.034 A 
HETATM   19 CL1  UNL     1      25.296   7.638  48.016  1.00  0.00    -0.084 Cl
HETATM   20  C12 UNL     1      24.734   5.401  49.468  1.00  0.00     0.024 A 
HETATM   21  C13 UNL     1      25.036   4.172  50.051  1.00  0.00     0.009 A 
ENDBRANCH  14  15
ENDBRANCH  13  14
ENDBRANCH   1  13
TORSDOF 7
ENDMDL
