MODEL 1
REMARK VINA RESULT:      -7.5      0.000      0.000
REMARK  2 active torsions:
REMARK  status: ('A' for Active; 'I' for Inactive)
REMARK    1  A    between atoms: C3_3  and  C4_4 
REMARK    2  A    between atoms: C10_10  and  N1_11 
ROOT
HETATM    1  C4  UNL     1      22.955   2.211  51.541  1.00  0.00     0.075 C 
HETATM    2  C5  UNL     1      22.507   1.498  50.294  1.00  0.00     0.032 C 
HETATM    3  C6  UNL     1      21.473   0.435  50.497  1.00  0.00     0.043 C 
HETATM    4  C7  UNL     1      21.139   0.360  51.993  1.00  0.00    -0.027 C 
HETATM    5  C8  UNL     1      20.411   1.176  52.878  1.00  0.00     0.011 C 
HETATM    6  C9  UNL     1      20.528   2.661  52.516  1.00  0.00     0.026 C 
HETATM    7  C10 UNL     1      21.830   3.046  52.094  1.00  0.00     0.022 C 
HETATM    8  C11 UNL     1      21.492  -0.442  53.258  1.00  0.00     0.089 A 
HETATM    9  C12 UNL     1      22.886  -0.592  53.687  1.00  0.00     0.106 A 
HETATM   10  C13 UNL     1      22.501  -1.323  54.790  1.00  0.00     0.173 A 
HETATM   11  N2  UNL     1      21.166  -1.479  54.860  1.00  0.00    -0.182 NA
HETATM   12  N3  UNL     1      20.478  -0.923  53.887  1.00  0.00    -0.272 N 
HETATM   13  C14 UNL     1      19.152  -0.737  53.358  1.00  0.00     0.180 C 
HETATM   14  N4  UNL     1      24.045   0.075  52.974  1.00  0.00    -0.236 NA
HETATM   15  C15 UNL     1      23.837   1.373  52.425  1.00  0.00     0.122 C 
HETATM   16 CL1  UNL     1      25.222   2.364  53.031  1.00  0.00    -0.066 Cl
ENDROOT
BRANCH   1  17
HETATM   17  C3  UNL     1      23.911   3.276  51.013  1.00  0.00    -0.008 C 
HETATM   18  C2  UNL     1      24.345   3.628  49.835  1.00  0.00    -0.033 C 
HETATM   19  C1  UNL     1      25.316   4.755  49.620  1.00  0.00     0.036 C 
ENDBRANCH   1  17
BRANCH   7  20
HETATM   20  N1  UNL     1      21.761   4.491  52.339  1.00  0.00    -0.401 N 
HETATM   21  H12 UNL     1      21.973   4.391  53.357  1.00  0.00     0.156 HD
HETATM   22  H13 UNL     1      21.561   5.244  51.640  1.00  0.00     0.156 HD
ENDBRANCH   7  20
TORSDOF 2
ENDMDL
MODEL 2
REMARK VINA RESULT:      -7.1      1.522      2.076
REMARK  2 active torsions:
REMARK  status: ('A' for Active; 'I' for Inactive)
REMARK    1  A    between atoms: C3_3  and  C4_4 
REMARK    2  A    between atoms: C10_10  and  N1_11 
ROOT
HETATM    1  C4  UNL     1      24.667   3.056  50.859  1.00  0.00     0.075 C 
HETATM    2  C5  UNL     1      23.905   2.620  49.637  1.00  0.00     0.032 C 
HETATM    3  C6  UNL     1      22.611   1.916  49.903  1.00  0.00     0.043 C 
HETATM    4  C7  UNL     1      22.408   1.828  51.421  1.00  0.00    -0.027 C 
HETATM    5  C8  UNL     1      22.059   2.754  52.421  1.00  0.00     0.011 C 
HETATM    6  C9  UNL     1      22.606   4.154  52.120  1.00  0.00     0.026 C 
HETATM    7  C10 UNL     1      23.919   4.151  51.575  1.00  0.00     0.022 C 
HETATM    8  C11 UNL     1      22.603   0.856  52.598  1.00  0.00     0.089 A 
HETATM    9  C12 UNL     1      23.911   0.248  52.861  1.00  0.00     0.106 A 
HETATM   10  C13 UNL     1      23.417  -0.416  53.963  1.00  0.00     0.173 A 
HETATM   11  N2  UNL     1      22.113  -0.157  54.174  1.00  0.00    -0.182 NA
HETATM   12  N3  UNL     1      21.551   0.662  53.312  1.00  0.00    -0.272 N 
HETATM   13  C14 UNL     1      20.309   1.292  52.945  1.00  0.00     0.180 C 
HETATM   14  N4  UNL     1      25.152   0.579  52.056  1.00  0.00    -0.236 NA
HETATM   15  C15 UNL     1      25.315   1.917  51.598  1.00  0.00     0.122 C 
HETATM   16 CL1  UNL     1      26.992   2.379  52.092  1.00  0.00    -0.066 Cl
ENDROOT
BRANCH   1  17
HETATM   17  C3  UNL     1      25.859   3.812  50.281  1.00  0.00    -0.008 C 
HETATM   18  C2  UNL     1      26.194   4.245  49.097  1.00  0.00    -0.033 C 
HETATM   19  C1  UNL     1      27.475   4.984  48.825  1.00  0.00     0.036 C 
ENDBRANCH   1  17
BRANCH   7  20
HETATM   20  N1  UNL     1      24.334   5.521  51.896  1.00  0.00    -0.401 N 
HETATM   21  H12 UNL     1      23.597   5.638  52.627  1.00  0.00     0.156 HD
HETATM   22  H13 UNL     1      25.114   6.065  51.461  1.00  0.00     0.156 HD
ENDBRANCH   7  20
TORSDOF 2
ENDMDL
MODEL 3
REMARK VINA RESULT:      -6.9      2.190      4.255
REMARK  2 active torsions:
REMARK  status: ('A' for Active; 'I' for Inactive)
REMARK    1  A    between atoms: C3_3  and  C4_4 
REMARK    2  A    between atoms: C10_10  and  N1_11 
ROOT
HETATM    1  C4  UNL     1      24.388   1.465  52.251  1.00  0.00     0.075 C 
HETATM    2  C5  UNL     1      24.705   1.744  50.807  1.00  0.00     0.032 C 
HETATM    3  C6  UNL     1      23.834   2.763  50.142  1.00  0.00     0.043 C 
HETATM    4  C7  UNL     1      22.807   3.267  51.164  1.00  0.00    -0.027 C 
HETATM    5  C8  UNL     1      22.871   4.116  52.284  1.00  0.00     0.011 C 
HETATM    6  C9  UNL     1      24.214   4.001  53.013  1.00  0.00     0.026 C 
HETATM    7  C10 UNL     1      24.709   2.671  53.096  1.00  0.00     0.022 C 
HETATM    8  C11 UNL     1      21.350   3.040  51.606  1.00  0.00     0.089 A 
HETATM    9  C12 UNL     1      20.876   1.703  51.973  1.00  0.00     0.106 A 
HETATM   10  C13 UNL     1      19.620   2.192  52.263  1.00  0.00     0.173 A 
HETATM   11  N2  UNL     1      19.532   3.520  52.069  1.00  0.00    -0.182 NA
HETATM   12  N3  UNL     1      20.631   4.106  51.645  1.00  0.00    -0.272 N 
HETATM   13  C14 UNL     1      21.193   5.367  51.235  1.00  0.00     0.180 C 
HETATM   14  N4  UNL     1      21.782   0.488  52.012  1.00  0.00    -0.236 NA
HETATM   15  C15 UNL     1      23.127   0.669  52.444  1.00  0.00     0.122 C 
HETATM   16 CL1  UNL     1      23.390  -0.607  53.698  1.00  0.00    -0.066 Cl
ENDROOT
BRANCH   1  17
HETATM   17  C3  UNL     1      25.479   0.485  52.669  1.00  0.00    -0.008 C 
HETATM   18  C2  UNL     1      26.563   0.016  52.115  1.00  0.00    -0.033 C 
HETATM   19  C1  UNL     1      27.472  -0.970  52.795  1.00  0.00     0.036 C 
ENDBRANCH   1  17
BRANCH   7  20
HETATM   20  N1  UNL     1      25.631   2.810  54.228  1.00  0.00    -0.401 N 
HETATM   21  H12 UNL     1      26.410   2.320  53.734  1.00  0.00     0.156 HD
HETATM   22  H13 UNL     1      25.438   3.266  55.150  1.00  0.00     0.156 HD
ENDBRANCH   7  20
TORSDOF 2
ENDMDL
MODEL 4
REMARK VINA RESULT:      -6.8      2.253      5.224
REMARK  2 active torsions:
REMARK  status: ('A' for Active; 'I' for Inactive)
REMARK    1  A    between atoms: C3_3  and  C4_4 
REMARK    2  A    between atoms: C10_10  and  N1_11 
ROOT
HETATM    1  C4  UNL     1      21.997   1.368  51.738  1.00  0.00     0.075 C 
HETATM    2  C5  UNL     1      21.567   2.700  52.290  1.00  0.00     0.032 C 
HETATM    3  C6  UNL     1      22.530   3.826  52.076  1.00  0.00     0.043 C 
HETATM    4  C7  UNL     1      23.749   3.286  51.316  1.00  0.00    -0.027 C 
HETATM    5  C8  UNL     1      23.981   2.892  49.986  1.00  0.00     0.011 C 
HETATM    6  C9  UNL     1      22.738   2.260  49.351  1.00  0.00     0.026 C 
HETATM    7  C10 UNL     1      22.013   1.411  50.232  1.00  0.00     0.022 C 
HETATM    8  C11 UNL     1      25.178   2.771  51.562  1.00  0.00     0.089 A 
HETATM    9  C12 UNL     1      25.431   1.673  52.499  1.00  0.00     0.106 A 
HETATM   10  C13 UNL     1      26.782   1.709  52.228  1.00  0.00     0.173 A 
HETATM   11  N2  UNL     1      27.096   2.653  51.323  1.00  0.00    -0.182 NA
HETATM   12  N3  UNL     1      26.086   3.362  50.867  1.00  0.00    -0.272 N 
HETATM   13  C14 UNL     1      25.728   4.450  49.994  1.00  0.00     0.180 C 
HETATM   14  N4  UNL     1      24.322   0.936  53.224  1.00  0.00    -0.236 NA
HETATM   15  C15 UNL     1      23.098   0.718  52.530  1.00  0.00     0.122 C 
HETATM   16 CL1  UNL     1      22.750  -1.043  52.738  1.00  0.00    -0.066 Cl
ENDROOT
BRANCH   1  17
HETATM   17  C3  UNL     1      20.797   0.468  52.016  1.00  0.00    -0.008 C 
HETATM   18  C2  UNL     1      19.555   0.663  52.362  1.00  0.00    -0.033 C 
HETATM   19  C1  UNL     1      18.574  -0.458  52.569  1.00  0.00     0.036 C 
ENDBRANCH   1  17
BRANCH   7  20
HETATM   20  N1  UNL     1      21.276   0.598  49.258  1.00  0.00    -0.401 N 
HETATM   21  H12 UNL     1      20.374   0.684  49.776  1.00  0.00     0.156 HD
HETATM   22  H13 UNL     1      21.654   0.152  48.390  1.00  0.00     0.156 HD
ENDBRANCH   7  20
TORSDOF 2
ENDMDL
MODEL 5
REMARK VINA RESULT:      -6.8      7.166     10.000
REMARK  2 active torsions:
REMARK  status: ('A' for Active; 'I' for Inactive)
REMARK    1  A    between atoms: C3_3  and  C4_4 
REMARK    2  A    between atoms: C10_10  and  N1_11 
ROOT
HETATM    1  C4  UNL     1      30.261   7.798  48.125  1.00  0.00     0.075 C 
HETATM    2  C5  UNL     1      29.846   8.164  46.726  1.00  0.00     0.032 C 
HETATM    3  C6  UNL     1      28.384   8.032  46.434  1.00  0.00     0.043 C 
HETATM    4  C7  UNL     1      27.677   7.536  47.702  1.00  0.00    -0.027 C 
HETATM    5  C8  UNL     1      27.334   8.129  48.931  1.00  0.00     0.011 C 
HETATM    6  C9  UNL     1      28.364   9.175  49.370  1.00  0.00     0.026 C 
HETATM    7  C10 UNL     1      29.710   8.797  49.109  1.00  0.00     0.022 C 
HETATM    8  C11 UNL     1      27.155   6.242  48.350  1.00  0.00     0.089 A 
HETATM    9  C12 UNL     1      28.038   5.087  48.539  1.00  0.00     0.106 A 
HETATM   10  C13 UNL     1      27.026   4.369  49.139  1.00  0.00     0.173 A 
HETATM   11  N2  UNL     1      25.880   5.071  49.218  1.00  0.00    -0.182 NA
HETATM   12  N3  UNL     1      25.923   6.287  48.719  1.00  0.00    -0.272 N 
HETATM   13  C14 UNL     1      25.139   7.467  48.459  1.00  0.00     0.180 C 
HETATM   14  N4  UNL     1      29.511   5.108  48.183  1.00  0.00    -0.236 NA
HETATM   15  C15 UNL     1      30.233   6.318  48.390  1.00  0.00     0.122 C 
HETATM   16 CL1  UNL     1      31.709   5.829  49.312  1.00  0.00    -0.066 Cl
ENDROOT
BRANCH   1  17
HETATM   17  C3  UNL     1      31.752   8.122  48.146  1.00  0.00    -0.008 C 
HETATM   18  C2  UNL     1      32.581   8.716  47.333  1.00  0.00    -0.033 C 
HETATM   19  C1  UNL     1      34.043   8.893  47.636  1.00  0.00     0.036 C 
ENDBRANCH   1  17
BRANCH   7  20
HETATM   20  N1  UNL     1      30.410   9.667  50.061  1.00  0.00    -0.401 N 
HETATM   21  H12 UNL     1      29.664   9.577  50.786  1.00  0.00     0.156 HD
HETATM   22  H13 UNL     1      31.332  10.143  49.926  1.00  0.00     0.156 HD
ENDBRANCH   7  20
TORSDOF 2
ENDMDL
MODEL 6
REMARK VINA RESULT:      -6.6      2.909      4.154
REMARK  2 active torsions:
REMARK  status: ('A' for Active; 'I' for Inactive)
REMARK    1  A    between atoms: C3_3  and  C4_4 
REMARK    2  A    between atoms: C10_10  and  N1_11 
ROOT
HETATM    1  C4  UNL     1      23.996   4.472  49.710  1.00  0.00     0.075 C 
HETATM    2  C5  UNL     1      23.123   3.445  49.041  1.00  0.00     0.032 C 
HETATM    3  C6  UNL     1      22.947   2.162  49.791  1.00  0.00     0.043 C 
HETATM    4  C7  UNL     1      23.743   2.251  51.100  1.00  0.00    -0.027 C 
HETATM    5  C8  UNL     1      23.562   2.937  52.315  1.00  0.00     0.011 C 
HETATM    6  C9  UNL     1      22.878   4.293  52.111  1.00  0.00     0.026 C 
HETATM    7  C10 UNL     1      23.325   4.991  50.955  1.00  0.00     0.022 C 
HETATM    8  C11 UNL     1      25.097   1.840  51.706  1.00  0.00     0.089 A 
HETATM    9  C12 UNL     1      26.356   2.218  51.058  1.00  0.00     0.106 A 
HETATM   10  C13 UNL     1      27.089   1.609  52.054  1.00  0.00     0.173 A 
HETATM   11  N2  UNL     1      26.307   1.053  52.997  1.00  0.00    -0.182 NA
HETATM   12  N3  UNL     1      25.011   1.181  52.808  1.00  0.00    -0.272 N 
HETATM   13  C14 UNL     1      23.718   0.839  53.342  1.00  0.00     0.180 C 
HETATM   14  N4  UNL     1      26.416   3.082  49.814  1.00  0.00    -0.236 NA
HETATM   15  C15 UNL     1      25.459   4.127  49.677  1.00  0.00     0.122 C 
HETATM   16 CL1  UNL     1      26.429   5.598  49.269  1.00  0.00    -0.066 Cl
ENDROOT
BRANCH   1  17
HETATM   17  C3  UNL     1      23.905   5.674  48.776  1.00  0.00    -0.008 C 
HETATM   18  C2  UNL     1      23.221   5.963  47.704  1.00  0.00    -0.033 C 
HETATM   19  C1  UNL     1      23.349   7.273  46.977  1.00  0.00     0.036 C 
ENDBRANCH   1  17
BRANCH   7  20
HETATM   20  N1  UNL     1      22.934   6.359  51.315  1.00  0.00    -0.401 N 
HETATM   21  H12 UNL     1      22.283   6.452  50.503  1.00  0.00     0.156 HD
HETATM   22  H13 UNL     1      23.272   6.921  52.130  1.00  0.00     0.156 HD
ENDBRANCH   7  20
TORSDOF 2
ENDMDL
MODEL 7
REMARK VINA RESULT:      -6.6     10.109     11.890
REMARK  2 active torsions:
REMARK  status: ('A' for Active; 'I' for Inactive)
REMARK    1  A    between atoms: C3_3  and  C4_4 
REMARK    2  A    between atoms: C10_10  and  N1_11 
ROOT
HETATM    1  C4  UNL     1      30.671   6.519  47.806  1.00  0.00     0.075 C 
HETATM    2  C5  UNL     1      31.306   7.177  46.611  1.00  0.00     0.032 C 
HETATM    3  C6  UNL     1      31.275   8.673  46.609  1.00  0.00     0.043 C 
HETATM    4  C7  UNL     1      30.570   9.147  47.887  1.00  0.00    -0.027 C 
HETATM    5  C8  UNL     1      30.931   9.200  49.246  1.00  0.00     0.011 C 
HETATM    6  C9  UNL     1      31.845   8.035  49.641  1.00  0.00     0.026 C 
HETATM    7  C10 UNL     1      31.483   6.796  49.045  1.00  0.00     0.022 C 
HETATM    8  C11 UNL     1      29.193   9.617  48.387  1.00  0.00     0.089 A 
HETATM    9  C12 UNL     1      27.998   8.794  48.181  1.00  0.00     0.106 A 
HETATM   10  C13 UNL     1      27.210   9.714  48.839  1.00  0.00     0.173 A 
HETATM   11  N2  UNL     1      27.918  10.772  49.277  1.00  0.00    -0.182 NA
HETATM   12  N3  UNL     1      29.205  10.746  49.005  1.00  0.00    -0.272 N 
HETATM   13  C14 UNL     1      30.435  11.485  49.127  1.00  0.00     0.180 C 
HETATM   14  N4  UNL     1      28.042   7.422  47.537  1.00  0.00    -0.236 NA
HETATM   15  C15 UNL     1      29.169   6.594  47.803  1.00  0.00     0.122 C 
HETATM   16 CL1  UNL     1      28.472   5.001  48.299  1.00  0.00    -0.066 Cl
ENDROOT
BRANCH   1  17
HETATM   17  C3  UNL     1      30.941   5.035  47.576  1.00  0.00    -0.008 C 
HETATM   18  C2  UNL     1      31.784   4.349  46.855  1.00  0.00    -0.033 C 
HETATM   19  C1  UNL     1      31.811   2.846  46.833  1.00  0.00     0.036 C 
ENDBRANCH   1  17
BRANCH   7  20
HETATM   20  N1  UNL     1      32.137   5.865  49.971  1.00  0.00    -0.401 N 
HETATM   21  H12 UNL     1      31.843   5.022  49.429  1.00  0.00     0.156 HD
HETATM   22  H13 UNL     1      32.677   6.105  50.834  1.00  0.00     0.156 HD
ENDBRANCH   7  20
TORSDOF 2
ENDMDL
MODEL 8
REMARK VINA RESULT:      -6.6      2.717      4.823
REMARK  2 active torsions:
REMARK  status: ('A' for Active; 'I' for Inactive)
REMARK    1  A    between atoms: C3_3  and  C4_4 
REMARK    2  A    between atoms: C10_10  and  N1_11 
ROOT
HETATM    1  C4  UNL     1      23.805   2.458  51.909  1.00  0.00     0.075 C 
HETATM    2  C5  UNL     1      24.054   3.303  53.128  1.00  0.00     0.032 C 
HETATM    3  C6  UNL     1      25.338   3.033  53.847  1.00  0.00     0.043 C 
HETATM    4  C7  UNL     1      26.084   1.914  53.107  1.00  0.00    -0.027 C 
HETATM    5  C8  UNL     1      26.797   1.843  51.896  1.00  0.00     0.011 C 
HETATM    6  C9  UNL     1      26.209   2.775  50.831  1.00  0.00     0.026 C 
HETATM    7  C10 UNL     1      24.788   2.811  50.823  1.00  0.00     0.022 C 
HETATM    8  C11 UNL     1      26.314   0.393  53.160  1.00  0.00     0.089 A 
HETATM    9  C12 UNL     1      25.182  -0.538  53.172  1.00  0.00     0.106 A 
HETATM   10  C13 UNL     1      26.032  -1.622  53.191  1.00  0.00     0.173 A 
HETATM   11  N2  UNL     1      27.327  -1.257  53.184  1.00  0.00    -0.182 NA
HETATM   12  N3  UNL     1      27.551   0.039  53.163  1.00  0.00    -0.272 N 
HETATM   13  C14 UNL     1      28.584   1.042  53.177  1.00  0.00     0.180 C 
HETATM   14  N4  UNL     1      23.739  -0.084  53.065  1.00  0.00    -0.236 NA
HETATM   15  C15 UNL     1      23.449   1.033  52.230  1.00  0.00     0.122 C 
HETATM   16 CL1  UNL     1      22.083   0.488  51.179  1.00  0.00    -0.066 Cl
ENDROOT
BRANCH   1  17
HETATM   17  C3  UNL     1      22.501   3.020  51.351  1.00  0.00    -0.008 C 
HETATM   18  C2  UNL     1      21.705   4.002  51.671  1.00  0.00    -0.033 C 
HETATM   19  C1  UNL     1      20.451   4.325  50.907  1.00  0.00     0.036 C 
ENDBRANCH   1  17
BRANCH   7  20
HETATM   20  N1  UNL     1      24.552   3.303  49.461  1.00  0.00    -0.401 N 
HETATM   21  H12 UNL     1      25.467   3.805  49.417  1.00  0.00     0.156 HD
HETATM   22  H13 UNL     1      23.711   3.131  48.862  1.00  0.00     0.156 HD
ENDBRANCH   7  20
TORSDOF 2
ENDMDL
MODEL 9
REMARK VINA RESULT:      -6.4      2.481      4.061
REMARK  2 active torsions:
REMARK  status: ('A' for Active; 'I' for Inactive)
REMARK    1  A    between atoms: C3_3  and  C4_4 
REMARK    2  A    between atoms: C10_10  and  N1_11 
ROOT
HETATM    1  C4  UNL     1      24.121   3.281  50.758  1.00  0.00     0.075 C 
HETATM    2  C5  UNL     1      23.969   4.274  51.877  1.00  0.00     0.032 C 
HETATM    3  C6  UNL     1      24.356   3.778  53.235  1.00  0.00     0.043 C 
HETATM    4  C7  UNL     1      24.823   2.322  53.106  1.00  0.00    -0.027 C 
HETATM    5  C8  UNL     1      25.980   1.703  52.597  1.00  0.00     0.011 C 
HETATM    6  C9  UNL     1      26.563   2.471  51.407  1.00  0.00     0.026 C 
HETATM    7  C10 UNL     1      25.579   2.985  50.519  1.00  0.00     0.022 C 
HETATM    8  C11 UNL     1      24.307   0.882  53.274  1.00  0.00     0.089 A 
HETATM    9  C12 UNL     1      23.103   0.428  52.573  1.00  0.00     0.106 A 
HETATM   10  C13 UNL     1      23.229  -0.837  53.104  1.00  0.00     0.173 A 
HETATM   11  N2  UNL     1      24.305  -0.949  53.905  1.00  0.00    -0.182 NA
HETATM   12  N3  UNL     1      25.028   0.141  54.041  1.00  0.00    -0.272 N 
HETATM   13  C14 UNL     1      26.178   0.700  54.703  1.00  0.00     0.180 C 
HETATM   14  N4  UNL     1      22.337   1.302  51.598  1.00  0.00    -0.236 NA
HETATM   15  C15 UNL     1      23.079   2.196  50.775  1.00  0.00     0.122 C 
HETATM   16 CL1  UNL     1      22.474   1.897  49.098  1.00  0.00    -0.066 Cl
ENDROOT
BRANCH   1  17
HETATM   17  C3  UNL     1      23.754   4.089  49.517  1.00  0.00    -0.008 C 
HETATM   18  C2  UNL     1      23.573   5.354  49.257  1.00  0.00    -0.033 C 
HETATM   19  C1  UNL     1      23.206   5.868  47.892  1.00  0.00     0.036 C 
ENDBRANCH   1  17
BRANCH   7  20
HETATM   20  N1  UNL     1      26.390   3.160  49.309  1.00  0.00    -0.401 N 
HETATM   21  H12 UNL     1      27.231   3.473  49.844  1.00  0.00     0.156 HD
HETATM   22  H13 UNL     1      26.097   2.990  48.319  1.00  0.00     0.156 HD
ENDBRANCH   7  20
TORSDOF 2
ENDMDL
