MODEL 1
REMARK VINA RESULT:      -8.7      0.000      0.000
REMARK  8 active torsions:
REMARK  status: ('A' for Active; 'I' for Inactive)
REMARK    1  A    between atoms: O1_2  and  C2_3 
REMARK    2  A    between atoms: C8_11  and  N3_12 
REMARK    3  A    between atoms: N3_12  and  C9_13 
REMARK    4  A    between atoms: C16_21  and  O2_22 
REMARK    5  A    between atoms: O2_22  and  C17_23 
REMARK    6  A    between atoms: C17_23  and  C18_24 
REMARK    7  A    between atoms: C18_24  and  C19_25 
REMARK    8  A    between atoms: C19_25  and  N4_26 
ROOT
HETATM    1  C2  UNL     1      22.978   2.733  49.673  1.00  0.00     0.103 A 
HETATM    2  C3  UNL     1      21.944   1.968  50.160  1.00  0.00     0.072 A 
HETATM    3  C4  UNL     1      22.211   1.238  51.290  1.00  0.00     0.071 A 
HETATM    4  N1  UNL     1      21.190   0.477  51.777  1.00  0.00    -0.259 NA
HETATM    5  C5  UNL     1      21.351  -0.276  52.885  1.00  0.00     0.142 A 
HETATM    6  C6  UNL     1      22.584  -0.233  53.483  1.00  0.00     0.089 A 
HETATM    7  C7  UNL     1      22.727  -1.043  54.663  1.00  0.00     0.103 C 
HETATM    8  N2  UNL     1      22.861  -1.694  55.620  1.00  0.00    -0.191 NA
HETATM    9  C8  UNL     1      23.668   0.513  53.050  1.00  0.00     0.067 A 
HETATM   10  C14 UNL     1      23.435   1.261  51.912  1.00  0.00     0.024 A 
HETATM   11  C15 UNL     1      24.438   2.048  51.380  1.00  0.00     0.055 A 
HETATM   12  C16 UNL     1      24.231   2.807  50.242  1.00  0.00     0.103 A 
ENDROOT
BRANCH   9  13
HETATM   13  N3  UNL     1      24.929   0.525  53.703  1.00  0.00    -0.357 N 
HETATM   14  H6  UNL     1      24.774   1.253  54.447  1.00  0.00     0.166 HD
BRANCH  13  15
HETATM   15  C9  UNL     1      26.096  -0.265  53.401  1.00  0.00     0.014 A 
HETATM   16  C10 UNL     1      26.335  -1.387  52.736  1.00  0.00     0.026 A 
HETATM   17  C11 UNL     1      27.759  -1.677  52.790  1.00  0.00     0.021 A 
HETATM   18  C12 UNL     1      28.360  -0.726  53.488  1.00  0.00     0.017 A 
HETATM   19 CL1  UNL     1      30.094  -0.761  53.754  1.00  0.00    -0.089 Cl
HETATM   20  C13 UNL     1      27.364   0.293  53.963  1.00  0.00     0.108 A 
ENDBRANCH  13  15
ENDBRANCH   9  13
BRANCH  12  21
HETATM   21  O2  UNL     1      25.133   3.623  49.617  1.00  0.00    -0.348 OA
BRANCH  21  22
HETATM   22  C17 UNL     1      26.506   3.396  49.457  1.00  0.00     0.177 C 
BRANCH  22  23
HETATM   23  C18 UNL     1      27.239   4.653  48.993  1.00  0.00     0.046 C 
BRANCH  23  24
HETATM   24  C19 UNL     1      26.229   5.757  48.916  1.00  0.00     0.119 C 
BRANCH  24  25
HETATM   25  N4  UNL     1      26.700   7.074  48.997  1.00  0.00    -0.408 N 
HETATM   26  C20 UNL     1      27.305   7.657  47.859  1.00  0.00     0.143 C 
HETATM   27  C21 UNL     1      28.251   8.755  48.205  1.00  0.00     0.187 C 
HETATM   28  O3  UNL     1      28.403   8.857  49.569  1.00  0.00    -0.388 OA
HETATM   29  C22 UNL     1      27.155   9.130  50.126  1.00  0.00     0.187 C 
HETATM   30  C23 UNL     1      26.242   7.920  50.028  1.00  0.00     0.143 C 
ENDBRANCH  24  25
ENDBRANCH  23  24
ENDBRANCH  22  23
ENDBRANCH  21  22
ENDBRANCH  12  21
BRANCH   1  31
HETATM   31  O1  UNL     1      22.676   3.472  48.512  1.00  0.00    -0.353 OA
HETATM   32  C1  UNL     1      22.095   2.847  47.388  1.00  0.00     0.210 C 
ENDBRANCH   1  31
TORSDOF 8
ENDMDL
MODEL 2
REMARK VINA RESULT:      -8.5      3.224      5.402
REMARK  8 active torsions:
REMARK  status: ('A' for Active; 'I' for Inactive)
REMARK    1  A    between atoms: O1_2  and  C2_3 
REMARK    2  A    between atoms: C8_11  and  N3_12 
REMARK    3  A    between atoms: N3_12  and  C9_13 
REMARK    4  A    between atoms: C16_21  and  O2_22 
REMARK    5  A    between atoms: O2_22  and  C17_23 
REMARK    6  A    between atoms: C17_23  and  C18_24 
REMARK    7  A    between atoms: C18_24  and  C19_25 
REMARK    8  A    between atoms: C19_25  and  N4_26 
ROOT
HETATM    1  C2  UNL     1      27.425   1.540  53.029  1.00  0.00     0.103 A 
HETATM    2  C3  UNL     1      27.129   0.713  54.088  1.00  0.00     0.072 A 
HETATM    3  C4  UNL     1      25.851   0.220  54.133  1.00  0.00     0.071 A 
HETATM    4  N1  UNL     1      25.552  -0.600  55.180  1.00  0.00    -0.259 NA
HETATM    5  C5  UNL     1      24.322  -1.138  55.313  1.00  0.00     0.142 A 
HETATM    6  C6  UNL     1      23.402  -0.816  54.348  1.00  0.00     0.089 A 
HETATM    7  C7  UNL     1      22.101  -1.405  54.514  1.00  0.00     0.103 C 
HETATM    8  N2  UNL     1      21.040  -1.873  54.632  1.00  0.00    -0.191 NA
HETATM    9  C8  UNL     1      23.629   0.006  53.257  1.00  0.00     0.067 A 
HETATM   10  C14 UNL     1      24.909   0.523  53.180  1.00  0.00     0.024 A 
HETATM   11  C15 UNL     1      25.259   1.358  52.138  1.00  0.00     0.055 A 
HETATM   12  C16 UNL     1      26.533   1.888  52.037  1.00  0.00     0.103 A 
ENDROOT
BRANCH   9  13
HETATM   13  N3  UNL     1      22.644   0.312  52.281  1.00  0.00    -0.357 N 
HETATM   14  H6  UNL     1      22.730  -0.509  51.630  1.00  0.00     0.166 HD
BRANCH  13  15
HETATM   15  C9  UNL     1      21.770   1.458  52.227  1.00  0.00     0.014 A 
HETATM   16  C10 UNL     1      21.915   2.767  52.370  1.00  0.00     0.026 A 
HETATM   17  C11 UNL     1      20.622   3.410  52.195  1.00  0.00     0.021 A 
HETATM   18  C12 UNL     1      19.715   2.478  51.948  1.00  0.00     0.017 A 
HETATM   19 CL1  UNL     1      18.033   2.904  51.684  1.00  0.00    -0.089 Cl
HETATM   20  C13 UNL     1      20.344   1.115  51.940  1.00  0.00     0.108 A 
ENDBRANCH  13  15
ENDBRANCH   9  13
BRANCH  12  21
HETATM   21  O2  UNL     1      27.008   2.721  51.062  1.00  0.00    -0.348 OA
BRANCH  21  22
HETATM   22  C17 UNL     1      26.263   3.615  50.281  1.00  0.00     0.177 C 
BRANCH  22  23
HETATM   23  C18 UNL     1      27.073   4.149  49.102  1.00  0.00     0.046 C 
BRANCH  23  24
HETATM   24  C19 UNL     1      26.644   5.565  48.868  1.00  0.00     0.119 C 
BRANCH  24  25
HETATM   25  N4  UNL     1      25.402   5.960  49.382  1.00  0.00    -0.408 N 
HETATM   26  C20 UNL     1      25.359   6.965  50.377  1.00  0.00     0.143 C 
HETATM   27  C21 UNL     1      24.140   6.882  51.230  1.00  0.00     0.187 C 
HETATM   28  O3  UNL     1      23.402   5.763  50.920  1.00  0.00    -0.388 OA
HETATM   29  C22 UNL     1      23.023   5.849  49.581  1.00  0.00     0.187 C 
HETATM   30  C23 UNL     1      24.222   5.665  48.667  1.00  0.00     0.143 C 
ENDBRANCH  24  25
ENDBRANCH  23  24
ENDBRANCH  22  23
ENDBRANCH  21  22
ENDBRANCH  12  21
BRANCH   1  31
HETATM   31  O1  UNL     1      28.745   2.032  53.009  1.00  0.00    -0.353 OA
HETATM   32  C1  UNL     1      29.506   2.110  54.195  1.00  0.00     0.210 C 
ENDBRANCH   1  31
TORSDOF 8
ENDMDL
MODEL 3
REMARK VINA RESULT:      -8.5      3.040      5.064
REMARK  8 active torsions:
REMARK  status: ('A' for Active; 'I' for Inactive)
REMARK    1  A    between atoms: O1_2  and  C2_3 
REMARK    2  A    between atoms: C8_11  and  N3_12 
REMARK    3  A    between atoms: N3_12  and  C9_13 
REMARK    4  A    between atoms: C16_21  and  O2_22 
REMARK    5  A    between atoms: O2_22  and  C17_23 
REMARK    6  A    between atoms: C17_23  and  C18_24 
REMARK    7  A    between atoms: C18_24  and  C19_25 
REMARK    8  A    between atoms: C19_25  and  N4_26 
ROOT
HETATM    1  C2  UNL     1      27.433   1.564  53.032  1.00  0.00     0.103 A 
HETATM    2  C3  UNL     1      27.131   0.737  54.089  1.00  0.00     0.072 A 
HETATM    3  C4  UNL     1      25.855   0.237  54.121  1.00  0.00     0.071 A 
HETATM    4  N1  UNL     1      25.550  -0.584  55.166  1.00  0.00    -0.259 NA
HETATM    5  C5  UNL     1      24.321  -1.129  55.287  1.00  0.00     0.142 A 
HETATM    6  C6  UNL     1      23.410  -0.814  54.312  1.00  0.00     0.089 A 
HETATM    7  C7  UNL     1      22.110  -1.410  54.465  1.00  0.00     0.103 C 
HETATM    8  N2  UNL     1      21.052  -1.884  54.572  1.00  0.00    -0.191 NA
HETATM    9  C8  UNL     1      23.644   0.009  53.222  1.00  0.00     0.067 A 
HETATM   10  C14 UNL     1      24.921   0.533  53.158  1.00  0.00     0.024 A 
HETATM   11  C15 UNL     1      25.278   1.369  52.118  1.00  0.00     0.055 A 
HETATM   12  C16 UNL     1      26.549   1.907  52.030  1.00  0.00     0.103 A 
ENDROOT
BRANCH   9  13
HETATM   13  N3  UNL     1      22.667   0.308  52.236  1.00  0.00    -0.357 N 
HETATM   14  H6  UNL     1      22.805  -0.482  51.556  1.00  0.00     0.166 HD
BRANCH  13  15
HETATM   15  C9  UNL     1      21.743   1.415  52.204  1.00  0.00     0.014 A 
HETATM   16  C10 UNL     1      21.827   2.724  52.388  1.00  0.00     0.026 A 
HETATM   17  C11 UNL     1      20.508   3.313  52.215  1.00  0.00     0.021 A 
HETATM   18  C12 UNL     1      19.647   2.350  51.930  1.00  0.00     0.017 A 
HETATM   19 CL1  UNL     1      17.951   2.707  51.657  1.00  0.00    -0.089 Cl
HETATM   20  C13 UNL     1      20.337   1.016  51.889  1.00  0.00     0.108 A 
ENDBRANCH  13  15
ENDBRANCH   9  13
BRANCH  12  21
HETATM   21  O2  UNL     1      27.029   2.741  51.060  1.00  0.00    -0.348 OA
BRANCH  21  22
HETATM   22  C17 UNL     1      26.421   3.047  49.835  1.00  0.00     0.177 C 
BRANCH  22  23
HETATM   23  C18 UNL     1      26.903   4.386  49.280  1.00  0.00     0.046 C 
BRANCH  23  24
HETATM   24  C19 UNL     1      25.847   5.403  49.585  1.00  0.00     0.119 C 
BRANCH  24  25
HETATM   25  N4  UNL     1      26.189   6.755  49.450  1.00  0.00    -0.408 N 
HETATM   26  C20 UNL     1      27.268   7.108  48.606  1.00  0.00     0.143 C 
HETATM   27  C21 UNL     1      27.894   8.407  48.980  1.00  0.00     0.187 C 
HETATM   28  O3  UNL     1      27.346   8.896  50.144  1.00  0.00    -0.388 OA
HETATM   29  C22 UNL     1      25.981   9.086  49.935  1.00  0.00     0.187 C 
HETATM   30  C23 UNL     1      25.261   7.752  49.816  1.00  0.00     0.143 C 
ENDBRANCH  24  25
ENDBRANCH  23  24
ENDBRANCH  22  23
ENDBRANCH  21  22
ENDBRANCH  12  21
BRANCH   1  31
HETATM   31  O1  UNL     1      28.750   2.064  53.025  1.00  0.00    -0.353 OA
HETATM   32  C1  UNL     1      29.524   2.080  54.205  1.00  0.00     0.210 C 
ENDBRANCH   1  31
TORSDOF 8
ENDMDL
MODEL 4
REMARK VINA RESULT:      -8.4      1.883      2.988
REMARK  8 active torsions:
REMARK  status: ('A' for Active; 'I' for Inactive)
REMARK    1  A    between atoms: O1_2  and  C2_3 
REMARK    2  A    between atoms: C8_11  and  N3_12 
REMARK    3  A    between atoms: N3_12  and  C9_13 
REMARK    4  A    between atoms: C16_21  and  O2_22 
REMARK    5  A    between atoms: O2_22  and  C17_23 
REMARK    6  A    between atoms: C17_23  and  C18_24 
REMARK    7  A    between atoms: C18_24  and  C19_25 
REMARK    8  A    between atoms: C19_25  and  N4_26 
ROOT
HETATM    1  C2  UNL     1      22.940   2.723  49.241  1.00  0.00     0.103 A 
HETATM    2  C3  UNL     1      21.933   1.911  49.709  1.00  0.00     0.072 A 
HETATM    3  C4  UNL     1      22.183   1.251  50.884  1.00  0.00     0.071 A 
HETATM    4  N1  UNL     1      21.188   0.445  51.352  1.00  0.00    -0.259 NA
HETATM    5  C5  UNL     1      21.336  -0.247  52.500  1.00  0.00     0.142 A 
HETATM    6  C6  UNL     1      22.529  -0.096  53.160  1.00  0.00     0.089 A 
HETATM    7  C7  UNL     1      22.658  -0.844  54.382  1.00  0.00     0.103 C 
HETATM    8  N2  UNL     1      22.781  -1.442  55.374  1.00  0.00    -0.191 NA
HETATM    9  C8  UNL     1      23.584   0.702  52.750  1.00  0.00     0.067 A 
HETATM   10  C14 UNL     1      23.367   1.383  51.568  1.00  0.00     0.024 A 
HETATM   11  C15 UNL     1      24.345   2.211  51.053  1.00  0.00     0.055 A 
HETATM   12  C16 UNL     1      24.153   2.905  49.872  1.00  0.00     0.103 A 
ENDROOT
BRANCH   9  13
HETATM   13  N3  UNL     1      24.803   0.827  53.467  1.00  0.00    -0.357 N 
HETATM   14  H6  UNL     1      24.580   1.614  54.127  1.00  0.00     0.166 HD
BRANCH  13  15
HETATM   15  C9  UNL     1      26.013   0.059  53.307  1.00  0.00     0.014 A 
HETATM   16  C10 UNL     1      26.309  -1.173  52.920  1.00  0.00     0.026 A 
HETATM   17  C11 UNL     1      27.751  -1.354  52.973  1.00  0.00     0.021 A 
HETATM   18  C12 UNL     1      28.306  -0.228  53.394  1.00  0.00     0.017 A 
HETATM   19 CL1  UNL     1      30.045  -0.091  53.577  1.00  0.00    -0.089 Cl
HETATM   20  C13 UNL     1      27.256   0.813  53.658  1.00  0.00     0.108 A 
ENDBRANCH  13  15
ENDBRANCH   9  13
BRANCH  12  21
HETATM   21  O2  UNL     1      25.033   3.752  49.258  1.00  0.00    -0.348 OA
BRANCH  21  22
HETATM   22  C17 UNL     1      25.844   4.715  49.872  1.00  0.00     0.177 C 
BRANCH  22  23
HETATM   23  C18 UNL     1      25.289   6.126  49.688  1.00  0.00     0.046 C 
BRANCH  23  24
HETATM   24  C19 UNL     1      24.544   6.481  50.938  1.00  0.00     0.119 C 
BRANCH  24  25
HETATM   25  N4  UNL     1      23.145   6.427  50.897  1.00  0.00    -0.408 N 
HETATM   26  C20 UNL     1      22.469   5.503  51.728  1.00  0.00     0.143 C 
HETATM   27  C21 UNL     1      21.127   5.125  51.202  1.00  0.00     0.187 C 
HETATM   28  O3  UNL     1      20.917   5.678  49.959  1.00  0.00    -0.388 OA
HETATM   29  C22 UNL     1      20.991   7.064  50.082  1.00  0.00     0.187 C 
HETATM   30  C23 UNL     1      22.417   7.508  50.356  1.00  0.00     0.143 C 
ENDBRANCH  24  25
ENDBRANCH  23  24
ENDBRANCH  22  23
ENDBRANCH  21  22
ENDBRANCH  12  21
BRANCH   1  31
HETATM   31  O1  UNL     1      22.656   3.389  48.033  1.00  0.00    -0.353 OA
HETATM   32  C1  UNL     1      21.423   3.195  47.373  1.00  0.00     0.210 C 
ENDBRANCH   1  31
TORSDOF 8
ENDMDL
MODEL 5
REMARK VINA RESULT:      -8.0      2.830      5.188
REMARK  8 active torsions:
REMARK  status: ('A' for Active; 'I' for Inactive)
REMARK    1  A    between atoms: O1_2  and  C2_3 
REMARK    2  A    between atoms: C8_11  and  N3_12 
REMARK    3  A    between atoms: N3_12  and  C9_13 
REMARK    4  A    between atoms: C16_21  and  O2_22 
REMARK    5  A    between atoms: O2_22  and  C17_23 
REMARK    6  A    between atoms: C17_23  and  C18_24 
REMARK    7  A    between atoms: C18_24  and  C19_25 
REMARK    8  A    between atoms: C19_25  and  N4_26 
ROOT
HETATM    1  C2  UNL     1      26.279   0.192  53.539  1.00  0.00     0.103 A 
HETATM    2  C3  UNL     1      25.484  -0.506  54.419  1.00  0.00     0.072 A 
HETATM    3  C4  UNL     1      24.142  -0.522  54.141  1.00  0.00     0.071 A 
HETATM    4  N1  UNL     1      23.349  -1.211  55.009  1.00  0.00    -0.259 NA
HETATM    5  C5  UNL     1      22.015  -1.288  54.823  1.00  0.00     0.142 A 
HETATM    6  C6  UNL     1      21.510  -0.641  53.724  1.00  0.00     0.089 A 
HETATM    7  C7  UNL     1      20.085  -0.741  53.549  1.00  0.00     0.103 C 
HETATM    8  N2  UNL     1      18.934  -0.811  53.391  1.00  0.00    -0.191 NA
HETATM    9  C8  UNL     1      22.248   0.078  52.798  1.00  0.00     0.067 A 
HETATM   10  C14 UNL     1      23.606   0.116  53.048  1.00  0.00     0.024 A 
HETATM   11  C15 UNL     1      24.450   0.802  52.197  1.00  0.00     0.055 A 
HETATM   12  C16 UNL     1      25.814   0.856  52.424  1.00  0.00     0.103 A 
ENDROOT
BRANCH   9  13
HETATM   13  N3  UNL     1      21.680   0.734  51.675  1.00  0.00    -0.357 N 
HETATM   14  H6  UNL     1      21.832   0.023  50.915  1.00  0.00     0.166 HD
BRANCH  13  15
HETATM   15  C9  UNL     1      21.063   2.036  51.622  1.00  0.00     0.014 A 
HETATM   16  C10 UNL     1      19.826   2.503  51.705  1.00  0.00     0.026 A 
HETATM   17  C11 UNL     1      19.854   3.951  51.574  1.00  0.00     0.021 A 
HETATM   18  C12 UNL     1      21.109   4.338  51.413  1.00  0.00     0.017 A 
HETATM   19 CL1  UNL     1      21.513   6.036  51.223  1.00  0.00    -0.089 Cl
HETATM   20  C13 UNL     1      22.035   3.156  51.424  1.00  0.00     0.108 A 
ENDBRANCH  13  15
ENDBRANCH   9  13
BRANCH  12  21
HETATM   21  O2  UNL     1      26.754   1.494  51.664  1.00  0.00    -0.348 OA
BRANCH  21  22
HETATM   22  C17 UNL     1      26.723   2.825  51.226  1.00  0.00     0.177 C 
BRANCH  22  23
HETATM   23  C18 UNL     1      26.493   2.922  49.720  1.00  0.00     0.046 C 
BRANCH  23  24
HETATM   24  C19 UNL     1      25.677   4.152  49.470  1.00  0.00     0.119 C 
BRANCH  24  25
HETATM   25  N4  UNL     1      26.361   5.330  49.145  1.00  0.00    -0.408 N 
HETATM   26  C20 UNL     1      25.935   6.552  49.717  1.00  0.00     0.143 C 
HETATM   27  C21 UNL     1      26.308   7.738  48.896  1.00  0.00     0.187 C 
HETATM   28  O3  UNL     1      26.876   7.347  47.705  1.00  0.00    -0.388 OA
HETATM   29  C22 UNL     1      28.021   6.606  47.992  1.00  0.00     0.187 C 
HETATM   30  C23 UNL     1      27.657   5.258  48.592  1.00  0.00     0.143 C 
ENDBRANCH  24  25
ENDBRANCH  23  24
ENDBRANCH  22  23
ENDBRANCH  21  22
ENDBRANCH  12  21
BRANCH   1  31
HETATM   31  O1  UNL     1      27.653   0.191  53.850  1.00  0.00    -0.353 OA
HETATM   32  C1  UNL     1      28.483  -0.879  53.454  1.00  0.00     0.210 C 
ENDBRANCH   1  31
TORSDOF 8
ENDMDL
MODEL 6
REMARK VINA RESULT:      -8.0      2.877      5.036
REMARK  8 active torsions:
REMARK  status: ('A' for Active; 'I' for Inactive)
REMARK    1  A    between atoms: O1_2  and  C2_3 
REMARK    2  A    between atoms: C8_11  and  N3_12 
REMARK    3  A    between atoms: N3_12  and  C9_13 
REMARK    4  A    between atoms: C16_21  and  O2_22 
REMARK    5  A    between atoms: O2_22  and  C17_23 
REMARK    6  A    between atoms: C17_23  and  C18_24 
REMARK    7  A    between atoms: C18_24  and  C19_25 
REMARK    8  A    between atoms: C19_25  and  N4_26 
ROOT
HETATM    1  C2  UNL     1      27.057   1.836  52.650  1.00  0.00     0.103 A 
HETATM    2  C3  UNL     1      26.782   0.977  53.688  1.00  0.00     0.072 A 
HETATM    3  C4  UNL     1      25.514   0.457  53.725  1.00  0.00     0.071 A 
HETATM    4  N1  UNL     1      25.236  -0.396  54.752  1.00  0.00    -0.259 NA
HETATM    5  C5  UNL     1      24.018  -0.961  54.876  1.00  0.00     0.142 A 
HETATM    6  C6  UNL     1      23.087  -0.632  53.924  1.00  0.00     0.089 A 
HETATM    7  C7  UNL     1      21.798  -1.251  54.080  1.00  0.00     0.103 C 
HETATM    8  N2  UNL     1      20.748  -1.742  54.190  1.00  0.00    -0.191 NA
HETATM    9  C8  UNL     1      23.292   0.223  52.854  1.00  0.00     0.067 A 
HETATM   10  C14 UNL     1      24.561   0.767  52.785  1.00  0.00     0.024 A 
HETATM   11  C15 UNL     1      24.891   1.636  51.764  1.00  0.00     0.055 A 
HETATM   12  C16 UNL     1      26.153   2.194  51.672  1.00  0.00     0.103 A 
ENDROOT
BRANCH   9  13
HETATM   13  N3  UNL     1      22.297   0.536  51.892  1.00  0.00    -0.357 N 
HETATM   14  H6  UNL     1      22.407  -0.256  51.209  1.00  0.00     0.166 HD
BRANCH  13  15
HETATM   15  C9  UNL     1      21.388   1.655  51.881  1.00  0.00     0.014 A 
HETATM   16  C10 UNL     1      20.458   2.128  52.698  1.00  0.00     0.026 A 
HETATM   17  C11 UNL     1      19.872   3.322  52.110  1.00  0.00     0.021 A 
HETATM   18  C12 UNL     1      20.458   3.554  50.946  1.00  0.00     0.017 A 
HETATM   19 CL1  UNL     1      19.992   4.928  49.958  1.00  0.00    -0.089 Cl
HETATM   20  C13 UNL     1      21.501   2.511  50.660  1.00  0.00     0.108 A 
ENDBRANCH  13  15
ENDBRANCH   9  13
BRANCH  12  21
HETATM   21  O2  UNL     1      26.607   3.061  50.717  1.00  0.00    -0.348 OA
BRANCH  21  22
HETATM   22  C17 UNL     1      25.877   3.593  49.646  1.00  0.00     0.177 C 
BRANCH  22  23
HETATM   23  C18 UNL     1      26.378   4.979  49.250  1.00  0.00     0.046 C 
BRANCH  23  24
HETATM   24  C19 UNL     1      27.722   4.804  48.612  1.00  0.00     0.119 C 
BRANCH  24  25
HETATM   25  N4  UNL     1      28.470   5.959  48.347  1.00  0.00    -0.408 N 
HETATM   26  C20 UNL     1      29.874   5.851  48.213  1.00  0.00     0.143 C 
HETATM   27  C21 UNL     1      30.585   7.123  48.522  1.00  0.00     0.187 C 
HETATM   28  O3  UNL     1      29.705   8.074  48.986  1.00  0.00    -0.388 OA
HETATM   29  C22 UNL     1      28.752   8.306  47.996  1.00  0.00     0.187 C 
HETATM   30  C23 UNL     1      27.829   7.109  47.842  1.00  0.00     0.143 C 
ENDBRANCH  24  25
ENDBRANCH  23  24
ENDBRANCH  22  23
ENDBRANCH  21  22
ENDBRANCH  12  21
BRANCH   1  31
HETATM   31  O1  UNL     1      28.367   2.355  52.637  1.00  0.00    -0.353 OA
HETATM   32  C1  UNL     1      29.131   2.417  53.821  1.00  0.00     0.210 C 
ENDBRANCH   1  31
TORSDOF 8
ENDMDL
MODEL 7
REMARK VINA RESULT:      -7.7      3.120      4.996
REMARK  8 active torsions:
REMARK  status: ('A' for Active; 'I' for Inactive)
REMARK    1  A    between atoms: O1_2  and  C2_3 
REMARK    2  A    between atoms: C8_11  and  N3_12 
REMARK    3  A    between atoms: N3_12  and  C9_13 
REMARK    4  A    between atoms: C16_21  and  O2_22 
REMARK    5  A    between atoms: O2_22  and  C17_23 
REMARK    6  A    between atoms: C17_23  and  C18_24 
REMARK    7  A    between atoms: C18_24  and  C19_25 
REMARK    8  A    between atoms: C19_25  and  N4_26 
ROOT
HETATM    1  C2  UNL     1      24.725   3.331  50.697  1.00  0.00     0.103 A 
HETATM    2  C3  UNL     1      25.372   2.257  51.261  1.00  0.00     0.072 A 
HETATM    3  C4  UNL     1      24.611   1.440  52.056  1.00  0.00     0.071 A 
HETATM    4  N1  UNL     1      25.247   0.374  52.618  1.00  0.00    -0.259 NA
HETATM    5  C5  UNL     1      24.586  -0.490  53.416  1.00  0.00     0.142 A 
HETATM    6  C6  UNL     1      23.255  -0.236  53.626  1.00  0.00     0.089 A 
HETATM    7  C7  UNL     1      22.574  -1.174  54.479  1.00  0.00     0.103 C 
HETATM    8  N2  UNL     1      22.006  -1.923  55.166  1.00  0.00    -0.191 NA
HETATM    9  C8  UNL     1      22.539   0.822  53.092  1.00  0.00     0.067 A 
HETATM   10  C14 UNL     1      23.276   1.668  52.285  1.00  0.00     0.024 A 
HETATM   11  C15 UNL     1      22.675   2.762  51.693  1.00  0.00     0.055 A 
HETATM   12  C16 UNL     1      23.390   3.624  50.880  1.00  0.00     0.103 A 
ENDROOT
BRANCH   9  13
HETATM   13  N3  UNL     1      21.159   1.046  53.340  1.00  0.00    -0.357 N 
HETATM   14  H6  UNL     1      21.193   1.642  54.206  1.00  0.00     0.166 HD
BRANCH  13  15
HETATM   15  C9  UNL     1      20.029   0.567  52.582  1.00  0.00     0.014 A 
HETATM   16  C10 UNL     1      19.541   0.783  51.370  1.00  0.00     0.026 A 
HETATM   17  C11 UNL     1      18.344  -0.022  51.189  1.00  0.00     0.021 A 
HETATM   18  C12 UNL     1      18.125  -0.713  52.297  1.00  0.00     0.017 A 
HETATM   19 CL1  UNL     1      16.752  -1.798  52.429  1.00  0.00    -0.089 Cl
HETATM   20  C13 UNL     1      19.181  -0.417  53.323  1.00  0.00     0.108 A 
ENDBRANCH  13  15
ENDBRANCH   9  13
BRANCH  12  21
HETATM   21  O2  UNL     1      22.919   4.735  50.238  1.00  0.00    -0.348 OA
BRANCH  21  22
HETATM   22  C17 UNL     1      21.911   5.602  50.680  1.00  0.00     0.177 C 
BRANCH  22  23
HETATM   23  C18 UNL     1      22.203   7.052  50.301  1.00  0.00     0.046 C 
BRANCH  23  24
HETATM   24  C19 UNL     1      23.469   7.450  50.994  1.00  0.00     0.119 C 
BRANCH  24  25
HETATM   25  N4  UNL     1      24.471   8.052  50.221  1.00  0.00    -0.408 N 
HETATM   26  C20 UNL     1      25.802   7.587  50.340  1.00  0.00     0.143 C 
HETATM   27  C21 UNL     1      26.810   8.618  49.967  1.00  0.00     0.187 C 
HETATM   28  O3  UNL     1      26.202   9.825  49.710  1.00  0.00    -0.388 OA
HETATM   29  C22 UNL     1      25.311   9.648  48.654  1.00  0.00     0.187 C 
HETATM   30  C23 UNL     1      24.119   8.812  49.086  1.00  0.00     0.143 C 
ENDBRANCH  24  25
ENDBRANCH  23  24
ENDBRANCH  22  23
ENDBRANCH  21  22
ENDBRANCH  12  21
BRANCH   1  31
HETATM   31  O1  UNL     1      25.531   4.153  49.885  1.00  0.00    -0.353 OA
HETATM   32  C1  UNL     1      26.828   3.746  49.506  1.00  0.00     0.210 C 
ENDBRANCH   1  31
TORSDOF 8
ENDMDL
MODEL 8
REMARK VINA RESULT:      -7.6      2.835      4.689
REMARK  8 active torsions:
REMARK  status: ('A' for Active; 'I' for Inactive)
REMARK    1  A    between atoms: O1_2  and  C2_3 
REMARK    2  A    between atoms: C8_11  and  N3_12 
REMARK    3  A    between atoms: N3_12  and  C9_13 
REMARK    4  A    between atoms: C16_21  and  O2_22 
REMARK    5  A    between atoms: O2_22  and  C17_23 
REMARK    6  A    between atoms: C17_23  and  C18_24 
REMARK    7  A    between atoms: C18_24  and  C19_25 
REMARK    8  A    between atoms: C19_25  and  N4_26 
ROOT
HETATM    1  C2  UNL     1      25.731   4.335  49.697  1.00  0.00     0.103 A 
HETATM    2  C3  UNL     1      26.551   3.330  50.156  1.00  0.00     0.072 A 
HETATM    3  C4  UNL     1      26.003   2.473  51.074  1.00  0.00     0.071 A 
HETATM    4  N1  UNL     1      26.811   1.475  51.533  1.00  0.00    -0.259 NA
HETATM    5  C5  UNL     1      26.365   0.579  52.437  1.00  0.00     0.142 A 
HETATM    6  C6  UNL     1      25.070   0.729  52.864  1.00  0.00     0.089 A 
HETATM    7  C7  UNL     1      24.621  -0.241  53.826  1.00  0.00     0.103 C 
HETATM    8  N2  UNL     1      24.239  -1.018  54.606  1.00  0.00    -0.191 NA
HETATM    9  C8  UNL     1      24.189   1.713  52.446  1.00  0.00     0.067 A 
HETATM   10  C14 UNL     1      24.709   2.597  51.519  1.00  0.00     0.024 A 
HETATM   11  C15 UNL     1      23.929   3.624  51.025  1.00  0.00     0.055 A 
HETATM   12  C16 UNL     1      24.425   4.522  50.097  1.00  0.00     0.103 A 
ENDROOT
BRANCH   9  13
HETATM   13  N3  UNL     1      22.855   1.829  52.917  1.00  0.00    -0.357 N 
HETATM   14  H6  UNL     1      22.973   2.495  53.723  1.00  0.00     0.166 HD
BRANCH  13  15
HETATM   15  C9  UNL     1      21.670   1.189  52.403  1.00  0.00     0.014 A 
HETATM   16  C10 UNL     1      21.108   1.052  51.211  1.00  0.00     0.026 A 
HETATM   17  C11 UNL     1      19.887   0.274  51.347  1.00  0.00     0.021 A 
HETATM   18  C12 UNL     1      19.729  -0.048  52.622  1.00  0.00     0.017 A 
HETATM   19 CL1  UNL     1      18.348  -0.993  53.149  1.00  0.00    -0.089 Cl
HETATM   20  C13 UNL     1      20.854   0.501  53.451  1.00  0.00     0.108 A 
ENDBRANCH  13  15
ENDBRANCH   9  13
BRANCH  12  21
HETATM   21  O2  UNL     1      23.763   5.575  49.530  1.00  0.00    -0.348 OA
BRANCH  21  22
HETATM   22  C17 UNL     1      22.687   6.287  50.076  1.00  0.00     0.177 C 
BRANCH  22  23
HETATM   23  C18 UNL     1      22.997   7.776  50.206  1.00  0.00     0.046 C 
BRANCH  23  24
HETATM   24  C19 UNL     1      24.410   7.898  50.688  1.00  0.00     0.119 C 
BRANCH  24  25
HETATM   25  N4  UNL     1      25.303   8.636  49.900  1.00  0.00    -0.408 N 
HETATM   26  C20 UNL     1      26.694   8.453  50.084  1.00  0.00     0.143 C 
HETATM   27  C21 UNL     1      27.494   9.638  49.665  1.00  0.00     0.187 C 
HETATM   28  O3  UNL     1      26.671  10.682  49.310  1.00  0.00    -0.388 OA
HETATM   29  C22 UNL     1      25.873  10.264  48.246  1.00  0.00     0.187 C 
HETATM   30  C23 UNL     1      24.852   9.237  48.706  1.00  0.00     0.143 C 
ENDBRANCH  24  25
ENDBRANCH  23  24
ENDBRANCH  22  23
ENDBRANCH  21  22
ENDBRANCH  12  21
BRANCH   1  31
HETATM   31  O1  UNL     1      26.320   5.201  48.754  1.00  0.00    -0.353 OA
HETATM   32  C1  UNL     1      27.711   5.172  48.517  1.00  0.00     0.210 C 
ENDBRANCH   1  31
TORSDOF 8
ENDMDL
MODEL 9
REMARK VINA RESULT:      -7.6      2.084      3.144
REMARK  8 active torsions:
REMARK  status: ('A' for Active; 'I' for Inactive)
REMARK    1  A    between atoms: O1_2  and  C2_3 
REMARK    2  A    between atoms: C8_11  and  N3_12 
REMARK    3  A    between atoms: N3_12  and  C9_13 
REMARK    4  A    between atoms: C16_21  and  O2_22 
REMARK    5  A    between atoms: O2_22  and  C17_23 
REMARK    6  A    between atoms: C17_23  and  C18_24 
REMARK    7  A    between atoms: C18_24  and  C19_25 
REMARK    8  A    between atoms: C19_25  and  N4_26 
ROOT
HETATM    1  C2  UNL     1      19.769   1.413  49.787  1.00  0.00     0.103 A 
HETATM    2  C3  UNL     1      19.175   1.007  50.959  1.00  0.00     0.072 A 
HETATM    3  C4  UNL     1      20.005   0.454  51.900  1.00  0.00     0.071 A 
HETATM    4  N1  UNL     1      19.422   0.050  53.064  1.00  0.00    -0.259 NA
HETATM    5  C5  UNL     1      20.153  -0.506  54.052  1.00  0.00     0.142 A 
HETATM    6  C6  UNL     1      21.498  -0.640  53.821  1.00  0.00     0.089 A 
HETATM    7  C7  UNL     1      22.253  -1.233  54.892  1.00  0.00     0.103 C 
HETATM    8  N2  UNL     1      22.881  -1.712  55.748  1.00  0.00    -0.191 NA
HETATM    9  C8  UNL     1      22.163  -0.254  52.669  1.00  0.00     0.067 A 
HETATM   10  C14 UNL     1      21.356   0.308  51.697  1.00  0.00     0.024 A 
HETATM   11  C15 UNL     1      21.901   0.733  50.502  1.00  0.00     0.055 A 
HETATM   12  C16 UNL     1      21.116   1.299  49.513  1.00  0.00     0.103 A 
ENDROOT
BRANCH   9  13
HETATM   13  N3  UNL     1      23.560  -0.414  52.473  1.00  0.00    -0.357 N 
HETATM   14  H6  UNL     1      23.589  -1.237  51.819  1.00  0.00     0.166 HD
BRANCH  13  15
HETATM   15  C9  UNL     1      24.633   0.365  53.039  1.00  0.00     0.014 A 
HETATM   16  C10 UNL     1      24.864   1.654  53.243  1.00  0.00     0.026 A 
HETATM   17  C11 UNL     1      26.165   1.810  53.872  1.00  0.00     0.021 A 
HETATM   18  C12 UNL     1      26.703   0.612  54.038  1.00  0.00     0.017 A 
HETATM   19 CL1  UNL     1      28.285   0.428  54.775  1.00  0.00    -0.089 Cl
HETATM   20  C13 UNL     1      25.784  -0.458  53.524  1.00  0.00     0.108 A 
ENDBRANCH  13  15
ENDBRANCH   9  13
BRANCH  12  21
HETATM   21  O2  UNL     1      21.526   1.758  48.293  1.00  0.00    -0.348 OA
BRANCH  21  22
HETATM   22  C17 UNL     1      22.694   2.480  48.013  1.00  0.00     0.177 C 
BRANCH  22  23
HETATM   23  C18 UNL     1      22.707   3.835  48.717  1.00  0.00     0.046 C 
BRANCH  23  24
HETATM   24  C19 UNL     1      23.879   3.844  49.650  1.00  0.00     0.119 C 
BRANCH  24  25
HETATM   25  N4  UNL     1      24.409   5.088  50.014  1.00  0.00    -0.408 N 
HETATM   26  C20 UNL     1      23.846   5.780  51.113  1.00  0.00     0.143 C 
HETATM   27  C21 UNL     1      24.058   7.252  51.040  1.00  0.00     0.187 C 
HETATM   28  O3  UNL     1      24.650   7.602  49.848  1.00  0.00    -0.388 OA
HETATM   29  C22 UNL     1      25.881   6.955  49.767  1.00  0.00     0.187 C 
HETATM   30  C23 UNL     1      25.694   5.460  49.568  1.00  0.00     0.143 C 
ENDBRANCH  24  25
ENDBRANCH  23  24
ENDBRANCH  22  23
ENDBRANCH  21  22
ENDBRANCH  12  21
BRANCH   1  31
HETATM   31  O1  UNL     1      18.893   1.978  48.840  1.00  0.00    -0.353 OA
HETATM   32  C1  UNL     1      18.514   3.335  48.924  1.00  0.00     0.210 C 
ENDBRANCH   1  31
TORSDOF 8
ENDMDL
