MODEL 1
REMARK VINA RESULT:      -8.5      0.000      0.000
REMARK  1 active torsions:
REMARK  status: ('A' for Active; 'I' for Inactive)
REMARK    1  A    between atoms: C4_6  and  C5_7 
ROOT
HETATM    1  C5  UNL     1      25.022  -0.700  53.819  1.00  0.00    -0.002 A 
HETATM    2  C6  UNL     1      24.586  -1.131  54.991  1.00  0.00     0.152 A 
HETATM    3  O1  UNL     1      23.231  -1.159  55.291  1.00  0.00    -0.320 OA
HETATM    4  C7  UNL     1      22.259  -0.741  54.392  1.00  0.00     0.100 A 
HETATM    5  C8  UNL     1      20.902  -0.742  54.627  1.00  0.00     0.042 A 
HETATM    6  C9  UNL     1      20.054  -0.289  53.618  1.00  0.00     0.042 A 
HETATM    7  C10 UNL     1      20.564   0.149  52.420  1.00  0.00     0.103 A 
HETATM    8 BR1  UNL     1      19.293   0.738  51.137  1.00  0.00    -0.029 Br
HETATM    9  N2  UNL     1      21.893   0.139  52.218  1.00  0.00    -0.243 NA
HETATM   10  C11 UNL     1      22.753  -0.297  53.183  1.00  0.00     0.074 A 
HETATM   11  C12 UNL     1      24.166  -0.214  52.732  1.00  0.00     0.105 A 
ENDROOT
BRANCH   1  12
HETATM   12  C4  UNL     1      26.471  -0.717  53.618  1.00  0.00     0.061 C 
HETATM   13  N1  UNL     1      27.070  -1.814  53.366  1.00  0.00    -0.285 NA
HETATM   14  C3  UNL     1      28.373  -2.302  53.112  1.00  0.00     0.179 C 
HETATM   15  C2  UNL     1      29.487  -1.375  53.293  1.00  0.00     0.039 C 
HETATM   16  C1  UNL     1      29.567  -0.077  53.531  1.00  0.00     0.136 C 
HETATM   17  F1  UNL     1      30.845   0.337  53.621  1.00  0.00    -0.205 F 
HETATM   18  C14 UNL     1      28.469   0.852  53.685  1.00  0.00     0.074 C 
HETATM   19  C13 UNL     1      27.173   0.562  53.719  1.00  0.00     0.058 C 
HETATM   20 CL1  UNL     1      28.974   2.524  53.838  1.00  0.00    -0.081 Cl
ENDBRANCH   1  12
TORSDOF 1
ENDMDL
MODEL 2
REMARK VINA RESULT:      -8.1      2.507      3.058
REMARK  1 active torsions:
REMARK  status: ('A' for Active; 'I' for Inactive)
REMARK    1  A    between atoms: C4_6  and  C5_7 
ROOT
HETATM    1  C5  UNL     1      24.937   1.592  53.032  1.00  0.00    -0.002 A 
HETATM    2  C6  UNL     1      24.764   2.884  52.799  1.00  0.00     0.152 A 
HETATM    3  O1  UNL     1      23.505   3.408  52.542  1.00  0.00    -0.320 OA
HETATM    4  C7  UNL     1      22.362   2.622  52.512  1.00  0.00     0.100 A 
HETATM    5  C8  UNL     1      21.086   3.079  52.262  1.00  0.00     0.042 A 
HETATM    6  C9  UNL     1      20.040   2.160  52.267  1.00  0.00     0.042 A 
HETATM    7  C10 UNL     1      20.278   0.829  52.514  1.00  0.00     0.103 A 
HETATM    8 BR1  UNL     1      18.759  -0.310  52.489  1.00  0.00    -0.029 Br
HETATM    9  N2  UNL     1      21.533   0.411  52.754  1.00  0.00    -0.243 NA
HETATM   10  C11 UNL     1      22.582   1.283  52.757  1.00  0.00     0.074 A 
HETATM   11  C12 UNL     1      23.865   0.592  53.045  1.00  0.00     0.105 A 
ENDROOT
BRANCH   1  12
HETATM   12  C4  UNL     1      26.309   1.156  53.290  1.00  0.00     0.061 C 
HETATM   13  N1  UNL     1      27.180   1.991  53.701  1.00  0.00    -0.285 NA
HETATM   14  C3  UNL     1      28.546   2.039  54.066  1.00  0.00     0.179 C 
HETATM   15  C2  UNL     1      29.353   0.848  53.813  1.00  0.00     0.039 C 
HETATM   16  C1  UNL     1      29.070  -0.382  53.418  1.00  0.00     0.136 C 
HETATM   17  F1  UNL     1      30.175  -1.144  53.327  1.00  0.00    -0.205 F 
HETATM   18  C14 UNL     1      27.764  -0.920  53.106  1.00  0.00     0.074 C 
HETATM   19  C13 UNL     1      26.614  -0.255  53.057  1.00  0.00     0.058 C 
HETATM   20 CL1  UNL     1      27.771  -2.640  52.764  1.00  0.00    -0.081 Cl
ENDBRANCH   1  12
TORSDOF 1
ENDMDL
MODEL 3
REMARK VINA RESULT:      -8.1      1.968      2.426
REMARK  1 active torsions:
REMARK  status: ('A' for Active; 'I' for Inactive)
REMARK    1  A    between atoms: C4_6  and  C5_7 
ROOT
HETATM    1  C5  UNL     1      24.706   0.453  53.204  1.00  0.00    -0.002 A 
HETATM    2  C6  UNL     1      24.157  -0.716  53.498  1.00  0.00     0.152 A 
HETATM    3  O1  UNL     1      22.791  -0.923  53.373  1.00  0.00    -0.320 OA
HETATM    4  C7  UNL     1      21.922   0.068  52.938  1.00  0.00     0.100 A 
HETATM    5  C8  UNL     1      20.560  -0.073  52.793  1.00  0.00     0.042 A 
HETATM    6  C9  UNL     1      19.824   1.022  52.343  1.00  0.00     0.042 A 
HETATM    7  C10 UNL     1      20.447   2.212  52.053  1.00  0.00     0.103 A 
HETATM    8 BR1  UNL     1      19.322   3.618  51.451  1.00  0.00    -0.029 Br
HETATM    9  N2  UNL     1      21.779   2.321  52.204  1.00  0.00    -0.243 NA
HETATM   10  C11 UNL     1      22.530   1.270  52.642  1.00  0.00     0.074 A 
HETATM   11  C12 UNL     1      23.969   1.629  52.729  1.00  0.00     0.105 A 
ENDROOT
BRANCH   1  12
HETATM   12  C4  UNL     1      26.155   0.553  53.375  1.00  0.00     0.061 C 
HETATM   13  N1  UNL     1      26.697   1.685  53.597  1.00  0.00    -0.285 NA
HETATM   14  C3  UNL     1      27.976   2.247  53.817  1.00  0.00     0.179 C 
HETATM   15  C2  UNL     1      29.136   1.381  53.627  1.00  0.00     0.039 C 
HETATM   16  C1  UNL     1      29.282   0.085  53.408  1.00  0.00     0.136 C 
HETATM   17  F1  UNL     1      30.579  -0.260  53.297  1.00  0.00    -0.205 F 
HETATM   18  C14 UNL     1      28.235  -0.906  53.291  1.00  0.00     0.074 C 
HETATM   19  C13 UNL     1      26.924  -0.688  53.279  1.00  0.00     0.058 C 
HETATM   20 CL1  UNL     1      28.828  -2.550  53.152  1.00  0.00    -0.081 Cl
ENDBRANCH   1  12
TORSDOF 1
ENDMDL
MODEL 4
REMARK VINA RESULT:      -8.1      4.662      7.481
REMARK  1 active torsions:
REMARK  status: ('A' for Active; 'I' for Inactive)
REMARK    1  A    between atoms: C4_6  and  C5_7 
ROOT
HETATM    1  C5  UNL     1      23.939   1.127  52.975  1.00  0.00    -0.002 A 
HETATM    2  C6  UNL     1      24.250   2.410  53.079  1.00  0.00     0.152 A 
HETATM    3  O1  UNL     1      25.562   2.821  53.266  1.00  0.00    -0.320 OA
HETATM    4  C7  UNL     1      26.619   1.926  53.357  1.00  0.00     0.100 A 
HETATM    5  C8  UNL     1      27.940   2.268  53.543  1.00  0.00     0.042 A 
HETATM    6  C9  UNL     1      28.886   1.247  53.614  1.00  0.00     0.042 A 
HETATM    7  C10 UNL     1      28.505  -0.069  53.501  1.00  0.00     0.103 A 
HETATM    8 BR1  UNL     1      29.898  -1.354  53.615  1.00  0.00    -0.029 Br
HETATM    9  N2  UNL     1      27.208  -0.373  53.319  1.00  0.00    -0.243 NA
HETATM   10  C11 UNL     1      26.255   0.600  53.246  1.00  0.00     0.074 A 
HETATM   11  C12 UNL     1      24.901   0.023  53.045  1.00  0.00     0.105 A 
ENDROOT
BRANCH   1  12
HETATM   12  C4  UNL     1      22.524   0.815  52.780  1.00  0.00     0.061 C 
HETATM   13  N1  UNL     1      21.824   0.379  53.751  1.00  0.00    -0.285 NA
HETATM   14  C3  UNL     1      20.501  -0.035  54.032  1.00  0.00     0.179 C 
HETATM   15  C2  UNL     1      19.583  -0.173  52.903  1.00  0.00     0.039 C 
HETATM   16  C1  UNL     1      19.661   0.136  51.620  1.00  0.00     0.136 C 
HETATM   17  F1  UNL     1      18.534  -0.189  50.959  1.00  0.00    -0.205 F 
HETATM   18  C14 UNL     1      20.776   0.750  50.935  1.00  0.00     0.074 C 
HETATM   19  C13 UNL     1      21.974   1.027  51.441  1.00  0.00     0.058 C 
HETATM   20 CL1  UNL     1      20.447   1.145  49.258  1.00  0.00    -0.081 Cl
ENDBRANCH   1  12
TORSDOF 1
ENDMDL
MODEL 5
REMARK VINA RESULT:      -8.0      1.726      2.107
REMARK  1 active torsions:
REMARK  status: ('A' for Active; 'I' for Inactive)
REMARK    1  A    between atoms: C4_6  and  C5_7 
ROOT
HETATM    1  C5  UNL     1      24.369   0.628  52.827  1.00  0.00    -0.002 A 
HETATM    2  C6  UNL     1      24.174   1.908  52.552  1.00  0.00     0.152 A 
HETATM    3  O1  UNL     1      22.895   2.433  52.431  1.00  0.00    -0.320 OA
HETATM    4  C7  UNL     1      21.753   1.661  52.589  1.00  0.00     0.100 A 
HETATM    5  C8  UNL     1      20.459   2.120  52.482  1.00  0.00     0.042 A 
HETATM    6  C9  UNL     1      19.416   1.214  52.669  1.00  0.00     0.042 A 
HETATM    7  C10 UNL     1      19.678  -0.105  52.953  1.00  0.00     0.103 A 
HETATM    8 BR1  UNL     1      18.162  -1.225  53.184  1.00  0.00    -0.029 Br
HETATM    9  N2  UNL     1      20.951  -0.525  53.052  1.00  0.00    -0.243 NA
HETATM   10  C11 UNL     1      21.996   0.334  52.874  1.00  0.00     0.074 A 
HETATM   11  C12 UNL     1      23.302  -0.358  53.031  1.00  0.00     0.105 A 
ENDROOT
BRANCH   1  12
HETATM   12  C4  UNL     1      25.760   0.189  52.930  1.00  0.00     0.061 C 
HETATM   13  N1  UNL     1      26.057  -1.041  52.773  1.00  0.00    -0.285 NA
HETATM   14  C3  UNL     1      27.188  -1.890  52.779  1.00  0.00     0.179 C 
HETATM   15  C2  UNL     1      28.458  -1.319  53.216  1.00  0.00     0.039 C 
HETATM   16  C1  UNL     1      28.857  -0.091  53.506  1.00  0.00     0.136 C 
HETATM   17  F1  UNL     1      30.152  -0.060  53.872  1.00  0.00    -0.205 F 
HETATM   18  C14 UNL     1      28.066   1.118  53.458  1.00  0.00     0.074 C 
HETATM   19  C13 UNL     1      26.763   1.214  53.214  1.00  0.00     0.058 C 
HETATM   20 CL1  UNL     1      28.987   2.579  53.765  1.00  0.00    -0.081 Cl
ENDBRANCH   1  12
TORSDOF 1
ENDMDL
MODEL 6
REMARK VINA RESULT:      -7.9      2.046      2.506
REMARK  1 active torsions:
REMARK  status: ('A' for Active; 'I' for Inactive)
REMARK    1  A    between atoms: C4_6  and  C5_7 
ROOT
HETATM    1  C5  UNL     1      23.102  -0.169  53.560  1.00  0.00    -0.002 A 
HETATM    2  C6  UNL     1      22.694  -0.935  54.560  1.00  0.00     0.152 A 
HETATM    3  O1  UNL     1      21.374  -1.352  54.658  1.00  0.00    -0.320 OA
HETATM    4  C7  UNL     1      20.409  -0.999  53.725  1.00  0.00     0.100 A 
HETATM    5  C8  UNL     1      19.086  -1.378  53.764  1.00  0.00     0.042 A 
HETATM    6  C9  UNL     1      18.239  -0.938  52.749  1.00  0.00     0.042 A 
HETATM    7  C10 UNL     1      18.717  -0.143  51.735  1.00  0.00     0.103 A 
HETATM    8 BR1  UNL     1      17.453   0.382  50.419  1.00  0.00    -0.029 Br
HETATM    9  N2  UNL     1      20.014   0.212  51.722  1.00  0.00    -0.243 NA
HETATM   10  C11 UNL     1      20.871  -0.200  52.700  1.00  0.00     0.074 A 
HETATM   11  C12 UNL     1      22.245   0.316  52.473  1.00  0.00     0.105 A 
ENDROOT
BRANCH   1  12
HETATM   12  C4  UNL     1      24.515   0.208  53.563  1.00  0.00     0.061 C 
HETATM   13  N1  UNL     1      25.282  -0.190  54.501  1.00  0.00    -0.285 NA
HETATM   14  C3  UNL     1      26.632  -0.091  54.910  1.00  0.00     0.179 C 
HETATM   15  C2  UNL     1      27.492   0.837  54.179  1.00  0.00     0.039 C 
HETATM   16  C1  UNL     1      27.334   1.557  53.082  1.00  0.00     0.136 C 
HETATM   17  F1  UNL     1      28.435   2.278  52.795  1.00  0.00    -0.205 F 
HETATM   18  C14 UNL     1      26.162   1.619  52.238  1.00  0.00     0.074 C 
HETATM   19  C13 UNL     1      24.984   1.043  52.459  1.00  0.00     0.058 C 
HETATM   20 CL1  UNL     1      26.386   2.572  50.783  1.00  0.00    -0.081 Cl
ENDBRANCH   1  12
TORSDOF 1
ENDMDL
MODEL 7
REMARK VINA RESULT:      -7.9      4.021      4.770
REMARK  1 active torsions:
REMARK  status: ('A' for Active; 'I' for Inactive)
REMARK    1  A    between atoms: C4_6  and  C5_7 
ROOT
HETATM    1  C5  UNL     1      25.947   2.377  51.203  1.00  0.00    -0.002 A 
HETATM    2  C6  UNL     1      26.466   3.111  50.232  1.00  0.00     0.152 A 
HETATM    3  O1  UNL     1      25.659   3.823  49.356  1.00  0.00    -0.320 OA
HETATM    4  C7  UNL     1      24.274   3.810  49.440  1.00  0.00     0.100 A 
HETATM    5  C8  UNL     1      23.418   4.492  48.603  1.00  0.00     0.042 A 
HETATM    6  C9  UNL     1      22.046   4.375  48.820  1.00  0.00     0.042 A 
HETATM    7  C10 UNL     1      21.563   3.596  49.844  1.00  0.00     0.103 A 
HETATM    8 BR1  UNL     1      19.674   3.529  50.022  1.00  0.00    -0.029 Br
HETATM    9  N2  UNL     1      22.422   2.942  50.645  1.00  0.00    -0.243 NA
HETATM   10  C11 UNL     1      23.771   3.033  50.462  1.00  0.00     0.074 A 
HETATM   11  C12 UNL     1      24.512   2.226  51.465  1.00  0.00     0.105 A 
ENDROOT
BRANCH   1  12
HETATM   12  C4  UNL     1      26.897   1.671  52.064  1.00  0.00     0.061 C 
HETATM   13  N1  UNL     1      27.766   2.325  52.728  1.00  0.00    -0.285 NA
HETATM   14  C3  UNL     1      28.827   2.100  53.636  1.00  0.00     0.179 C 
HETATM   15  C2  UNL     1      29.237   0.717  53.866  1.00  0.00     0.039 C 
HETATM   16  C1  UNL     1      28.742  -0.454  53.505  1.00  0.00     0.136 C 
HETATM   17  F1  UNL     1      29.488  -1.475  53.967  1.00  0.00    -0.205 F 
HETATM   18  C14 UNL     1      27.555  -0.696  52.715  1.00  0.00     0.074 C 
HETATM   19  C13 UNL     1      26.792   0.214  52.117  1.00  0.00     0.058 C 
HETATM   20 CL1  UNL     1      27.133  -2.391  52.571  1.00  0.00    -0.081 Cl
ENDBRANCH   1  12
TORSDOF 1
ENDMDL
MODEL 8
REMARK VINA RESULT:      -7.8      5.936      7.678
REMARK  1 active torsions:
REMARK  status: ('A' for Active; 'I' for Inactive)
REMARK    1  A    between atoms: C4_6  and  C5_7 
ROOT
HETATM    1  C5  UNL     1      24.594   3.154  50.453  1.00  0.00    -0.002 A 
HETATM    2  C6  UNL     1      23.790   4.163  50.156  1.00  0.00     0.152 A 
HETATM    3  O1  UNL     1      24.259   5.287  49.489  1.00  0.00    -0.320 OA
HETATM    4  C7  UNL     1      25.583   5.422  49.096  1.00  0.00     0.100 A 
HETATM    5  C8  UNL     1      26.111   6.509  48.433  1.00  0.00     0.042 A 
HETATM    6  C9  UNL     1      27.466   6.493  48.108  1.00  0.00     0.042 A 
HETATM    7  C10 UNL     1      28.254   5.417  48.442  1.00  0.00     0.103 A 
HETATM    8 BR1  UNL     1      30.080   5.531  47.937  1.00  0.00    -0.029 Br
HETATM    9  N2  UNL     1      27.711   4.370  49.089  1.00  0.00    -0.243 NA
HETATM   10  C11 UNL     1      26.389   4.352  49.424  1.00  0.00     0.074 A 
HETATM   11  C12 UNL     1      26.023   3.097  50.130  1.00  0.00     0.105 A 
ENDROOT
BRANCH   1  12
HETATM   12  C4  UNL     1      23.987   2.025  51.157  1.00  0.00     0.061 C 
HETATM   13  N1  UNL     1      22.777   1.700  50.923  1.00  0.00    -0.285 NA
HETATM   14  C3  UNL     1      21.815   0.746  51.329  1.00  0.00     0.179 C 
HETATM   15  C2  UNL     1      22.153  -0.114  52.460  1.00  0.00     0.039 C 
HETATM   16  C1  UNL     1      23.258  -0.312  53.159  1.00  0.00     0.136 C 
HETATM   17  F1  UNL     1      23.077  -1.226  54.131  1.00  0.00    -0.205 F 
HETATM   18  C14 UNL     1      24.540   0.328  52.966  1.00  0.00     0.074 C 
HETATM   19  C13 UNL     1      24.826   1.311  52.118  1.00  0.00     0.058 C 
HETATM   20 CL1  UNL     1      25.810  -0.309  53.994  1.00  0.00    -0.081 Cl
ENDBRANCH   1  12
TORSDOF 1
ENDMDL
MODEL 9
REMARK VINA RESULT:      -7.7      5.201      6.878
REMARK  1 active torsions:
REMARK  status: ('A' for Active; 'I' for Inactive)
REMARK    1  A    between atoms: C4_6  and  C5_7 
ROOT
HETATM    1  C5  UNL     1      24.394   1.529  51.934  1.00  0.00    -0.002 A 
HETATM    2  C6  UNL     1      25.675   1.213  51.825  1.00  0.00     0.152 A 
HETATM    3  O1  UNL     1      26.545   1.978  51.060  1.00  0.00    -0.320 OA
HETATM    4  C7  UNL     1      26.133   3.109  50.368  1.00  0.00     0.100 A 
HETATM    5  C8  UNL     1      26.943   3.909  49.593  1.00  0.00     0.042 A 
HETATM    6  C9  UNL     1      26.376   5.013  48.961  1.00  0.00     0.042 A 
HETATM    7  C10 UNL     1      25.038   5.293  49.109  1.00  0.00     0.103 A 
HETATM    8 BR1  UNL     1      24.401   6.828  48.192  1.00  0.00    -0.029 Br
HETATM    9  N2  UNL     1      24.271   4.495  49.872  1.00  0.00    -0.243 NA
HETATM   10  C11 UNL     1      24.793   3.405  50.506  1.00  0.00     0.074 A 
HETATM   11  C12 UNL     1      23.757   2.680  51.286  1.00  0.00     0.105 A 
ENDROOT
BRANCH   1  12
HETATM   12  C4  UNL     1      23.575   0.649  52.766  1.00  0.00     0.061 C 
HETATM   13  N1  UNL     1      24.108  -0.009  53.720  1.00  0.00    -0.285 NA
HETATM   14  C3  UNL     1      23.749  -0.928  54.733  1.00  0.00     0.179 C 
HETATM   15  C2  UNL     1      22.393  -1.470  54.702  1.00  0.00     0.039 C 
HETATM   16  C1  UNL     1      21.316  -1.198  53.985  1.00  0.00     0.136 C 
HETATM   17  F1  UNL     1      20.277  -1.984  54.325  1.00  0.00    -0.205 F 
HETATM   18  C14 UNL     1      21.185  -0.196  52.950  1.00  0.00     0.074 C 
HETATM   19  C13 UNL     1      22.150   0.571  52.451  1.00  0.00     0.058 C 
HETATM   20 CL1  UNL     1      19.554  -0.027  52.331  1.00  0.00    -0.081 Cl
ENDBRANCH   1  12
TORSDOF 1
ENDMDL
