MODEL 1
REMARK VINA RESULT:      -7.1      0.000      0.000
REMARK  10 active torsions:
REMARK  status: ('A' for Active; 'I' for Inactive)
REMARK    1  A    between atoms: C2_2  and  C3_3 
REMARK    2  A    between atoms: C3_3  and  C4_4 
REMARK    3  A    between atoms: C5_5  and  C6_6 
REMARK    4  A    between atoms: C6_6  and  N1_8 
REMARK    5  A    between atoms: C8_9  and  C9_10 
REMARK    6  A    between atoms: C10_11  and  C11_12 
REMARK    7  A    between atoms: C13_17  and  N5_18 
REMARK    8  A    between atoms: N5_18  and  C14_19 
REMARK    9  A    between atoms: C14_19  and  C15_20 
REMARK   10  A    between atoms: C16_21  and  C17_23 
ROOT
HETATM    1  C9  UNL     1      22.332   0.018  53.236  1.00  0.00     0.057 A 
HETATM    2  C10 UNL     1      21.286  -0.644  53.890  1.00  0.00     0.090 A 
HETATM    3  N3  UNL     1      21.535  -1.458  54.923  1.00  0.00    -0.240 NA
HETATM    4  C12 UNL     1      22.799  -1.641  55.336  1.00  0.00     0.236 A 
HETATM    5  N4  UNL     1      23.798  -1.006  54.707  1.00  0.00    -0.224 NA
HETATM    6  C13 UNL     1      23.626  -0.180  53.671  1.00  0.00     0.139 A 
ENDROOT
BRANCH   1   7
HETATM    7  C8  UNL     1      22.057   0.918  52.094  1.00  0.00     0.129 C 
HETATM    8  N1  UNL     1      22.640   1.110  50.996  1.00  0.00    -0.283 NA
BRANCH   8   9
HETATM    9  C6  UNL     1      22.211   2.040  50.007  1.00  0.00     0.182 C 
HETATM   10  C7  UNL     1      21.751   1.281  48.779  1.00  0.00     0.048 C 
BRANCH   9  11
HETATM   11  C5  UNL     1      23.266   2.999  49.669  1.00  0.00    -0.080 C 
HETATM   12  C4  UNL     1      24.141   3.775  49.376  1.00  0.00    -0.104 C 
BRANCH  12  13
HETATM   13  C3  UNL     1      25.189   4.732  49.021  1.00  0.00     0.093 C 
BRANCH  13  14
HETATM   14  C2  UNL     1      26.564   4.193  49.398  1.00  0.00     0.007 C 
HETATM   15  C1  UNL     1      27.643   4.914  48.623  1.00  0.00     0.006 C 
ENDBRANCH  13  14
ENDBRANCH  12  13
ENDBRANCH   9  11
ENDBRANCH   8   9
ENDBRANCH   1   7
BRANCH   2  16
HETATM   16  C11 UNL     1      19.911  -0.465  53.466  1.00  0.00     0.139 C 
HETATM   17  N2  UNL     1      18.691  -0.761  53.763  1.00  0.00    -0.310 NA
HETATM   18  H14 UNL     1      18.586  -1.356  54.632  1.00  0.00     0.186 HD
ENDBRANCH   2  16
BRANCH   6  19
HETATM   19  N5  UNL     1      24.754   0.441  53.080  1.00  0.00    -0.370 N 
HETATM   20  H16 UNL     1      25.019   0.569  52.106  1.00  0.00     0.161 HD
BRANCH  19  21
HETATM   21  C14 UNL     1      25.756   1.020  53.953  1.00  0.00     0.149 C 
BRANCH  21  22
HETATM   22  C15 UNL     1      27.036   0.257  53.739  1.00  0.00     0.010 C 
HETATM   23  C16 UNL     1      28.345   0.350  53.831  1.00  0.00     0.015 C 
HETATM   24 BR1  UNL     1      29.623  -1.027  53.399  1.00  0.00    -0.053 Br
BRANCH  23  25
HETATM   25  C17 UNL     1      29.093   1.557  54.295  1.00  0.00     0.268 C 
HETATM   26  F1  UNL     1      28.664   2.702  53.630  1.00  0.00    -0.250 F 
ENDBRANCH  23  25
ENDBRANCH  21  22
ENDBRANCH  19  21
ENDBRANCH   6  19
TORSDOF 10
ENDMDL
MODEL 2
REMARK VINA RESULT:      -7.1      2.740      5.471
REMARK  10 active torsions:
REMARK  status: ('A' for Active; 'I' for Inactive)
REMARK    1  A    between atoms: C2_2  and  C3_3 
REMARK    2  A    between atoms: C3_3  and  C4_4 
REMARK    3  A    between atoms: C5_5  and  C6_6 
REMARK    4  A    between atoms: C6_6  and  N1_8 
REMARK    5  A    between atoms: C8_9  and  C9_10 
REMARK    6  A    between atoms: C10_11  and  C11_12 
REMARK    7  A    between atoms: C13_17  and  N5_18 
REMARK    8  A    between atoms: N5_18  and  C14_19 
REMARK    9  A    between atoms: C14_19  and  C15_20 
REMARK   10  A    between atoms: C16_21  and  C17_23 
ROOT
HETATM    1  C9  UNL     1      23.386  -0.225  53.586  1.00  0.00     0.057 A 
HETATM    2  C10 UNL     1      23.362  -1.042  54.723  1.00  0.00     0.090 A 
HETATM    3  N3  UNL     1      22.225  -1.629  55.117  1.00  0.00    -0.240 NA
HETATM    4  C12 UNL     1      21.098  -1.432  54.415  1.00  0.00     0.236 A 
HETATM    5  N4  UNL     1      21.125  -0.648  53.328  1.00  0.00    -0.224 NA
HETATM    6  C13 UNL     1      22.221  -0.032  52.876  1.00  0.00     0.139 A 
ENDROOT
BRANCH   1   7
HETATM    7  C8  UNL     1      24.643   0.424  53.151  1.00  0.00     0.129 C 
HETATM    8  N1  UNL     1      25.035   1.619  53.154  1.00  0.00    -0.283 NA
BRANCH   8   9
HETATM    9  C6  UNL     1      26.307   2.051  52.683  1.00  0.00     0.182 C 
HETATM   10  C7  UNL     1      26.324   1.980  51.169  1.00  0.00     0.048 C 
BRANCH   9  11
HETATM   11  C5  UNL     1      27.398   1.262  53.260  1.00  0.00    -0.080 C 
HETATM   12  C4  UNL     1      28.301   0.629  53.747  1.00  0.00    -0.104 C 
BRANCH  12  13
HETATM   13  C3  UNL     1      29.384  -0.155  54.340  1.00  0.00     0.093 C 
BRANCH  13  14
HETATM   14  C2  UNL     1      29.892  -1.205  53.359  1.00  0.00     0.007 C 
HETATM   15  C1  UNL     1      28.839  -2.266  53.131  1.00  0.00     0.006 C 
ENDBRANCH  13  14
ENDBRANCH  12  13
ENDBRANCH   9  11
ENDBRANCH   8   9
ENDBRANCH   1   7
BRANCH   2  16
HETATM   16  C11 UNL     1      24.565  -1.272  55.500  1.00  0.00     0.139 C 
HETATM   17  N2  UNL     1      25.032  -1.280  56.702  1.00  0.00    -0.310 NA
HETATM   18  H14 UNL     1      24.322  -1.035  57.448  1.00  0.00     0.186 HD
ENDBRANCH   2  16
BRANCH   6  19
HETATM   19  N5  UNL     1      22.136   0.775  51.713  1.00  0.00    -0.370 N 
HETATM   20  H16 UNL     1      22.321   0.566  50.735  1.00  0.00     0.161 HD
BRANCH  19  21
HETATM   21  C14 UNL     1      21.719   2.155  51.863  1.00  0.00     0.149 C 
BRANCH  21  22
HETATM   22  C15 UNL     1      22.549   2.982  50.918  1.00  0.00     0.010 C 
HETATM   23  C16 UNL     1      23.268   4.080  50.834  1.00  0.00     0.015 C 
HETATM   24 BR1  UNL     1      24.188   4.728  49.269  1.00  0.00    -0.053 Br
BRANCH  23  25
HETATM   25  C17 UNL     1      23.509   5.041  51.952  1.00  0.00     0.268 C 
HETATM   26  F1  UNL     1      23.598   4.381  53.174  1.00  0.00    -0.250 F 
ENDBRANCH  23  25
ENDBRANCH  21  22
ENDBRANCH  19  21
ENDBRANCH   6  19
TORSDOF 10
ENDMDL
MODEL 3
REMARK VINA RESULT:      -7.0      3.057      5.129
REMARK  10 active torsions:
REMARK  status: ('A' for Active; 'I' for Inactive)
REMARK    1  A    between atoms: C2_2  and  C3_3 
REMARK    2  A    between atoms: C3_3  and  C4_4 
REMARK    3  A    between atoms: C5_5  and  C6_6 
REMARK    4  A    between atoms: C6_6  and  N1_8 
REMARK    5  A    between atoms: C8_9  and  C9_10 
REMARK    6  A    between atoms: C10_11  and  C11_12 
REMARK    7  A    between atoms: C13_17  and  N5_18 
REMARK    8  A    between atoms: N5_18  and  C14_19 
REMARK    9  A    between atoms: C14_19  and  C15_20 
REMARK   10  A    between atoms: C16_21  and  C17_23 
ROOT
HETATM    1  C9  UNL     1      25.934   1.092  53.522  1.00  0.00     0.057 A 
HETATM    2  C10 UNL     1      26.208   0.098  54.468  1.00  0.00     0.090 A 
HETATM    3  N3  UNL     1      27.455  -0.094  54.914  1.00  0.00    -0.240 NA
HETATM    4  C12 UNL     1      28.452   0.676  54.449  1.00  0.00     0.236 A 
HETATM    5  N4  UNL     1      28.186   1.626  53.543  1.00  0.00    -0.224 NA
HETATM    6  C13 UNL     1      26.968   1.874  53.053  1.00  0.00     0.139 A 
ENDROOT
BRANCH   1   7
HETATM    7  C8  UNL     1      24.554   1.303  53.028  1.00  0.00     0.129 C 
HETATM    8  N1  UNL     1      23.845   2.332  52.883  1.00  0.00    -0.283 NA
BRANCH   8   9
HETATM    9  C6  UNL     1      22.513   2.328  52.381  1.00  0.00     0.182 C 
HETATM   10  C7  UNL     1      21.763   1.154  52.977  1.00  0.00     0.048 C 
BRANCH   9  11
HETATM   11  C5  UNL     1      22.483   2.284  50.917  1.00  0.00    -0.080 C 
HETATM   12  C4  UNL     1      22.480   2.242  49.712  1.00  0.00    -0.104 C 
BRANCH  12  13
HETATM   13  C3  UNL     1      22.459   2.182  48.251  1.00  0.00     0.093 C 
BRANCH  13  14
HETATM   14  C2  UNL     1      21.578   3.285  47.676  1.00  0.00     0.007 C 
HETATM   15  C1  UNL     1      21.904   3.513  46.217  1.00  0.00     0.006 C 
ENDBRANCH  13  14
ENDBRANCH  12  13
ENDBRANCH   9  11
ENDBRANCH   8   9
ENDBRANCH   1   7
BRANCH   2  16
HETATM   16  C11 UNL     1      25.150  -0.748  54.987  1.00  0.00     0.139 C 
HETATM   17  N2  UNL     1      24.835  -1.521  55.971  1.00  0.00    -0.310 NA
HETATM   18  H14 UNL     1      25.587  -1.616  56.709  1.00  0.00     0.186 HD
ENDBRANCH   2  16
BRANCH   6  19
HETATM   19  N5  UNL     1      26.799   2.906  52.096  1.00  0.00    -0.370 N 
HETATM   20  H16 UNL     1      26.757   3.917  52.198  1.00  0.00     0.161 HD
BRANCH  19  21
HETATM   21  C14 UNL     1      26.652   2.534  50.703  1.00  0.00     0.149 C 
BRANCH  21  22
HETATM   22  C15 UNL     1      25.807   3.589  50.041  1.00  0.00     0.010 C 
HETATM   23  C16 UNL     1      25.868   4.684  49.315  1.00  0.00     0.015 C 
HETATM   24 BR1  UNL     1      24.372   5.726  48.688  1.00  0.00    -0.053 Br
BRANCH  23  25
HETATM   25  C17 UNL     1      27.125   5.330  48.834  1.00  0.00     0.268 C 
HETATM   26  F1  UNL     1      27.999   4.393  48.293  1.00  0.00    -0.250 F 
ENDBRANCH  23  25
ENDBRANCH  21  22
ENDBRANCH  19  21
ENDBRANCH   6  19
TORSDOF 10
ENDMDL
MODEL 4
REMARK VINA RESULT:      -6.9      3.375      5.552
REMARK  10 active torsions:
REMARK  status: ('A' for Active; 'I' for Inactive)
REMARK    1  A    between atoms: C2_2  and  C3_3 
REMARK    2  A    between atoms: C3_3  and  C4_4 
REMARK    3  A    between atoms: C5_5  and  C6_6 
REMARK    4  A    between atoms: C6_6  and  N1_8 
REMARK    5  A    between atoms: C8_9  and  C9_10 
REMARK    6  A    between atoms: C10_11  and  C11_12 
REMARK    7  A    between atoms: C13_17  and  N5_18 
REMARK    8  A    between atoms: N5_18  and  C14_19 
REMARK    9  A    between atoms: C14_19  and  C15_20 
REMARK   10  A    between atoms: C16_21  and  C17_23 
ROOT
HETATM    1  C9  UNL     1      25.025   1.442  52.297  1.00  0.00     0.057 A 
HETATM    2  C10 UNL     1      26.253   1.307  52.954  1.00  0.00     0.090 A 
HETATM    3  N3  UNL     1      26.405   0.416  53.941  1.00  0.00    -0.240 NA
HETATM    4  C12 UNL     1      25.368  -0.355  54.305  1.00  0.00     0.236 A 
HETATM    5  N4  UNL     1      24.193  -0.223  53.675  1.00  0.00    -0.224 NA
HETATM    6  C13 UNL     1      23.968   0.643  52.682  1.00  0.00     0.139 A 
ENDROOT
BRANCH   1   7
HETATM    7  C8  UNL     1      24.857   2.427  51.206  1.00  0.00     0.129 C 
HETATM    8  N1  UNL     1      24.154   3.464  51.088  1.00  0.00    -0.283 NA
BRANCH   8   9
HETATM    9  C6  UNL     1      24.132   4.296  49.934  1.00  0.00     0.182 C 
HETATM   10  C7  UNL     1      23.279   3.639  48.867  1.00  0.00     0.048 C 
BRANCH   9  11
HETATM   11  C5  UNL     1      25.482   4.569  49.434  1.00  0.00    -0.080 C 
HETATM   12  C4  UNL     1      26.586   4.812  49.015  1.00  0.00    -0.104 C 
BRANCH  12  13
HETATM   13  C3  UNL     1      27.934   5.100  48.525  1.00  0.00     0.093 C 
BRANCH  13  14
HETATM   14  C2  UNL     1      28.057   6.562  48.111  1.00  0.00     0.007 C 
HETATM   15  C1  UNL     1      29.426   6.831  47.528  1.00  0.00     0.006 C 
ENDBRANCH  13  14
ENDBRANCH  12  13
ENDBRANCH   9  11
ENDBRANCH   8   9
ENDBRANCH   1   7
BRANCH   2  16
HETATM   16  C11 UNL     1      27.390   2.127  52.582  1.00  0.00     0.139 C 
HETATM   17  N2  UNL     1      28.445   2.704  53.049  1.00  0.00    -0.310 NA
HETATM   18  H14 UNL     1      28.594   2.566  54.088  1.00  0.00     0.186 HD
ENDBRANCH   2  16
BRANCH   6  19
HETATM   19  N5  UNL     1      22.685   0.699  52.084  1.00  0.00    -0.370 N 
HETATM   20  H16 UNL     1      22.325   0.293  51.224  1.00  0.00     0.161 HD
BRANCH  19  21
HETATM   21  C14 UNL     1      21.645   1.452  52.758  1.00  0.00     0.149 C 
BRANCH  21  22
HETATM   22  C15 UNL     1      20.437   0.560  52.861  1.00  0.00     0.010 C 
HETATM   23  C16 UNL     1      19.991  -0.549  53.409  1.00  0.00     0.015 C 
HETATM   24 BR1  UNL     1      18.228  -1.301  53.199  1.00  0.00    -0.053 Br
BRANCH  23  25
HETATM   25  C17 UNL     1      20.779  -1.443  54.309  1.00  0.00     0.268 C 
HETATM   26  F1  UNL     1      21.509  -0.707  55.238  1.00  0.00    -0.250 F 
ENDBRANCH  23  25
ENDBRANCH  21  22
ENDBRANCH  19  21
ENDBRANCH   6  19
TORSDOF 10
ENDMDL
MODEL 5
REMARK VINA RESULT:      -6.9      3.337      5.526
REMARK  10 active torsions:
REMARK  status: ('A' for Active; 'I' for Inactive)
REMARK    1  A    between atoms: C2_2  and  C3_3 
REMARK    2  A    between atoms: C3_3  and  C4_4 
REMARK    3  A    between atoms: C5_5  and  C6_6 
REMARK    4  A    between atoms: C6_6  and  N1_8 
REMARK    5  A    between atoms: C8_9  and  C9_10 
REMARK    6  A    between atoms: C10_11  and  C11_12 
REMARK    7  A    between atoms: C13_17  and  N5_18 
REMARK    8  A    between atoms: N5_18  and  C14_19 
REMARK    9  A    between atoms: C14_19  and  C15_20 
REMARK   10  A    between atoms: C16_21  and  C17_23 
ROOT
HETATM    1  C9  UNL     1      25.605   1.201  53.028  1.00  0.00     0.057 A 
HETATM    2  C10 UNL     1      26.811   1.444  53.696  1.00  0.00     0.090 A 
HETATM    3  N3  UNL     1      27.166   0.706  54.754  1.00  0.00    -0.240 NA
HETATM    4  C12 UNL     1      26.356  -0.278  55.179  1.00  0.00     0.236 A 
HETATM    5  N4  UNL     1      25.202  -0.507  54.538  1.00  0.00    -0.224 NA
HETATM    6  C13 UNL     1      24.784   0.188  53.476  1.00  0.00     0.139 A 
ENDROOT
BRANCH   1   7
HETATM    7  C8  UNL     1      25.213   2.018  51.858  1.00  0.00     0.129 C 
HETATM    8  N1  UNL     1      24.354   2.922  51.694  1.00  0.00    -0.283 NA
BRANCH   8   9
HETATM    9  C6  UNL     1      24.124   3.602  50.465  1.00  0.00     0.182 C 
HETATM   10  C7  UNL     1      23.337   2.697  49.538  1.00  0.00     0.048 C 
BRANCH   9  11
HETATM   11  C5  UNL     1      25.377   4.034  49.840  1.00  0.00    -0.080 C 
HETATM   12  C4  UNL     1      26.405   4.376  49.311  1.00  0.00    -0.104 C 
BRANCH  12  13
HETATM   13  C3  UNL     1      27.647   4.809  48.672  1.00  0.00     0.093 C 
BRANCH  13  14
HETATM   14  C2  UNL     1      27.561   6.274  48.260  1.00  0.00     0.007 C 
HETATM   15  C1  UNL     1      28.861   6.722  47.630  1.00  0.00     0.006 C 
ENDBRANCH  13  14
ENDBRANCH  12  13
ENDBRANCH   9  11
ENDBRANCH   8   9
ENDBRANCH   1   7
BRANCH   2  16
HETATM   16  C11 UNL     1      27.704   2.500  53.259  1.00  0.00     0.139 C 
HETATM   17  N2  UNL     1      28.949   2.826  53.161  1.00  0.00    -0.310 NA
HETATM   18  H14 UNL     1      29.621   2.090  53.516  1.00  0.00     0.186 HD
ENDBRANCH   2  16
BRANCH   6  19
HETATM   19  N5  UNL     1      23.544  -0.141  52.873  1.00  0.00    -0.370 N 
HETATM   20  H16 UNL     1      23.321  -0.506  51.951  1.00  0.00     0.161 HD
BRANCH  19  21
HETATM   21  C14 UNL     1      22.332   0.051  53.645  1.00  0.00     0.149 C 
BRANCH  21  22
HETATM   22  C15 UNL     1      21.606   1.232  53.058  1.00  0.00     0.010 C 
HETATM   23  C16 UNL     1      20.781   1.588  52.098  1.00  0.00     0.015 C 
HETATM   24 BR1  UNL     1      20.113   3.366  51.766  1.00  0.00    -0.053 Br
BRANCH  23  25
HETATM   25  C17 UNL     1      20.200   0.670  51.075  1.00  0.00     0.268 C 
HETATM   26  F1  UNL     1      21.162   0.267  50.154  1.00  0.00    -0.250 F 
ENDBRANCH  23  25
ENDBRANCH  21  22
ENDBRANCH  19  21
ENDBRANCH   6  19
TORSDOF 10
ENDMDL
MODEL 6
REMARK VINA RESULT:      -6.9      3.117      6.222
REMARK  10 active torsions:
REMARK  status: ('A' for Active; 'I' for Inactive)
REMARK    1  A    between atoms: C2_2  and  C3_3 
REMARK    2  A    between atoms: C3_3  and  C4_4 
REMARK    3  A    between atoms: C5_5  and  C6_6 
REMARK    4  A    between atoms: C6_6  and  N1_8 
REMARK    5  A    between atoms: C8_9  and  C9_10 
REMARK    6  A    between atoms: C10_11  and  C11_12 
REMARK    7  A    between atoms: C13_17  and  N5_18 
REMARK    8  A    between atoms: N5_18  and  C14_19 
REMARK    9  A    between atoms: C14_19  and  C15_20 
REMARK   10  A    between atoms: C16_21  and  C17_23 
ROOT
HETATM    1  C9  UNL     1      25.944   1.070  53.404  1.00  0.00     0.057 A 
HETATM    2  C10 UNL     1      26.168   0.090  54.378  1.00  0.00     0.090 A 
HETATM    3  N3  UNL     1      27.386  -0.080  54.907  1.00  0.00    -0.240 NA
HETATM    4  C12 UNL     1      28.401   0.698  54.499  1.00  0.00     0.236 A 
HETATM    5  N4  UNL     1      28.183   1.635  53.566  1.00  0.00    -0.224 NA
HETATM    6  C13 UNL     1      26.996   1.861  52.995  1.00  0.00     0.139 A 
ENDROOT
BRANCH   1   7
HETATM    7  C8  UNL     1      24.597   1.257  52.819  1.00  0.00     0.129 C 
HETATM    8  N1  UNL     1      23.792   2.224  52.814  1.00  0.00    -0.283 NA
BRANCH   8   9
HETATM    9  C6  UNL     1      22.517   2.208  52.181  1.00  0.00     0.182 C 
HETATM   10  C7  UNL     1      21.872   3.571  52.334  1.00  0.00     0.048 C 
BRANCH   9  11
HETATM   11  C5  UNL     1      21.655   1.154  52.723  1.00  0.00    -0.080 C 
HETATM   12  C4  UNL     1      20.938   0.300  53.182  1.00  0.00    -0.104 C 
BRANCH  12  13
HETATM   13  C3  UNL     1      20.063  -0.742  53.720  1.00  0.00     0.093 C 
BRANCH  13  14
HETATM   14  C2  UNL     1      18.772  -0.832  52.916  1.00  0.00     0.007 C 
HETATM   15  C1  UNL     1      17.867  -1.898  53.492  1.00  0.00     0.006 C 
ENDBRANCH  13  14
ENDBRANCH  12  13
ENDBRANCH   9  11
ENDBRANCH   8   9
ENDBRANCH   1   7
BRANCH   2  16
HETATM   16  C11 UNL     1      25.090  -0.765  54.837  1.00  0.00     0.139 C 
HETATM   17  N2  UNL     1      24.704  -1.502  55.823  1.00  0.00    -0.310 NA
HETATM   18  H14 UNL     1      25.384  -1.538  56.632  1.00  0.00     0.186 HD
ENDBRANCH   2  16
BRANCH   6  19
HETATM   19  N5  UNL     1      26.877   2.880  52.017  1.00  0.00    -0.370 N 
HETATM   20  H16 UNL     1      26.907   3.894  52.095  1.00  0.00     0.161 HD
BRANCH  19  21
HETATM   21  C14 UNL     1      26.674   2.488  50.637  1.00  0.00     0.149 C 
BRANCH  21  22
HETATM   22  C15 UNL     1      25.737   3.490  50.016  1.00  0.00     0.010 C 
HETATM   23  C16 UNL     1      25.701   4.605  49.320  1.00  0.00     0.015 C 
HETATM   24 BR1  UNL     1      24.117   5.542  48.743  1.00  0.00    -0.053 Br
BRANCH  23  25
HETATM   25  C17 UNL     1      26.895   5.362  48.840  1.00  0.00     0.268 C 
HETATM   26  F1  UNL     1      27.868   4.503  48.339  1.00  0.00    -0.250 F 
ENDBRANCH  23  25
ENDBRANCH  21  22
ENDBRANCH  19  21
ENDBRANCH   6  19
TORSDOF 10
ENDMDL
MODEL 7
REMARK VINA RESULT:      -6.7      2.273      3.176
REMARK  10 active torsions:
REMARK  status: ('A' for Active; 'I' for Inactive)
REMARK    1  A    between atoms: C2_2  and  C3_3 
REMARK    2  A    between atoms: C3_3  and  C4_4 
REMARK    3  A    between atoms: C5_5  and  C6_6 
REMARK    4  A    between atoms: C6_6  and  N1_8 
REMARK    5  A    between atoms: C8_9  and  C9_10 
REMARK    6  A    between atoms: C10_11  and  C11_12 
REMARK    7  A    between atoms: C13_17  and  N5_18 
REMARK    8  A    between atoms: N5_18  and  C14_19 
REMARK    9  A    between atoms: C14_19  and  C15_20 
REMARK   10  A    between atoms: C16_21  and  C17_23 
ROOT
HETATM    1  C9  UNL     1      23.107   2.945  52.248  1.00  0.00     0.057 A 
HETATM    2  C10 UNL     1      21.827   2.380  52.298  1.00  0.00     0.090 A 
HETATM    3  N3  UNL     1      21.637   1.168  52.833  1.00  0.00    -0.240 NA
HETATM    4  C12 UNL     1      22.685   0.488  53.327  1.00  0.00     0.236 A 
HETATM    5  N4  UNL     1      23.908   1.033  53.278  1.00  0.00    -0.224 NA
HETATM    6  C13 UNL     1      24.173   2.235  52.759  1.00  0.00     0.139 A 
ENDROOT
BRANCH   1   7
HETATM    7  C8  UNL     1      23.317   4.285  51.656  1.00  0.00     0.129 C 
HETATM    8  N1  UNL     1      23.805   5.354  52.107  1.00  0.00    -0.283 NA
BRANCH   8   9
HETATM    9  C6  UNL     1      23.922   6.563  51.364  1.00  0.00     0.182 C 
HETATM   10  C7  UNL     1      22.578   6.900  50.751  1.00  0.00     0.048 C 
BRANCH   9  11
HETATM   11  C5  UNL     1      24.962   6.469  50.336  1.00  0.00    -0.080 C 
HETATM   12  C4  UNL     1      25.803   6.400  49.475  1.00  0.00    -0.104 C 
BRANCH  12  13
HETATM   13  C3  UNL     1      26.838   6.324  48.443  1.00  0.00     0.093 C 
BRANCH  13  14
HETATM   14  C2  UNL     1      27.672   5.059  48.606  1.00  0.00     0.007 C 
HETATM   15  C1  UNL     1      29.114   5.328  48.237  1.00  0.00     0.006 C 
ENDBRANCH  13  14
ENDBRANCH  12  13
ENDBRANCH   9  11
ENDBRANCH   8   9
ENDBRANCH   1   7
BRANCH   2  16
HETATM   16  C11 UNL     1      20.679   3.092  51.772  1.00  0.00     0.139 C 
HETATM   17  N2  UNL     1      19.530   3.582  52.095  1.00  0.00    -0.310 NA
HETATM   18  H14 UNL     1      19.269   3.447  53.112  1.00  0.00     0.186 HD
ENDBRANCH   2  16
BRANCH   6  19
HETATM   19  N5  UNL     1      25.507   2.715  52.759  1.00  0.00    -0.370 N 
HETATM   20  H16 UNL     1      25.992   3.355  53.383  1.00  0.00     0.161 HD
BRANCH  19  21
HETATM   21  C14 UNL     1      26.401   2.259  51.713  1.00  0.00     0.149 C 
BRANCH  21  22
HETATM   22  C15 UNL     1      27.241   1.151  52.289  1.00  0.00     0.010 C 
HETATM   23  C16 UNL     1      28.188   0.896  53.166  1.00  0.00     0.015 C 
HETATM   24 BR1  UNL     1      28.966  -0.828  53.538  1.00  0.00    -0.053 Br
BRANCH  23  25
HETATM   25  C17 UNL     1      28.843   1.907  54.047  1.00  0.00     0.268 C 
HETATM   26  F1  UNL     1      29.099   3.088  53.356  1.00  0.00    -0.250 F 
ENDBRANCH  23  25
ENDBRANCH  21  22
ENDBRANCH  19  21
ENDBRANCH   6  19
TORSDOF 10
ENDMDL
MODEL 8
REMARK VINA RESULT:      -6.4      3.387      6.295
REMARK  10 active torsions:
REMARK  status: ('A' for Active; 'I' for Inactive)
REMARK    1  A    between atoms: C2_2  and  C3_3 
REMARK    2  A    between atoms: C3_3  and  C4_4 
REMARK    3  A    between atoms: C5_5  and  C6_6 
REMARK    4  A    between atoms: C6_6  and  N1_8 
REMARK    5  A    between atoms: C8_9  and  C9_10 
REMARK    6  A    between atoms: C10_11  and  C11_12 
REMARK    7  A    between atoms: C13_17  and  N5_18 
REMARK    8  A    between atoms: N5_18  and  C14_19 
REMARK    9  A    between atoms: C14_19  and  C15_20 
REMARK   10  A    between atoms: C16_21  and  C17_23 
ROOT
HETATM    1  C9  UNL     1      23.264   4.175  51.516  1.00  0.00     0.057 A 
HETATM    2  C10 UNL     1      21.927   4.547  51.696  1.00  0.00     0.090 A 
HETATM    3  N3  UNL     1      21.479   5.723  51.241  1.00  0.00    -0.240 NA
HETATM    4  C12 UNL     1      22.321   6.555  50.607  1.00  0.00     0.236 A 
HETATM    5  N4  UNL     1      23.601   6.196  50.437  1.00  0.00    -0.224 NA
HETATM    6  C13 UNL     1      24.118   5.040  50.863  1.00  0.00     0.139 A 
ENDROOT
BRANCH   1   7
HETATM    7  C8  UNL     1      23.760   2.874  52.019  1.00  0.00     0.129 C 
HETATM    8  N1  UNL     1      24.134   1.820  51.444  1.00  0.00    -0.283 NA
BRANCH   8   9
HETATM    9  C6  UNL     1      24.585   0.651  52.118  1.00  0.00     0.182 C 
HETATM   10  C7  UNL     1      23.663   0.365  53.286  1.00  0.00     0.048 C 
BRANCH   9  11
HETATM   11  C5  UNL     1      25.975   0.784  52.565  1.00  0.00    -0.080 C 
HETATM   12  C4  UNL     1      27.116   0.875  52.943  1.00  0.00    -0.104 C 
BRANCH  12  13
HETATM   13  C3  UNL     1      28.506   0.991  53.384  1.00  0.00     0.093 C 
BRANCH  13  14
HETATM   14  C2  UNL     1      28.881  -0.168  54.300  1.00  0.00     0.007 C 
HETATM   15  C1  UNL     1      29.982  -0.997  53.677  1.00  0.00     0.006 C 
ENDBRANCH  13  14
ENDBRANCH  12  13
ENDBRANCH   9  11
ENDBRANCH   8   9
ENDBRANCH   1   7
BRANCH   2  16
HETATM   16  C11 UNL     1      20.995   3.668  52.377  1.00  0.00     0.139 C 
HETATM   17  N2  UNL     1      19.767   3.274  52.388  1.00  0.00    -0.310 NA
HETATM   18  H14 UNL     1      19.158   3.722  51.647  1.00  0.00     0.186 HD
ENDBRANCH   2  16
BRANCH   6  19
HETATM   19  N5  UNL     1      25.487   4.761  50.630  1.00  0.00    -0.370 N 
HETATM   20  H16 UNL     1      26.319   4.971  51.176  1.00  0.00     0.161 HD
BRANCH  19  21
HETATM   21  C14 UNL     1      25.848   4.054  49.417  1.00  0.00     0.149 C 
BRANCH  21  22
HETATM   22  C15 UNL     1      27.201   4.554  48.988  1.00  0.00     0.010 C 
HETATM   23  C16 UNL     1      27.840   5.618  48.553  1.00  0.00     0.015 C 
HETATM   24 BR1  UNL     1      29.716   5.730  48.122  1.00  0.00    -0.053 Br
BRANCH  23  25
HETATM   25  C17 UNL     1      27.222   6.956  48.308  1.00  0.00     0.268 C 
HETATM   26  F1  UNL     1      27.865   7.950  49.039  1.00  0.00    -0.250 F 
ENDBRANCH  23  25
ENDBRANCH  21  22
ENDBRANCH  19  21
ENDBRANCH   6  19
TORSDOF 10
ENDMDL
MODEL 9
REMARK VINA RESULT:      -6.4      2.127      6.054
REMARK  10 active torsions:
REMARK  status: ('A' for Active; 'I' for Inactive)
REMARK    1  A    between atoms: C2_2  and  C3_3 
REMARK    2  A    between atoms: C3_3  and  C4_4 
REMARK    3  A    between atoms: C5_5  and  C6_6 
REMARK    4  A    between atoms: C6_6  and  N1_8 
REMARK    5  A    between atoms: C8_9  and  C9_10 
REMARK    6  A    between atoms: C10_11  and  C11_12 
REMARK    7  A    between atoms: C13_17  and  N5_18 
REMARK    8  A    between atoms: N5_18  and  C14_19 
REMARK    9  A    between atoms: C14_19  and  C15_20 
REMARK   10  A    between atoms: C16_21  and  C17_23 
ROOT
HETATM    1  C9  UNL     1      23.491   2.532  50.699  1.00  0.00     0.057 A 
HETATM    2  C10 UNL     1      22.782   2.892  49.547  1.00  0.00     0.090 A 
HETATM    3  N3  UNL     1      23.259   3.828  48.718  1.00  0.00    -0.240 NA
HETATM    4  C12 UNL     1      24.428   4.428  48.994  1.00  0.00     0.236 A 
HETATM    5  N4  UNL     1      25.103   4.081  50.098  1.00  0.00    -0.224 NA
HETATM    6  C13 UNL     1      24.691   3.157  50.970  1.00  0.00     0.139 A 
ENDROOT
BRANCH   1   7
HETATM    7  C8  UNL     1      22.965   1.497  51.616  1.00  0.00     0.129 C 
HETATM    8  N1  UNL     1      22.661   1.508  52.837  1.00  0.00    -0.283 NA
BRANCH   8   9
HETATM    9  C6  UNL     1      22.159   0.385  53.554  1.00  0.00     0.182 C 
HETATM   10  C7  UNL     1      23.136  -0.765  53.418  1.00  0.00     0.048 C 
BRANCH   9  11
HETATM   11  C5  UNL     1      20.823  -0.000  53.093  1.00  0.00    -0.080 C 
HETATM   12  C4  UNL     1      19.716  -0.298  52.718  1.00  0.00    -0.104 C 
BRANCH  12  13
HETATM   13  C3  UNL     1      18.381  -0.668  52.248  1.00  0.00     0.093 C 
BRANCH  13  14
HETATM   14  C2  UNL     1      17.542  -1.229  53.390  1.00  0.00     0.007 C 
HETATM   15  C1  UNL     1      17.769  -2.718  53.528  1.00  0.00     0.006 C 
ENDBRANCH  13  14
ENDBRANCH  12  13
ENDBRANCH   9  11
ENDBRANCH   8   9
ENDBRANCH   1   7
BRANCH   2  16
HETATM   16  C11 UNL     1      21.517   2.260  49.224  1.00  0.00     0.139 C 
HETATM   17  N2  UNL     1      20.990   1.166  48.789  1.00  0.00    -0.310 NA
HETATM   18  H14 UNL     1      21.689   0.404  48.566  1.00  0.00     0.186 HD
ENDBRANCH   2  16
BRANCH   6  19
HETATM   19  N5  UNL     1      25.486   2.867  52.107  1.00  0.00    -0.370 N 
HETATM   20  H16 UNL     1      25.292   2.950  53.102  1.00  0.00     0.161 HD
BRANCH  19  21
HETATM   21  C14 UNL     1      26.827   2.359  51.897  1.00  0.00     0.149 C 
BRANCH  21  22
HETATM   22  C15 UNL     1      26.771   0.863  52.046  1.00  0.00     0.010 C 
HETATM   23  C16 UNL     1      27.304  -0.151  52.692  1.00  0.00     0.015 C 
HETATM   24 BR1  UNL     1      26.833  -2.010  52.493  1.00  0.00    -0.053 Br
BRANCH  23  25
HETATM   25  C17 UNL     1      28.388  -0.048  53.715  1.00  0.00     0.268 C 
HETATM   26  F1  UNL     1      29.464   0.692  53.236  1.00  0.00    -0.250 F 
ENDBRANCH  23  25
ENDBRANCH  21  22
ENDBRANCH  19  21
ENDBRANCH   6  19
TORSDOF 10
ENDMDL
