MODEL 1
REMARK VINA RESULT:      -9.9      0.000      0.000
REMARK  0 active torsions:
REMARK  status: ('A' for Active; 'I' for Inactive)
ROOT
HETATM    1  F1  UNL     1      22.802   0.081  52.507  1.00  0.00    -0.364 F 
HETATM    2  C1  UNL     1      21.765  -0.615  52.937  1.00  0.00     0.203 A 
HETATM    3  C2  UNL     1      21.604   0.118  51.810  1.00  0.00     0.210 A 
HETATM    4  C3  UNL     1      20.667   0.504  50.758  1.00  0.00     0.008 C 
HETATM    5  C4  UNL     1      20.410   1.215  49.622  1.00  0.00    -0.019 C 
HETATM    6  C5  UNL     1      21.607   2.013  49.167  1.00  0.00     0.065 C 
HETATM    7  C6  UNL     1      21.448   2.403  47.712  1.00  0.00     0.180 C 
HETATM    8  O1  UNL     1      20.546   3.428  47.512  1.00  0.00    -0.362 OA
HETATM    9  C7  UNL     1      21.036   4.528  48.211  1.00  0.00     0.438 C 
HETATM   10  N1  UNL     1      20.853   4.273  49.633  1.00  0.00     0.111 N 
HETATM   11  C8  UNL     1      21.772   3.192  50.064  1.00  0.00     0.234 C 
HETATM   12  C9  UNL     1      23.171   3.662  50.088  1.00  0.00     0.063 C 
HETATM   13  C10 UNL     1      24.086   3.218  51.154  1.00  0.00     0.179 C 
HETATM   14  O2  UNL     1      24.427   1.894  51.240  1.00  0.00    -0.335 OA
HETATM   15  C11 UNL     1      25.271   1.369  52.192  1.00  0.00     0.151 A 
HETATM   16  C12 UNL     1      26.573   1.871  52.018  1.00  0.00     0.073 A 
HETATM   17  C13 UNL     1      27.412   1.334  52.978  1.00  0.00     0.032 A 
HETATM   18  C14 UNL     1      28.775   1.492  53.246  1.00  0.00     0.133 A 
HETATM   19  N2  UNL     1      29.342   0.813  54.283  1.00  0.00    -0.253 NA
HETATM   20  C15 UNL     1      28.559   0.006  55.018  1.00  0.00     0.234 A 
HETATM   21  N3  UNL     1      27.271  -0.108  54.723  1.00  0.00    -0.223 NA
HETATM   22  C16 UNL     1      26.613   0.510  53.730  1.00  0.00     0.149 A 
HETATM   23  N4  UNL     1      25.328   0.539  53.249  1.00  0.00    -0.285 N 
HETATM   24  C17 UNL     1      24.404  -0.298  53.948  1.00  0.00     0.124 C 
HETATM   25  C18 UNL     1      23.121  -0.502  53.529  1.00  0.00     0.069 A 
HETATM   26 CL1  UNL     1      22.093  -1.590  54.529  1.00  0.00    -0.133 Cl
HETATM   27  H9  UNL     1      21.168   5.127  50.133  1.00  0.00     0.319 HD
ENDROOT
TORSDOF 0
ENDMDL
MODEL 2
REMARK VINA RESULT:      -9.4      2.595      6.841
REMARK  0 active torsions:
REMARK  status: ('A' for Active; 'I' for Inactive)
ROOT
HETATM    1  F1  UNL     1      22.934   1.735  51.005  1.00  0.00    -0.364 F 
HETATM    2  C1  UNL     1      21.931   0.883  51.123  1.00  0.00     0.203 A 
HETATM    3  C2  UNL     1      22.991   0.722  51.951  1.00  0.00     0.210 A 
HETATM    4  C3  UNL     1      23.550  -0.082  53.035  1.00  0.00     0.008 C 
HETATM    5  C4  UNL     1      24.573  -0.326  53.904  1.00  0.00    -0.019 C 
HETATM    6  C5  UNL     1      25.710   0.651  53.733  1.00  0.00     0.065 C 
HETATM    7  C6  UNL     1      26.586   0.649  54.969  1.00  0.00     0.180 C 
HETATM    8  O1  UNL     1      27.402  -0.458  55.064  1.00  0.00    -0.362 OA
HETATM    9  C7  UNL     1      28.226  -0.441  53.941  1.00  0.00     0.438 C 
HETATM   10  N1  UNL     1      27.414  -0.794  52.785  1.00  0.00     0.111 N 
HETATM   11  C8  UNL     1      26.463   0.305  52.493  1.00  0.00     0.234 C 
HETATM   12  C9  UNL     1      27.163   1.481  51.939  1.00  0.00     0.063 C 
HETATM   13  C10 UNL     1      26.541   2.279  50.868  1.00  0.00     0.179 C 
HETATM   14  O2  UNL     1      25.384   2.966  51.125  1.00  0.00    -0.335 OA
HETATM   15  C11 UNL     1      24.719   3.741  50.203  1.00  0.00     0.151 A 
HETATM   16  C12 UNL     1      25.504   4.851  49.843  1.00  0.00     0.073 A 
HETATM   17  C13 UNL     1      24.823   5.624  48.919  1.00  0.00     0.032 A 
HETATM   18  C14 UNL     1      25.141   6.812  48.254  1.00  0.00     0.133 A 
HETATM   19  N2  UNL     1      24.248   7.355  47.379  1.00  0.00    -0.253 NA
HETATM   20  C15 UNL     1      23.080   6.720  47.187  1.00  0.00     0.234 A 
HETATM   21  N3  UNL     1      22.827   5.594  47.842  1.00  0.00    -0.223 NA
HETATM   22  C16 UNL     1      23.630   4.975  48.721  1.00  0.00     0.149 A 
HETATM   23  N4  UNL     1      23.578   3.845  49.498  1.00  0.00    -0.285 N 
HETATM   24  C17 UNL     1      22.368   3.092  49.385  1.00  0.00     0.124 C 
HETATM   25  C18 UNL     1      22.083   2.020  50.181  1.00  0.00     0.069 A 
HETATM   26 CL1  UNL     1      20.511   1.188  49.906  1.00  0.00    -0.133 Cl
HETATM   27  H9  UNL     1      28.057  -0.834  51.970  1.00  0.00     0.319 HD
ENDROOT
TORSDOF 0
ENDMDL
MODEL 3
REMARK VINA RESULT:      -9.2      2.274      6.863
REMARK  0 active torsions:
REMARK  status: ('A' for Active; 'I' for Inactive)
ROOT
HETATM    1  F1  UNL     1      21.752   0.564  53.214  1.00  0.00    -0.364 F 
HETATM    2  C1  UNL     1      21.102  -0.453  53.752  1.00  0.00     0.203 A 
HETATM    3  C2  UNL     1      22.435  -0.374  53.975  1.00  0.00     0.210 A 
HETATM    4  C3  UNL     1      23.577  -1.005  54.630  1.00  0.00     0.008 C 
HETATM    5  C4  UNL     1      24.914  -1.011  54.903  1.00  0.00    -0.019 C 
HETATM    6  C5  UNL     1      25.632   0.151  54.261  1.00  0.00     0.065 C 
HETATM    7  C6  UNL     1      26.969   0.372  54.937  1.00  0.00     0.180 C 
HETATM    8  O1  UNL     1      27.925  -0.558  54.586  1.00  0.00    -0.362 OA
HETATM    9  C7  UNL     1      28.103  -0.442  53.210  1.00  0.00     0.438 C 
HETATM   10  N1  UNL     1      26.926  -0.996  52.557  1.00  0.00     0.111 N 
HETATM   11  C8  UNL     1      25.762  -0.109  52.798  1.00  0.00     0.234 C 
HETATM   12  C9  UNL     1      25.885   1.148  52.034  1.00  0.00     0.063 C 
HETATM   13  C10 UNL     1      24.695   1.762  51.420  1.00  0.00     0.179 C 
HETATM   14  O2  UNL     1      23.690   2.234  52.222  1.00  0.00    -0.335 OA
HETATM   15  C11 UNL     1      22.538   2.825  51.758  1.00  0.00     0.151 A 
HETATM   16  C12 UNL     1      22.837   4.044  51.122  1.00  0.00     0.073 A 
HETATM   17  C13 UNL     1      21.671   4.629  50.663  1.00  0.00     0.032 A 
HETATM   18  C14 UNL     1      21.410   5.822  49.982  1.00  0.00     0.133 A 
HETATM   19  N2  UNL     1      20.126   6.146  49.657  1.00  0.00    -0.253 NA
HETATM   20  C15 UNL     1      19.147   5.296  50.009  1.00  0.00     0.234 A 
HETATM   21  N3  UNL     1      19.448   4.176  50.654  1.00  0.00    -0.223 NA
HETATM   22  C16 UNL     1      20.671   3.761  51.022  1.00  0.00     0.149 A 
HETATM   23  N4  UNL     1      21.202   2.681  51.679  1.00  0.00    -0.285 N 
HETATM   24  C17 UNL     1      20.247   1.711  52.116  1.00  0.00     0.124 C 
HETATM   25  C18 UNL     1      20.576   0.645  52.902  1.00  0.00     0.069 A 
HETATM   26 CL1  UNL     1      19.247  -0.478  53.363  1.00  0.00    -0.133 Cl
HETATM   27  H9  UNL     1      27.104  -0.956  51.535  1.00  0.00     0.319 HD
ENDROOT
TORSDOF 0
ENDMDL
MODEL 4
REMARK VINA RESULT:      -9.1      2.625      3.901
REMARK  0 active torsions:
REMARK  status: ('A' for Active; 'I' for Inactive)
ROOT
HETATM    1  F1  UNL     1      24.928   3.548  50.167  1.00  0.00    -0.364 F 
HETATM    2  C1  UNL     1      25.291   4.369  49.198  1.00  0.00     0.203 A 
HETATM    3  C2  UNL     1      23.965   4.213  49.422  1.00  0.00     0.210 A 
HETATM    4  C3  UNL     1      22.626   4.612  49.000  1.00  0.00     0.008 C 
HETATM    5  C4  UNL     1      21.273   4.513  49.148  1.00  0.00    -0.019 C 
HETATM    6  C5  UNL     1      20.889   3.556  50.249  1.00  0.00     0.065 C 
HETATM    7  C6  UNL     1      19.462   3.811  50.686  1.00  0.00     0.180 C 
HETATM    8  O1  UNL     1      18.520   3.341  49.794  1.00  0.00    -0.362 OA
HETATM    9  C7  UNL     1      18.713   1.965  49.704  1.00  0.00     0.438 C 
HETATM   10  N1  UNL     1      19.941   1.732  48.957  1.00  0.00     0.111 N 
HETATM   11  C8  UNL     1      21.104   2.159  49.772  1.00  0.00     0.234 C 
HETATM   12  C9  UNL     1      21.334   1.232  50.897  1.00  0.00     0.063 C 
HETATM   13  C10 UNL     1      22.707   0.885  51.305  1.00  0.00     0.179 C 
HETATM   14  O2  UNL     1      23.525   1.859  51.813  1.00  0.00    -0.335 OA
HETATM   15  C11 UNL     1      24.820   1.649  52.225  1.00  0.00     0.151 A 
HETATM   16  C12 UNL     1      24.843   0.802  53.348  1.00  0.00     0.073 A 
HETATM   17  C13 UNL     1      26.151   0.601  53.754  1.00  0.00     0.032 A 
HETATM   18  C14 UNL     1      26.720  -0.135  54.797  1.00  0.00     0.133 A 
HETATM   19  N2  UNL     1      28.073  -0.143  54.958  1.00  0.00    -0.253 NA
HETATM   20  C15 UNL     1      28.819   0.569  54.096  1.00  0.00     0.234 A 
HETATM   21  N3  UNL     1      28.230   1.250  53.122  1.00  0.00    -0.223 NA
HETATM   22  C16 UNL     1      26.913   1.326  52.874  1.00  0.00     0.149 A 
HETATM   23  N4  UNL     1      26.104   1.952  51.959  1.00  0.00    -0.285 N 
HETATM   24  C17 UNL     1      26.791   2.754  50.996  1.00  0.00     0.124 C 
HETATM   25  C18 UNL     1      26.145   3.556  50.099  1.00  0.00     0.069 A 
HETATM   26 CL1  UNL     1      27.167   4.501  48.958  1.00  0.00    -0.133 Cl
HETATM   27  H9  UNL     1      20.035   0.704  48.850  1.00  0.00     0.319 HD
ENDROOT
TORSDOF 0
ENDMDL
MODEL 5
REMARK VINA RESULT:      -9.0      3.208      7.395
REMARK  0 active torsions:
REMARK  status: ('A' for Active; 'I' for Inactive)
ROOT
HETATM    1  F1  UNL     1      22.830   1.671  51.438  1.00  0.00    -0.364 F 
HETATM    2  C1  UNL     1      23.097   2.726  50.689  1.00  0.00     0.203 A 
HETATM    3  C2  UNL     1      24.146   2.034  51.195  1.00  0.00     0.210 A 
HETATM    4  C3  UNL     1      25.602   1.955  51.268  1.00  0.00     0.008 C 
HETATM    5  C4  UNL     1      26.719   1.326  51.738  1.00  0.00    -0.019 C 
HETATM    6  C5  UNL     1      26.381   0.138  52.604  1.00  0.00     0.065 C 
HETATM    7  C6  UNL     1      27.582  -0.777  52.720  1.00  0.00     0.180 C 
HETATM    8  O1  UNL     1      28.561  -0.297  53.565  1.00  0.00    -0.362 OA
HETATM    9  C7  UNL     1      27.976  -0.178  54.823  1.00  0.00     0.438 C 
HETATM   10  N1  UNL     1      27.062   0.955  54.786  1.00  0.00     0.111 N 
HETATM   11  C8  UNL     1      25.899   0.626  53.928  1.00  0.00     0.234 C 
HETATM   12  C9  UNL     1      25.019  -0.364  54.582  1.00  0.00     0.063 C 
HETATM   13  C10 UNL     1      23.556  -0.258  54.450  1.00  0.00     0.179 C 
HETATM   14  O2  UNL     1      22.977  -0.412  53.219  1.00  0.00    -0.335 OA
HETATM   15  C11 UNL     1      21.624  -0.335  52.980  1.00  0.00     0.151 A 
HETATM   16  C12 UNL     1      20.955  -1.394  53.619  1.00  0.00     0.073 A 
HETATM   17  C13 UNL     1      19.597  -1.307  53.370  1.00  0.00     0.032 A 
HETATM   18  C14 UNL     1      18.507  -2.093  53.755  1.00  0.00     0.133 A 
HETATM   19  N2  UNL     1      17.253  -1.755  53.342  1.00  0.00    -0.253 NA
HETATM   20  C15 UNL     1      17.110  -0.664  52.570  1.00  0.00     0.234 A 
HETATM   21  N3  UNL     1      18.177   0.048  52.233  1.00  0.00    -0.223 NA
HETATM   22  C16 UNL     1      19.450  -0.193  52.582  1.00  0.00     0.149 A 
HETATM   23  N4  UNL     1      20.674   0.383  52.354  1.00  0.00    -0.285 N 
HETATM   24  C17 UNL     1      20.647   1.549  51.528  1.00  0.00     0.124 C 
HETATM   25  C18 UNL     1      21.777   2.173  51.083  1.00  0.00     0.069 A 
HETATM   26 CL1  UNL     1      21.559   3.629  50.048  1.00  0.00    -0.133 Cl
HETATM   27  H9  UNL     1      26.682   1.064  55.746  1.00  0.00     0.319 HD
ENDROOT
TORSDOF 0
ENDMDL
MODEL 6
REMARK VINA RESULT:      -8.9      1.163      1.370
REMARK  0 active torsions:
REMARK  status: ('A' for Active; 'I' for Inactive)
ROOT
HETATM    1  F1  UNL     1      22.390   0.868  51.394  1.00  0.00    -0.364 F 
HETATM    2  C1  UNL     1      21.238   0.261  51.621  1.00  0.00     0.203 A 
HETATM    3  C2  UNL     1      21.345   0.999  50.491  1.00  0.00     0.210 A 
HETATM    4  C3  UNL     1      20.651   1.455  49.290  1.00  0.00     0.008 C 
HETATM    5  C4  UNL     1      20.664   2.180  48.134  1.00  0.00    -0.019 C 
HETATM    6  C5  UNL     1      21.984   2.876  47.912  1.00  0.00     0.065 C 
HETATM    7  C6  UNL     1      22.125   3.271  46.458  1.00  0.00     0.180 C 
HETATM    8  O1  UNL     1      21.361   4.365  46.107  1.00  0.00    -0.362 OA
HETATM    9  C7  UNL     1      21.802   5.425  46.895  1.00  0.00     0.438 C 
HETATM   10  N1  UNL     1      21.343   5.192  48.257  1.00  0.00     0.111 N 
HETATM   11  C8  UNL     1      22.078   4.042  48.837  1.00  0.00     0.234 C 
HETATM   12  C9  UNL     1      23.482   4.397  49.121  1.00  0.00     0.063 C 
HETATM   13  C10 UNL     1      24.148   3.884  50.331  1.00  0.00     0.179 C 
HETATM   14  O2  UNL     1      24.359   2.537  50.464  1.00  0.00    -0.335 OA
HETATM   15  C11 UNL     1      24.970   1.950  51.548  1.00  0.00     0.151 A 
HETATM   16  C12 UNL     1      26.319   2.344  51.620  1.00  0.00     0.073 A 
HETATM   17  C13 UNL     1      26.922   1.744  52.711  1.00  0.00     0.032 A 
HETATM   18  C14 UNL     1      28.221   1.792  53.225  1.00  0.00     0.133 A 
HETATM   19  N2  UNL     1      28.533   1.074  54.340  1.00  0.00    -0.253 NA
HETATM   20  C15 UNL     1      27.566   0.337  54.912  1.00  0.00     0.234 A 
HETATM   21  N3  UNL     1      26.348   0.326  54.386  1.00  0.00    -0.223 NA
HETATM   22  C16 UNL     1      25.935   0.992  53.296  1.00  0.00     0.149 A 
HETATM   23  N4  UNL     1      24.766   1.122  52.589  1.00  0.00    -0.285 N 
HETATM   24  C17 UNL     1      23.666   0.367  53.100  1.00  0.00     0.124 C 
HETATM   25  C18 UNL     1      22.469   0.265  52.451  1.00  0.00     0.069 A 
HETATM   26 CL1  UNL     1      21.191  -0.731  53.235  1.00  0.00    -0.133 Cl
HETATM   27  H9  UNL     1      21.630   6.019  48.815  1.00  0.00     0.319 HD
ENDROOT
TORSDOF 0
ENDMDL
MODEL 7
REMARK VINA RESULT:      -8.9      2.816      7.642
REMARK  0 active torsions:
REMARK  status: ('A' for Active; 'I' for Inactive)
ROOT
HETATM    1  F1  UNL     1      23.509   2.973  50.016  1.00  0.00    -0.364 F 
HETATM    2  C1  UNL     1      24.180   3.956  49.440  1.00  0.00     0.203 A 
HETATM    3  C2  UNL     1      24.881   3.079  50.198  1.00  0.00     0.210 A 
HETATM    4  C3  UNL     1      26.205   2.725  50.700  1.00  0.00     0.008 C 
HETATM    5  C4  UNL     1      26.991   1.897  51.447  1.00  0.00    -0.019 C 
HETATM    6  C5  UNL     1      26.196   0.797  52.105  1.00  0.00     0.065 C 
HETATM    7  C6  UNL     1      27.117  -0.329  52.525  1.00  0.00     0.180 C 
HETATM    8  O1  UNL     1      27.863  -0.042  53.649  1.00  0.00    -0.362 OA
HETATM    9  C7  UNL     1      26.954   0.190  54.679  1.00  0.00     0.438 C 
HETATM   10  N1  UNL     1      26.317   1.476  54.432  1.00  0.00     0.111 N 
HETATM   11  C8  UNL     1      25.431   1.372  53.249  1.00  0.00     0.234 C 
HETATM   12  C9  UNL     1      24.229   0.570  53.554  1.00  0.00     0.063 C 
HETATM   13  C10 UNL     1      22.920   0.951  52.996  1.00  0.00     0.179 C 
HETATM   14  O2  UNL     1      22.726   0.906  51.641  1.00  0.00    -0.335 OA
HETATM   15  C11 UNL     1      21.548   1.238  51.013  1.00  0.00     0.151 A 
HETATM   16  C12 UNL     1      20.535   0.327  51.363  1.00  0.00     0.073 A 
HETATM   17  C13 UNL     1      19.357   0.670  50.723  1.00  0.00     0.032 A 
HETATM   18  C14 UNL     1      18.078   0.107  50.720  1.00  0.00     0.133 A 
HETATM   19  N2  UNL     1      17.092   0.676  49.970  1.00  0.00    -0.253 NA
HETATM   20  C15 UNL     1      17.392   1.772  49.252  1.00  0.00     0.234 A 
HETATM   21  N3  UNL     1      18.622   2.267  49.290  1.00  0.00    -0.223 NA
HETATM   22  C16 UNL     1      19.663   1.789  49.990  1.00  0.00     0.149 A 
HETATM   23  N4  UNL     1      20.981   2.122  50.171  1.00  0.00    -0.285 N 
HETATM   24  C17 UNL     1      21.419   3.270  49.441  1.00  0.00     0.124 C 
HETATM   25  C18 UNL     1      22.725   3.665  49.390  1.00  0.00     0.069 A 
HETATM   26 CL1  UNL     1      23.101   5.133  48.419  1.00  0.00    -0.133 Cl
HETATM   27  H9  UNL     1      25.690   1.658  55.239  1.00  0.00     0.319 HD
ENDROOT
TORSDOF 0
ENDMDL
MODEL 8
REMARK VINA RESULT:      -8.9      2.775      4.559
REMARK  0 active torsions:
REMARK  status: ('A' for Active; 'I' for Inactive)
ROOT
HETATM    1  F1  UNL     1      24.681   2.666  51.000  1.00  0.00    -0.364 F 
HETATM    2  C1  UNL     1      25.874   3.208  50.836  1.00  0.00     0.203 A 
HETATM    3  C2  UNL     1      24.862   3.677  50.068  1.00  0.00     0.210 A 
HETATM    4  C3  UNL     1      24.496   4.631  49.025  1.00  0.00     0.008 C 
HETATM    5  C4  UNL     1      23.542   5.161  48.206  1.00  0.00    -0.019 C 
HETATM    6  C5  UNL     1      22.195   4.510  48.403  1.00  0.00     0.065 C 
HETATM    7  C6  UNL     1      21.103   5.397  47.844  1.00  0.00     0.180 C 
HETATM    8  O1  UNL     1      21.033   5.384  46.467  1.00  0.00    -0.362 OA
HETATM    9  C7  UNL     1      20.764   4.069  46.096  1.00  0.00     0.438 C 
HETATM   10  N1  UNL     1      21.971   3.285  46.319  1.00  0.00     0.111 N 
HETATM   11  C8  UNL     1      22.216   3.157  47.776  1.00  0.00     0.234 C 
HETATM   12  C9  UNL     1      21.231   2.255  48.403  1.00  0.00     0.063 C 
HETATM   13  C10 UNL     1      21.645   1.333  49.475  1.00  0.00     0.179 C 
HETATM   14  O2  UNL     1      22.084   1.841  50.668  1.00  0.00    -0.335 OA
HETATM   15  C11 UNL     1      22.494   1.075  51.736  1.00  0.00     0.151 A 
HETATM   16  C12 UNL     1      21.412   0.338  52.251  1.00  0.00     0.073 A 
HETATM   17  C13 UNL     1      21.836  -0.424  53.324  1.00  0.00     0.032 A 
HETATM   18  C14 UNL     1      21.176  -1.313  54.179  1.00  0.00     0.133 A 
HETATM   19  N2  UNL     1      21.870  -1.930  55.176  1.00  0.00    -0.253 NA
HETATM   20  C15 UNL     1      23.180  -1.657  55.303  1.00  0.00     0.234 A 
HETATM   21  N3  UNL     1      23.759  -0.806  54.465  1.00  0.00    -0.223 NA
HETATM   22  C16 UNL     1      23.173  -0.147  53.453  1.00  0.00     0.149 A 
HETATM   23  N4  UNL     1      23.559   0.756  52.494  1.00  0.00    -0.285 N 
HETATM   24  C17 UNL     1      24.936   1.133  52.541  1.00  0.00     0.124 C 
HETATM   25  C18 UNL     1      25.464   2.119  51.757  1.00  0.00     0.069 A 
HETATM   26 CL1  UNL     1      27.220   2.468  51.947  1.00  0.00    -0.133 Cl
HETATM   27  H9  UNL     1      21.770   2.324  45.982  1.00  0.00     0.319 HD
ENDROOT
TORSDOF 0
ENDMDL
MODEL 9
REMARK VINA RESULT:      -8.7      2.570      3.350
REMARK  0 active torsions:
REMARK  status: ('A' for Active; 'I' for Inactive)
ROOT
HETATM    1  F1  UNL     1      21.230  -0.099  52.968  1.00  0.00    -0.364 F 
HETATM    2  C1  UNL     1      20.785  -1.029  53.794  1.00  0.00     0.203 A 
HETATM    3  C2  UNL     1      19.894  -0.474  52.939  1.00  0.00     0.210 A 
HETATM    4  C3  UNL     1      18.502  -0.470  52.498  1.00  0.00     0.008 C 
HETATM    5  C4  UNL     1      17.534   0.036  51.680  1.00  0.00    -0.019 C 
HETATM    6  C5  UNL     1      18.068   1.108  50.762  1.00  0.00     0.065 C 
HETATM    7  C6  UNL     1      17.123   1.309  49.595  1.00  0.00     0.180 C 
HETATM    8  O1  UNL     1      15.979   2.004  49.927  1.00  0.00    -0.362 OA
HETATM    9  C7  UNL     1      16.392   3.255  50.379  1.00  0.00     0.438 C 
HETATM   10  N1  UNL     1      16.998   3.078  51.691  1.00  0.00     0.111 N 
HETATM   11  C8  UNL     1      18.284   2.356  51.549  1.00  0.00     0.234 C 
HETATM   12  C9  UNL     1      19.312   3.215  50.930  1.00  0.00     0.063 C 
HETATM   13  C10 UNL     1      20.710   3.150  51.389  1.00  0.00     0.179 C 
HETATM   14  O2  UNL     1      21.426   1.997  51.207  1.00  0.00    -0.335 OA
HETATM   15  C11 UNL     1      22.735   1.825  51.595  1.00  0.00     0.151 A 
HETATM   16  C12 UNL     1      23.579   2.670  50.851  1.00  0.00     0.073 A 
HETATM   17  C13 UNL     1      24.891   2.486  51.248  1.00  0.00     0.032 A 
HETATM   18  C14 UNL     1      26.098   3.058  50.837  1.00  0.00     0.133 A 
HETATM   19  N2  UNL     1      27.265   2.666  51.422  1.00  0.00    -0.253 NA
HETATM   20  C15 UNL     1      27.210   1.730  52.384  1.00  0.00     0.234 A 
HETATM   21  N3  UNL     1      26.038   1.218  52.738  1.00  0.00    -0.223 NA
HETATM   22  C16 UNL     1      24.836   1.531  52.232  1.00  0.00     0.149 A 
HETATM   23  N4  UNL     1      23.536   1.140  52.432  1.00  0.00    -0.285 N 
HETATM   24  C17 UNL     1      23.356   0.132  53.429  1.00  0.00     0.124 C 
HETATM   25  C18 UNL     1      22.156  -0.474  53.666  1.00  0.00     0.069 A 
HETATM   26 CL1  UNL     1      22.109  -1.727  54.958  1.00  0.00    -0.133 Cl
HETATM   27  H9  UNL     1      17.244   4.026  52.036  1.00  0.00     0.319 HD
ENDROOT
TORSDOF 0
ENDMDL
