MODEL 1
REMARK VINA RESULT:      -8.3      0.000      0.000
REMARK  2 active torsions:
REMARK  status: ('A' for Active; 'I' for Inactive)
REMARK    1  A    between atoms: C6_6  and  N1_7 
REMARK    2  A    between atoms: C15_19  and  O1_20 
ROOT
HETATM    1  C1  UNL     1      23.816   3.251  49.419  1.00  0.00     0.018 C 
HETATM    2  C2  UNL     1      23.450   2.575  50.348  1.00  0.00    -0.075 C 
HETATM    3  C3  UNL     1      22.996   1.787  51.460  1.00  0.00     0.051 A 
HETATM    4  C4  UNL     1      23.867   1.007  52.193  1.00  0.00     0.041 A 
HETATM    5  C5  UNL     1      23.352   0.281  53.244  1.00  0.00     0.040 A 
HETATM    6  C6  UNL     1      24.307  -0.457  53.908  1.00  0.00     0.143 A 
HETATM    7  N2  UNL     1      23.888  -1.201  54.965  1.00  0.00    -0.223 NA
HETATM    8  C12 UNL     1      22.593  -1.226  55.358  1.00  0.00     0.236 A 
HETATM    9  N3  UNL     1      21.671  -0.488  54.683  1.00  0.00    -0.241 NA
HETATM   10  C13 UNL     1      22.035   0.254  53.643  1.00  0.00     0.075 A 
HETATM   11  C14 UNL     1      21.175   1.043  52.897  1.00  0.00     0.071 A 
HETATM   12  C15 UNL     1      21.643   1.802  51.818  1.00  0.00     0.089 A 
ENDROOT
BRANCH  12  13
HETATM   13  O1  UNL     1      20.793   2.582  51.077  1.00  0.00    -0.354 OA
HETATM   14  C16 UNL     1      20.042   3.657  51.608  1.00  0.00     0.210 C 
ENDBRANCH  12  13
BRANCH   6  15
HETATM   15  N1  UNL     1      25.698  -0.620  53.681  1.00  0.00    -0.338 N 
HETATM   16  C7  UNL     1      26.416   0.169  54.627  1.00  0.00     0.094 A 
HETATM   17  C8  UNL     1      27.753   0.244  54.681  1.00  0.00     0.041 A 
HETATM   18  C9  UNL     1      28.565  -0.517  53.727  1.00  0.00     0.033 A 
HETATM   19 CL1  UNL     1      30.315  -0.507  53.687  1.00  0.00    -0.085 Cl
HETATM   20  C10 UNL     1      27.861  -1.247  52.856  1.00  0.00     0.017 A 
HETATM   21  C11 UNL     1      26.409  -1.401  52.712  1.00  0.00     0.159 A 
ENDBRANCH   6  15
TORSDOF 2
ENDMDL
MODEL 2
REMARK VINA RESULT:      -7.8      3.685      5.849
REMARK  2 active torsions:
REMARK  status: ('A' for Active; 'I' for Inactive)
REMARK    1  A    between atoms: C6_6  and  N1_7 
REMARK    2  A    between atoms: C15_19  and  O1_20 
ROOT
HETATM    1  C1  UNL     1      26.433   3.029  50.051  1.00  0.00     0.018 C 
HETATM    2  C2  UNL     1      26.180   2.320  50.993  1.00  0.00    -0.075 C 
HETATM    3  C3  UNL     1      25.903   1.467  52.114  1.00  0.00     0.051 A 
HETATM    4  C4  UNL     1      24.641   0.956  52.336  1.00  0.00     0.041 A 
HETATM    5  C5  UNL     1      24.457   0.145  53.434  1.00  0.00     0.040 A 
HETATM    6  C6  UNL     1      23.164  -0.312  53.557  1.00  0.00     0.143 A 
HETATM    7  N2  UNL     1      22.893  -1.125  54.610  1.00  0.00    -0.223 NA
HETATM    8  C12 UNL     1      23.842  -1.478  55.509  1.00  0.00     0.236 A 
HETATM    9  N3  UNL     1      25.113  -1.011  55.363  1.00  0.00    -0.241 NA
HETATM   10  C13 UNL     1      25.423  -0.213  54.348  1.00  0.00     0.075 A 
HETATM   11  C14 UNL     1      26.684   0.308  54.110  1.00  0.00     0.071 A 
HETATM   12  C15 UNL     1      26.928   1.138  53.010  1.00  0.00     0.089 A 
ENDROOT
BRANCH  12  13
HETATM   13  O1  UNL     1      28.175   1.655  52.773  1.00  0.00    -0.354 OA
HETATM   14  C16 UNL     1      28.870   2.489  53.681  1.00  0.00     0.210 C 
ENDBRANCH  12  13
BRANCH   6  15
HETATM   15  N1  UNL     1      22.001  -0.071  52.780  1.00  0.00    -0.338 N 
HETATM   16  C7  UNL     1      20.854  -0.459  53.532  1.00  0.00     0.094 A 
HETATM   17  C8  UNL     1      19.595  -0.366  53.083  1.00  0.00     0.041 A 
HETATM   18  C9  UNL     1      19.338   0.162  51.740  1.00  0.00     0.033 A 
HETATM   19 CL1  UNL     1      17.746   0.334  51.032  1.00  0.00    -0.085 Cl
HETATM   20  C10 UNL     1      20.434   0.517  51.062  1.00  0.00     0.017 A 
HETATM   21  C11 UNL     1      21.846   0.460  51.457  1.00  0.00     0.159 A 
ENDBRANCH   6  15
TORSDOF 2
ENDMDL
MODEL 3
REMARK VINA RESULT:      -7.8      2.276      3.360
REMARK  2 active torsions:
REMARK  status: ('A' for Active; 'I' for Inactive)
REMARK    1  A    between atoms: C6_6  and  N1_7 
REMARK    2  A    between atoms: C15_19  and  O1_20 
ROOT
HETATM    1  C1  UNL     1      27.599   5.090  48.607  1.00  0.00     0.018 C 
HETATM    2  C2  UNL     1      26.703   4.495  49.152  1.00  0.00    -0.075 C 
HETATM    3  C3  UNL     1      25.621   3.807  49.799  1.00  0.00     0.051 A 
HETATM    4  C4  UNL     1      25.851   2.862  50.777  1.00  0.00     0.041 A 
HETATM    5  C5  UNL     1      24.759   2.247  51.348  1.00  0.00     0.040 A 
HETATM    6  C6  UNL     1      25.102   1.326  52.314  1.00  0.00     0.143 A 
HETATM    7  N2  UNL     1      24.085   0.675  52.935  1.00  0.00    -0.223 NA
HETATM    8  C12 UNL     1      22.788   0.909  52.630  1.00  0.00     0.236 A 
HETATM    9  N3  UNL     1      22.477   1.824  51.671  1.00  0.00    -0.241 NA
HETATM   10  C13 UNL     1      23.439   2.485  51.036  1.00  0.00     0.075 A 
HETATM   11  C14 UNL     1      23.227   3.436  50.053  1.00  0.00     0.071 A 
HETATM   12  C15 UNL     1      24.299   4.093  49.438  1.00  0.00     0.089 A 
ENDROOT
BRANCH  12  13
HETATM   13  O1  UNL     1      24.091   5.034  48.464  1.00  0.00    -0.354 OA
HETATM   14  C16 UNL     1      23.125   6.064  48.553  1.00  0.00     0.210 C 
ENDBRANCH  12  13
BRANCH   6  15
HETATM   15  N1  UNL     1      26.364   0.886  52.790  1.00  0.00    -0.338 N 
HETATM   16  C7  UNL     1      26.543  -0.482  52.430  1.00  0.00     0.094 A 
HETATM   17  C8  UNL     1      27.630  -1.202  52.736  1.00  0.00     0.041 A 
HETATM   18  C9  UNL     1      28.727  -0.584  53.487  1.00  0.00     0.033 A 
HETATM   19 CL1  UNL     1      30.198  -1.411  53.952  1.00  0.00    -0.085 Cl
HETATM   20  C10 UNL     1      28.528   0.698  53.808  1.00  0.00     0.017 A 
HETATM   21  C11 UNL     1      27.386   1.575  53.523  1.00  0.00     0.159 A 
ENDBRANCH   6  15
TORSDOF 2
ENDMDL
MODEL 4
REMARK VINA RESULT:      -7.7      2.040      3.566
REMARK  2 active torsions:
REMARK  status: ('A' for Active; 'I' for Inactive)
REMARK    1  A    between atoms: C6_6  and  N1_7 
REMARK    2  A    between atoms: C15_19  and  O1_20 
ROOT
HETATM    1  C1  UNL     1      21.418  -1.504  54.616  1.00  0.00     0.018 C 
HETATM    2  C2  UNL     1      21.882  -0.602  53.964  1.00  0.00    -0.075 C 
HETATM    3  C3  UNL     1      22.412   0.473  53.174  1.00  0.00     0.051 A 
HETATM    4  C4  UNL     1      23.761   0.569  52.900  1.00  0.00     0.041 A 
HETATM    5  C5  UNL     1      24.190   1.631  52.135  1.00  0.00     0.040 A 
HETATM    6  C6  UNL     1      25.550   1.626  51.920  1.00  0.00     0.143 A 
HETATM    7  N2  UNL     1      26.060   2.636  51.169  1.00  0.00    -0.223 NA
HETATM    8  C12 UNL     1      25.279   3.611  50.649  1.00  0.00     0.236 A 
HETATM    9  N3  UNL     1      23.937   3.591  50.877  1.00  0.00    -0.241 NA
HETATM   10  C13 UNL     1      23.394   2.622  51.607  1.00  0.00     0.075 A 
HETATM   11  C14 UNL     1      22.044   2.511  51.890  1.00  0.00     0.071 A 
HETATM   12  C15 UNL     1      21.552   1.453  52.663  1.00  0.00     0.089 A 
ENDROOT
BRANCH  12  13
HETATM   13  O1  UNL     1      20.216   1.341  52.946  1.00  0.00    -0.354 OA
HETATM   14  C16 UNL     1      19.210   1.174  51.964  1.00  0.00     0.210 C 
ENDBRANCH  12  13
BRANCH   6  15
HETATM   15  N1  UNL     1      26.572   0.750  52.370  1.00  0.00    -0.338 N 
HETATM   16  C7  UNL     1      27.612   1.522  52.966  1.00  0.00     0.094 A 
HETATM   17  C8  UNL     1      28.731   0.999  53.487  1.00  0.00     0.041 A 
HETATM   18  C9  UNL     1      28.936  -0.452  53.462  1.00  0.00     0.033 A 
HETATM   19 CL1  UNL     1      30.349  -1.263  54.105  1.00  0.00    -0.085 Cl
HETATM   20  C10 UNL     1      27.943  -1.146  52.898  1.00  0.00     0.017 A 
HETATM   21  C11 UNL     1      26.685  -0.677  52.304  1.00  0.00     0.159 A 
ENDBRANCH   6  15
TORSDOF 2
ENDMDL
MODEL 5
REMARK VINA RESULT:      -7.4      3.670      5.929
REMARK  2 active torsions:
REMARK  status: ('A' for Active; 'I' for Inactive)
REMARK    1  A    between atoms: C6_6  and  N1_7 
REMARK    2  A    between atoms: C15_19  and  O1_20 
ROOT
HETATM    1  C1  UNL     1      28.771   0.559  54.207  1.00  0.00     0.018 C 
HETATM    2  C2  UNL     1      27.652   0.671  53.773  1.00  0.00    -0.075 C 
HETATM    3  C3  UNL     1      26.315   0.781  53.261  1.00  0.00     0.051 A 
HETATM    4  C4  UNL     1      26.005   1.649  52.235  1.00  0.00     0.041 A 
HETATM    5  C5  UNL     1      24.698   1.695  51.802  1.00  0.00     0.040 A 
HETATM    6  C6  UNL     1      24.502   2.590  50.774  1.00  0.00     0.143 A 
HETATM    7  N2  UNL     1      23.241   2.696  50.279  1.00  0.00    -0.223 NA
HETATM    8  C12 UNL     1      22.214   1.962  50.766  1.00  0.00     0.236 A 
HETATM    9  N3  UNL     1      22.436   1.085  51.783  1.00  0.00    -0.241 NA
HETATM   10  C13 UNL     1      23.653   0.948  52.298  1.00  0.00     0.075 A 
HETATM   11  C14 UNL     1      23.981   0.082  53.327  1.00  0.00     0.071 A 
HETATM   12  C15 UNL     1      25.293  -0.006  53.807  1.00  0.00     0.089 A 
ENDROOT
BRANCH  12  13
HETATM   13  O1  UNL     1      25.620  -0.862  54.826  1.00  0.00    -0.354 OA
HETATM   14  C16 UNL     1      24.729  -1.241  55.858  1.00  0.00     0.210 C 
ENDBRANCH  12  13
BRANCH   6  15
HETATM   15  N1  UNL     1      25.390   3.481  50.117  1.00  0.00    -0.338 N 
HETATM   16  C7  UNL     1      24.845   4.797  50.167  1.00  0.00     0.094 A 
HETATM   17  C8  UNL     1      25.435   5.875  49.632  1.00  0.00     0.041 A 
HETATM   18  C9  UNL     1      26.721   5.734  48.943  1.00  0.00     0.033 A 
HETATM   19 CL1  UNL     1      27.596   7.056  48.200  1.00  0.00    -0.085 Cl
HETATM   20  C10 UNL     1      27.204   4.488  48.915  1.00  0.00     0.017 A 
HETATM   21  C11 UNL     1      26.646   3.248  49.467  1.00  0.00     0.159 A 
ENDBRANCH   6  15
TORSDOF 2
ENDMDL
MODEL 6
REMARK VINA RESULT:      -7.4      3.383      5.612
REMARK  2 active torsions:
REMARK  status: ('A' for Active; 'I' for Inactive)
REMARK    1  A    between atoms: C6_6  and  N1_7 
REMARK    2  A    between atoms: C15_19  and  O1_20 
ROOT
HETATM    1  C1  UNL     1      20.290   0.837  51.728  1.00  0.00     0.018 C 
HETATM    2  C2  UNL     1      21.468   0.760  51.975  1.00  0.00    -0.075 C 
HETATM    3  C3  UNL     1      22.865   0.657  52.292  1.00  0.00     0.051 A 
HETATM    4  C4  UNL     1      23.775   1.595  51.850  1.00  0.00     0.041 A 
HETATM    5  C5  UNL     1      25.097   1.423  52.197  1.00  0.00     0.040 A 
HETATM    6  C6  UNL     1      25.916   2.417  51.707  1.00  0.00     0.143 A 
HETATM    7  N2  UNL     1      27.237   2.332  52.007  1.00  0.00    -0.223 NA
HETATM    8  C12 UNL     1      27.742   1.320  52.751  1.00  0.00     0.236 A 
HETATM    9  N3  UNL     1      26.910   0.351  53.221  1.00  0.00    -0.241 NA
HETATM   10  C13 UNL     1      25.610   0.394  52.953  1.00  0.00     0.075 A 
HETATM   11  C14 UNL     1      24.683  -0.538  53.389  1.00  0.00     0.071 A 
HETATM   12  C15 UNL     1      23.327  -0.415  53.066  1.00  0.00     0.089 A 
ENDROOT
BRANCH  12  13
HETATM   13  O1  UNL     1      22.408  -1.336  53.496  1.00  0.00    -0.354 OA
HETATM   14  C16 UNL     1      21.973  -1.454  54.837  1.00  0.00     0.210 C 
ENDBRANCH  12  13
BRANCH   6  15
HETATM   15  N1  UNL     1      25.643   3.549  50.895  1.00  0.00    -0.338 N 
HETATM   16  C7  UNL     1      26.685   3.688  49.933  1.00  0.00     0.094 A 
HETATM   17  C8  UNL     1      26.733   4.664  49.015  1.00  0.00     0.041 A 
HETATM   18  C9  UNL     1      25.669   5.670  48.965  1.00  0.00     0.033 A 
HETATM   19 CL1  UNL     1      25.612   6.994  47.821  1.00  0.00    -0.085 Cl
HETATM   20  C10 UNL     1      24.707   5.510  49.880  1.00  0.00     0.017 A 
HETATM   21  C11 UNL     1      24.557   4.485  50.920  1.00  0.00     0.159 A 
ENDBRANCH   6  15
TORSDOF 2
ENDMDL
MODEL 7
REMARK VINA RESULT:      -7.3      4.035      6.997
REMARK  2 active torsions:
REMARK  status: ('A' for Active; 'I' for Inactive)
REMARK    1  A    between atoms: C6_6  and  N1_7 
REMARK    2  A    between atoms: C15_19  and  O1_20 
ROOT
HETATM    1  C1  UNL     1      24.322  -1.399  55.503  1.00  0.00     0.018 C 
HETATM    2  C2  UNL     1      24.746  -0.682  54.631  1.00  0.00    -0.075 C 
HETATM    3  C3  UNL     1      25.272   0.177  53.608  1.00  0.00     0.051 A 
HETATM    4  C4  UNL     1      24.442   0.895  52.773  1.00  0.00     0.041 A 
HETATM    5  C5  UNL     1      25.026   1.696  51.816  1.00  0.00     0.040 A 
HETATM    6  C6  UNL     1      24.106   2.368  51.042  1.00  0.00     0.143 A 
HETATM    7  N2  UNL     1      24.594   3.188  50.075  1.00  0.00    -0.223 NA
HETATM    8  C12 UNL     1      25.923   3.345  49.869  1.00  0.00     0.236 A 
HETATM    9  N3  UNL     1      26.809   2.668  50.649  1.00  0.00    -0.241 NA
HETATM   10  C13 UNL     1      26.377   1.855  51.607  1.00  0.00     0.075 A 
HETATM   11  C14 UNL     1      27.196   1.128  52.454  1.00  0.00     0.071 A 
HETATM   12  C15 UNL     1      26.658   0.298  53.444  1.00  0.00     0.089 A 
ENDROOT
BRANCH  12  13
HETATM   13  O1  UNL     1      27.467  -0.424  54.283  1.00  0.00    -0.354 OA
HETATM   14  C16 UNL     1      28.678   0.065  54.828  1.00  0.00     0.210 C 
ENDBRANCH  12  13
BRANCH   6  15
HETATM   15  N1  UNL     1      22.687   2.355  51.038  1.00  0.00    -0.338 N 
HETATM   16  C7  UNL     1      22.213   3.472  51.785  1.00  0.00     0.094 A 
HETATM   17  C8  UNL     1      20.916   3.748  51.981  1.00  0.00     0.041 A 
HETATM   18  C9  UNL     1      19.890   2.871  51.410  1.00  0.00     0.033 A 
HETATM   19 CL1  UNL     1      18.166   3.115  51.592  1.00  0.00    -0.085 Cl
HETATM   20  C10 UNL     1      20.368   1.833  50.715  1.00  0.00     0.017 A 
HETATM   21  C11 UNL     1      21.756   1.444  50.439  1.00  0.00     0.159 A 
ENDBRANCH   6  15
TORSDOF 2
ENDMDL
MODEL 8
REMARK VINA RESULT:      -7.2      3.729      6.194
REMARK  2 active torsions:
REMARK  status: ('A' for Active; 'I' for Inactive)
REMARK    1  A    between atoms: C6_6  and  N1_7 
REMARK    2  A    between atoms: C15_19  and  O1_20 
ROOT
HETATM    1  C1  UNL     1      26.601   2.232  51.125  1.00  0.00     0.018 C 
HETATM    2  C2  UNL     1      25.809   1.588  51.768  1.00  0.00    -0.075 C 
HETATM    3  C3  UNL     1      24.883   0.803  52.534  1.00  0.00     0.051 A 
HETATM    4  C4  UNL     1      23.522   0.888  52.327  1.00  0.00     0.041 A 
HETATM    5  C5  UNL     1      22.701   0.101  53.105  1.00  0.00     0.040 A 
HETATM    6  C6  UNL     1      21.364   0.262  52.811  1.00  0.00     0.143 A 
HETATM    7  N2  UNL     1      20.481  -0.481  53.527  1.00  0.00    -0.223 NA
HETATM    8  C12 UNL     1      20.882  -1.345  54.489  1.00  0.00     0.236 A 
HETATM    9  N3  UNL     1      22.209  -1.483  54.758  1.00  0.00    -0.241 NA
HETATM   10  C13 UNL     1      23.109  -0.776  54.084  1.00  0.00     0.075 A 
HETATM   11  C14 UNL     1      24.478  -0.850  54.278  1.00  0.00     0.071 A 
HETATM   12  C15 UNL     1      25.359  -0.073  53.518  1.00  0.00     0.089 A 
ENDROOT
BRANCH  12  13
HETATM   13  O1  UNL     1      26.714  -0.144  53.710  1.00  0.00    -0.354 OA
HETATM   14  C16 UNL     1      27.363   0.226  54.911  1.00  0.00     0.210 C 
ENDBRANCH  12  13
BRANCH   6  15
HETATM   15  N1  UNL     1      20.697   1.106  51.886  1.00  0.00    -0.338 N 
HETATM   16  C7  UNL     1      20.322   2.311  52.548  1.00  0.00     0.094 A 
HETATM   17  C8  UNL     1      19.667   3.320  51.956  1.00  0.00     0.041 A 
HETATM   18  C9  UNL     1      19.295   3.217  50.542  1.00  0.00     0.033 A 
HETATM   19 CL1  UNL     1      18.439   4.457  49.651  1.00  0.00    -0.085 Cl
HETATM   20  C10 UNL     1      19.663   2.076  49.951  1.00  0.00     0.017 A 
HETATM   21  C11 UNL     1      20.379   0.918  50.501  1.00  0.00     0.159 A 
ENDBRANCH   6  15
TORSDOF 2
ENDMDL
MODEL 9
REMARK VINA RESULT:      -7.1      4.363      7.311
REMARK  2 active torsions:
REMARK  status: ('A' for Active; 'I' for Inactive)
REMARK    1  A    between atoms: C6_6  and  N1_7 
REMARK    2  A    between atoms: C15_19  and  O1_20 
ROOT
HETATM    1  C1  UNL     1      22.905  -0.885  54.108  1.00  0.00     0.018 C 
HETATM    2  C2  UNL     1      23.610  -0.166  53.446  1.00  0.00    -0.075 C 
HETATM    3  C3  UNL     1      24.466   0.692  52.676  1.00  0.00     0.051 A 
HETATM    4  C4  UNL     1      23.959   1.541  51.714  1.00  0.00     0.041 A 
HETATM    5  C5  UNL     1      24.847   2.332  51.019  1.00  0.00     0.040 A 
HETATM    6  C6  UNL     1      24.234   3.141  50.088  1.00  0.00     0.143 A 
HETATM    7  N2  UNL     1      25.035   3.961  49.360  1.00  0.00    -0.223 NA
HETATM    8  C12 UNL     1      26.378   3.991  49.529  1.00  0.00     0.236 A 
HETATM    9  N3  UNL     1      26.957   3.180  50.456  1.00  0.00    -0.241 NA
HETATM   10  C13 UNL     1      26.213   2.361  51.191  1.00  0.00     0.075 A 
HETATM   11  C14 UNL     1      26.705   1.504  52.161  1.00  0.00     0.071 A 
HETATM   12  C15 UNL     1      25.849   0.677  52.897  1.00  0.00     0.089 A 
ENDROOT
BRANCH  12  13
HETATM   13  O1  UNL     1      26.334  -0.172  53.857  1.00  0.00    -0.354 OA
HETATM   14  C16 UNL     1      27.341   0.178  54.788  1.00  0.00     0.210 C 
ENDBRANCH  12  13
BRANCH   6  15
HETATM   15  N1  UNL     1      22.874   3.275  49.705  1.00  0.00    -0.338 N 
HETATM   16  C7  UNL     1      22.646   2.500  48.531  1.00  0.00     0.094 A 
HETATM   17  C8  UNL     1      21.464   2.415  47.906  1.00  0.00     0.041 A 
HETATM   18  C9  UNL     1      20.308   3.149  48.430  1.00  0.00     0.033 A 
HETATM   19 CL1  UNL     1      18.712   3.126  47.711  1.00  0.00    -0.085 Cl
HETATM   20  C10 UNL     1      20.556   3.864  49.532  1.00  0.00     0.017 A 
HETATM   21  C11 UNL     1      21.801   4.024  50.292  1.00  0.00     0.159 A 
ENDBRANCH   6  15
TORSDOF 2
ENDMDL
