MODEL 1
REMARK VINA RESULT:      -9.1      0.000      0.000
REMARK  4 active torsions:
REMARK  status: ('A' for Active; 'I' for Inactive)
REMARK    1  A    between atoms: N1_1  and  C1_2 
REMARK    2  A    between atoms: C3_5  and  C4_6 
REMARK    3  A    between atoms: C14_17  and  N4_18 
REMARK    4  A    between atoms: N4_18  and  C15_19 
ROOT
HETATM    1  C1  UNL     1      21.478  -0.538  53.760  1.00  0.00     0.201 A 
HETATM    2  N2  UNL     1      20.793  -0.417  52.596  1.00  0.00    -0.230 NA
HETATM    3  C2  UNL     1      21.338   0.353  51.639  1.00  0.00     0.135 A 
HETATM    4  C3  UNL     1      22.531   0.992  51.818  1.00  0.00     0.029 A 
HETATM    5  C14 UNL     1      23.222   0.866  52.998  1.00  0.00     0.143 A 
HETATM    6  N5  UNL     1      22.668   0.094  53.950  1.00  0.00    -0.200 NA
ENDROOT
BRANCH   4   7
HETATM    7  C4  UNL     1      23.068   1.801  50.736  1.00  0.00     0.041 C 
HETATM    8  C5  UNL     1      23.001   3.107  50.420  1.00  0.00     0.010 C 
HETATM    9  C6  UNL     1      23.674   3.665  49.212  1.00  0.00     0.095 C 
HETATM   10  N3  UNL     1      22.270   4.016  51.233  1.00  0.00    -0.389 N 
HETATM   11  C7  UNL     1      24.323   4.935  49.632  1.00  0.00    -0.045 A 
HETATM   12  C8  UNL     1      25.518   5.288  49.040  1.00  0.00     0.008 A 
HETATM   13  C12 UNL     1      23.783   5.772  50.582  1.00  0.00    -0.034 A 
HETATM   14  C9  UNL     1      26.206   6.461  49.364  1.00  0.00     0.001 A 
HETATM   15  C10 UNL     1      25.685   7.314  50.311  1.00  0.00     0.001 A 
HETATM   16  C11 UNL     1      24.489   6.921  50.875  1.00  0.00     0.009 A 
HETATM   17  C13 UNL     1      22.520   5.464  51.254  1.00  0.00     0.158 C 
HETATM   18  H13 UNL     1      21.511   3.682  51.860  1.00  0.00     0.159 HD
ENDBRANCH   4   7
BRANCH   5  19
HETATM   19  N4  UNL     1      24.474   1.545  53.163  1.00  0.00    -0.340 N 
HETATM   20  H14 UNL     1      24.477   2.584  53.211  1.00  0.00     0.167 HD
BRANCH  19  21
HETATM   21  C15 UNL     1      25.688   0.845  53.259  1.00  0.00     0.033 A 
HETATM   22  C16 UNL     1      26.004  -0.173  52.364  1.00  0.00     0.031 A 
HETATM   23  C17 UNL     1      27.202  -0.826  52.501  1.00  0.00     0.026 A 
HETATM   24  C18 UNL     1      28.111  -0.522  53.484  1.00  0.00     0.034 A 
HETATM   25 CL1  UNL     1      29.638  -1.362  53.649  1.00  0.00    -0.084 Cl
HETATM   26  C19 UNL     1      27.857   0.483  54.409  1.00  0.00     0.026 A 
HETATM   27  C20 UNL     1      26.634   1.109  54.224  1.00  0.00     0.031 A 
ENDBRANCH  19  21
ENDBRANCH   5  19
BRANCH   1  28
HETATM   28  N1  UNL     1      21.163  -1.281  54.953  1.00  0.00    -0.271 NA
HETATM   29  H1  UNL     1      20.655  -0.592  55.581  1.00  0.00     0.127 HD
HETATM   30  H2  UNL     1      20.642  -0.734  55.705  1.00  0.00     0.127 HD
ENDBRANCH   1  28
TORSDOF 4
ENDMDL
MODEL 2
REMARK VINA RESULT:      -9.0      3.099      4.713
REMARK  4 active torsions:
REMARK  status: ('A' for Active; 'I' for Inactive)
REMARK    1  A    between atoms: N1_1  and  C1_2 
REMARK    2  A    between atoms: C3_5  and  C4_6 
REMARK    3  A    between atoms: C14_17  and  N4_18 
REMARK    4  A    between atoms: N4_18  and  C15_19 
ROOT
HETATM    1  C1  UNL     1      24.139  -1.212  55.578  1.00  0.00     0.201 A 
HETATM    2  N2  UNL     1      22.834  -1.579  55.563  1.00  0.00    -0.230 NA
HETATM    3  C2  UNL     1      22.120  -1.267  54.469  1.00  0.00     0.135 A 
HETATM    4  C3  UNL     1      22.673  -0.608  53.409  1.00  0.00     0.029 A 
HETATM    5  C14 UNL     1      23.995  -0.238  53.428  1.00  0.00     0.143 A 
HETATM    6  N5  UNL     1      24.701  -0.555  54.528  1.00  0.00    -0.200 NA
ENDROOT
BRANCH   4   7
HETATM    7  C4  UNL     1      21.844  -0.311  52.252  1.00  0.00     0.041 C 
HETATM    8  C5  UNL     1      20.975   0.670  51.948  1.00  0.00     0.010 C 
HETATM    9  C6  UNL     1      20.254   0.713  50.644  1.00  0.00     0.095 C 
HETATM   10  N3  UNL     1      20.701   1.713  52.876  1.00  0.00    -0.389 N 
HETATM   11  C7  UNL     1      20.302   2.123  50.175  1.00  0.00    -0.045 A 
HETATM   12  C8  UNL     1      20.390   2.360  48.818  1.00  0.00     0.008 A 
HETATM   13  C12 UNL     1      20.262   3.199  51.032  1.00  0.00    -0.034 A 
HETATM   14  C9  UNL     1      20.439   3.648  48.276  1.00  0.00     0.001 A 
HETATM   15  C10 UNL     1      20.400   4.739  49.115  1.00  0.00     0.001 A 
HETATM   16  C11 UNL     1      20.312   4.454  50.462  1.00  0.00     0.009 A 
HETATM   17  C13 UNL     1      20.171   3.026  52.483  1.00  0.00     0.158 C 
HETATM   18  H13 UNL     1      20.869   1.582  53.893  1.00  0.00     0.159 HD
ENDBRANCH   4   7
BRANCH   5  19
HETATM   19  N4  UNL     1      24.555   0.453  52.303  1.00  0.00    -0.340 N 
HETATM   20  H14 UNL     1      25.172  -0.071  51.651  1.00  0.00     0.167 HD
BRANCH  19  21
HETATM   21  C15 UNL     1      24.290   1.812  52.063  1.00  0.00     0.033 A 
HETATM   22  C16 UNL     1      24.162   2.715  53.114  1.00  0.00     0.031 A 
HETATM   23  C17 UNL     1      23.904   4.032  52.827  1.00  0.00     0.026 A 
HETATM   24  C18 UNL     1      23.767   4.504  51.545  1.00  0.00     0.034 A 
HETATM   25 CL1  UNL     1      23.439   6.186  51.190  1.00  0.00    -0.084 Cl
HETATM   26  C19 UNL     1      23.884   3.654  50.452  1.00  0.00     0.026 A 
HETATM   27  C20 UNL     1      24.144   2.338  50.799  1.00  0.00     0.031 A 
ENDBRANCH  19  21
ENDBRANCH   5  19
BRANCH   1  28
HETATM   28  N1  UNL     1      25.148  -1.402  56.588  1.00  0.00    -0.271 NA
HETATM   29  H1  UNL     1      25.818  -2.116  56.177  1.00  0.00     0.127 HD
HETATM   30  H2  UNL     1      25.915  -2.098  56.338  1.00  0.00     0.127 HD
ENDBRANCH   1  28
TORSDOF 4
ENDMDL
MODEL 3
REMARK VINA RESULT:      -9.0      3.189      5.825
REMARK  4 active torsions:
REMARK  status: ('A' for Active; 'I' for Inactive)
REMARK    1  A    between atoms: N1_1  and  C1_2 
REMARK    2  A    between atoms: C3_5  and  C4_6 
REMARK    3  A    between atoms: C14_17  and  N4_18 
REMARK    4  A    between atoms: N4_18  and  C15_19 
ROOT
HETATM    1  C1  UNL     1      28.063   2.111  53.769  1.00  0.00     0.201 A 
HETATM    2  N2  UNL     1      27.099   1.500  54.500  1.00  0.00    -0.230 NA
HETATM    3  C2  UNL     1      25.962   1.172  53.865  1.00  0.00     0.135 A 
HETATM    4  C3  UNL     1      25.771   1.436  52.540  1.00  0.00     0.029 A 
HETATM    5  C14 UNL     1      26.751   2.055  51.803  1.00  0.00     0.143 A 
HETATM    6  N5  UNL     1      27.886   2.380  52.447  1.00  0.00    -0.200 NA
ENDROOT
BRANCH   4   7
HETATM    7  C4  UNL     1      24.519   1.044  51.914  1.00  0.00     0.041 C 
HETATM    8  C5  UNL     1      23.303   1.609  51.817  1.00  0.00     0.010 C 
HETATM    9  C6  UNL     1      22.179   0.952  51.090  1.00  0.00     0.095 C 
HETATM   10  N3  UNL     1      23.034   2.868  52.421  1.00  0.00    -0.389 N 
HETATM   11  C7  UNL     1      21.516   2.009  50.281  1.00  0.00    -0.045 A 
HETATM   12  C8  UNL     1      20.986   1.661  49.056  1.00  0.00     0.008 A 
HETATM   13  C12 UNL     1      21.407   3.314  50.702  1.00  0.00    -0.034 A 
HETATM   14  C9  UNL     1      20.341   2.580  48.222  1.00  0.00     0.001 A 
HETATM   15  C10 UNL     1      20.220   3.892  48.623  1.00  0.00     0.001 A 
HETATM   16  C11 UNL     1      20.764   4.192  49.855  1.00  0.00     0.009 A 
HETATM   17  C13 UNL     1      21.947   3.758  51.989  1.00  0.00     0.158 C 
HETATM   18  H13 UNL     1      23.613   3.217  53.211  1.00  0.00     0.159 HD
ENDBRANCH   4   7
BRANCH   5  19
HETATM   19  N4  UNL     1      26.529   2.322  50.411  1.00  0.00    -0.340 N 
HETATM   20  H14 UNL     1      26.484   1.521  49.750  1.00  0.00     0.167 HD
BRANCH  19  21
HETATM   21  C15 UNL     1      26.373   3.631  49.925  1.00  0.00     0.033 A 
HETATM   22  C16 UNL     1      25.267   4.399  50.275  1.00  0.00     0.031 A 
HETATM   23  C17 UNL     1      25.161   5.672  49.773  1.00  0.00     0.026 A 
HETATM   24  C18 UNL     1      26.100   6.227  48.939  1.00  0.00     0.034 A 
HETATM   25 CL1  UNL     1      25.955   7.853  48.306  1.00  0.00    -0.084 Cl
HETATM   26  C19 UNL     1      27.226   5.513  48.552  1.00  0.00     0.026 A 
HETATM   27  C20 UNL     1      27.283   4.235  49.087  1.00  0.00     0.031 A 
ENDBRANCH  19  21
ENDBRANCH   5  19
BRANCH   1  28
HETATM   28  N1  UNL     1      29.371   2.576  54.155  1.00  0.00    -0.271 NA
HETATM   29  H1  UNL     1      29.416   2.432  55.206  1.00  0.00     0.127 HD
HETATM   30  H2  UNL     1      29.591   2.503  55.195  1.00  0.00     0.127 HD
ENDBRANCH   1  28
TORSDOF 4
ENDMDL
MODEL 4
REMARK VINA RESULT:      -8.8      3.033      6.399
REMARK  4 active torsions:
REMARK  status: ('A' for Active; 'I' for Inactive)
REMARK    1  A    between atoms: N1_1  and  C1_2 
REMARK    2  A    between atoms: C3_5  and  C4_6 
REMARK    3  A    between atoms: C14_17  and  N4_18 
REMARK    4  A    between atoms: N4_18  and  C15_19 
ROOT
HETATM    1  C1  UNL     1      21.906   6.032  48.323  1.00  0.00     0.201 A 
HETATM    2  N2  UNL     1      23.141   6.554  48.518  1.00  0.00    -0.230 NA
HETATM    3  C2  UNL     1      24.101   5.717  48.946  1.00  0.00     0.135 A 
HETATM    4  C3  UNL     1      23.857   4.394  49.177  1.00  0.00     0.029 A 
HETATM    5  C14 UNL     1      22.604   3.870  48.978  1.00  0.00     0.143 A 
HETATM    6  N5  UNL     1      21.649   4.716  48.550  1.00  0.00    -0.200 NA
ENDROOT
BRANCH   4   7
HETATM    7  C4  UNL     1      24.946   3.544  49.630  1.00  0.00     0.041 C 
HETATM    8  C5  UNL     1      25.374   3.132  50.836  1.00  0.00     0.010 C 
HETATM    9  C6  UNL     1      26.554   2.234  50.994  1.00  0.00     0.095 C 
HETATM   10  N3  UNL     1      24.716   3.551  52.025  1.00  0.00    -0.389 N 
HETATM   11  C7  UNL     1      26.181   1.211  52.007  1.00  0.00    -0.045 A 
HETATM   12  C8  UNL     1      26.681  -0.067  51.864  1.00  0.00     0.008 A 
HETATM   13  C12 UNL     1      25.362   1.484  53.078  1.00  0.00    -0.034 A 
HETATM   14  C9  UNL     1      26.391  -1.098  52.763  1.00  0.00     0.001 A 
HETATM   15  C10 UNL     1      25.574  -0.848  53.842  1.00  0.00     0.001 A 
HETATM   16  C11 UNL     1      25.099   0.443  53.944  1.00  0.00     0.009 A 
HETATM   17  C13 UNL     1      24.792   2.815  53.295  1.00  0.00     0.158 C 
HETATM   18  H13 UNL     1      24.140   4.417  52.041  1.00  0.00     0.159 HD
ENDBRANCH   4   7
BRANCH   5  19
HETATM   19  N4  UNL     1      22.370   2.477  49.227  1.00  0.00    -0.340 N 
HETATM   20  H14 UNL     1      22.495   1.802  48.446  1.00  0.00     0.167 HD
BRANCH  19  21
HETATM   21  C15 UNL     1      21.980   2.007  50.492  1.00  0.00     0.033 A 
HETATM   22  C16 UNL     1      21.255   2.813  51.365  1.00  0.00     0.031 A 
HETATM   23  C17 UNL     1      20.897   2.307  52.590  1.00  0.00     0.026 A 
HETATM   24  C18 UNL     1      21.221   1.036  52.996  1.00  0.00     0.034 A 
HETATM   25 CL1  UNL     1      20.759   0.400  54.561  1.00  0.00    -0.084 Cl
HETATM   26  C19 UNL     1      21.943   0.182  52.172  1.00  0.00     0.026 A 
HETATM   27  C20 UNL     1      22.277   0.743  50.950  1.00  0.00     0.031 A 
ENDBRANCH  19  21
ENDBRANCH   5  19
BRANCH   1  28
HETATM   28  N1  UNL     1      20.690   6.660  47.874  1.00  0.00    -0.271 NA
HETATM   29  H1  UNL     1      20.974   7.246  47.036  1.00  0.00     0.127 HD
HETATM   30  H2  UNL     1      20.793   7.295  47.025  1.00  0.00     0.127 HD
ENDBRANCH   1  28
TORSDOF 4
ENDMDL
MODEL 5
REMARK VINA RESULT:      -8.7      2.974      6.724
REMARK  4 active torsions:
REMARK  status: ('A' for Active; 'I' for Inactive)
REMARK    1  A    between atoms: N1_1  and  C1_2 
REMARK    2  A    between atoms: C3_5  and  C4_6 
REMARK    3  A    between atoms: C14_17  and  N4_18 
REMARK    4  A    between atoms: N4_18  and  C15_19 
ROOT
HETATM    1  C1  UNL     1      21.823   3.197  49.819  1.00  0.00     0.201 A 
HETATM    2  N2  UNL     1      21.497   2.935  51.109  1.00  0.00    -0.230 NA
HETATM    3  C2  UNL     1      22.509   2.768  51.976  1.00  0.00     0.135 A 
HETATM    4  C3  UNL     1      23.815   2.855  51.590  1.00  0.00     0.029 A 
HETATM    5  C14 UNL     1      24.141   3.120  50.283  1.00  0.00     0.143 A 
HETATM    6  N5  UNL     1      23.121   3.286  49.421  1.00  0.00    -0.200 NA
ENDROOT
BRANCH   4   7
HETATM    7  C4  UNL     1      24.859   2.672  52.585  1.00  0.00     0.041 C 
HETATM    8  C5  UNL     1      25.413   1.598  53.176  1.00  0.00     0.010 C 
HETATM    9  C6  UNL     1      26.500   1.724  54.188  1.00  0.00     0.095 C 
HETATM   10  N3  UNL     1      24.970   0.284  52.861  1.00  0.00    -0.389 N 
HETATM   11  C7  UNL     1      27.512   0.684  53.862  1.00  0.00    -0.045 A 
HETATM   12  C8  UNL     1      28.842   0.969  54.092  1.00  0.00     0.008 A 
HETATM   13  C12 UNL     1      27.179  -0.545  53.343  1.00  0.00    -0.034 A 
HETATM   14  C9  UNL     1      29.868   0.059  53.821  1.00  0.00     0.001 A 
HETATM   15  C10 UNL     1      29.559  -1.179  53.302  1.00  0.00     0.001 A 
HETATM   16  C11 UNL     1      28.217  -1.417  53.088  1.00  0.00     0.009 A 
HETATM   17  C13 UNL     1      25.789  -0.918  53.069  1.00  0.00     0.158 C 
HETATM   18  H13 UNL     1      24.025   0.120  52.460  1.00  0.00     0.159 HD
ENDBRANCH   4   7
BRANCH   5  19
HETATM   19  N4  UNL     1      25.520   3.208  49.899  1.00  0.00    -0.340 N 
HETATM   20  H14 UNL     1      26.094   2.342  49.898  1.00  0.00     0.167 HD
BRANCH  19  21
HETATM   21  C15 UNL     1      26.107   4.429  49.528  1.00  0.00     0.033 A 
HETATM   22  C16 UNL     1      25.522   5.643  49.875  1.00  0.00     0.031 A 
HETATM   23  C17 UNL     1      26.136   6.808  49.489  1.00  0.00     0.026 A 
HETATM   24  C18 UNL     1      27.307   6.833  48.773  1.00  0.00     0.034 A 
HETATM   25 CL1  UNL     1      28.082   8.326  48.286  1.00  0.00    -0.084 Cl
HETATM   26  C19 UNL     1      27.942   5.657  48.396  1.00  0.00     0.026 A 
HETATM   27  C20 UNL     1      27.280   4.512  48.812  1.00  0.00     0.031 A 
ENDBRANCH  19  21
ENDBRANCH   5  19
BRANCH   1  28
HETATM   28  N1  UNL     1      20.980   3.425  48.673  1.00  0.00    -0.271 NA
HETATM   29  H1  UNL     1      19.990   3.273  49.024  1.00  0.00     0.127 HD
HETATM   30  H2  UNL     1      19.935   3.314  48.848  1.00  0.00     0.127 HD
ENDBRANCH   1  28
TORSDOF 4
ENDMDL
MODEL 6
REMARK VINA RESULT:      -8.7      2.575      6.158
REMARK  4 active torsions:
REMARK  status: ('A' for Active; 'I' for Inactive)
REMARK    1  A    between atoms: N1_1  and  C1_2 
REMARK    2  A    between atoms: C3_5  and  C4_6 
REMARK    3  A    between atoms: C14_17  and  N4_18 
REMARK    4  A    between atoms: N4_18  and  C15_19 
ROOT
HETATM    1  C1  UNL     1      23.187   7.248  49.832  1.00  0.00     0.201 A 
HETATM    2  N2  UNL     1      21.910   6.960  49.479  1.00  0.00    -0.230 NA
HETATM    3  C2  UNL     1      21.281   6.001  50.178  1.00  0.00     0.135 A 
HETATM    4  C3  UNL     1      21.890   5.335  51.203  1.00  0.00     0.029 A 
HETATM    5  C14 UNL     1      23.184   5.629  51.556  1.00  0.00     0.143 A 
HETATM    6  N5  UNL     1      23.805   6.591  50.851  1.00  0.00    -0.200 NA
ENDROOT
BRANCH   4   7
HETATM    7  C4  UNL     1      21.146   4.314  51.923  1.00  0.00     0.041 C 
HETATM    8  C5  UNL     1      21.035   2.979  51.808  1.00  0.00     0.010 C 
HETATM    9  C6  UNL     1      20.170   2.175  52.719  1.00  0.00     0.095 C 
HETATM   10  N3  UNL     1      21.740   2.274  50.794  1.00  0.00    -0.389 N 
HETATM   11  C7  UNL     1      20.952   0.967  53.094  1.00  0.00    -0.045 A 
HETATM   12  C8  UNL     1      20.785   0.447  54.361  1.00  0.00     0.008 A 
HETATM   13  C12 UNL     1      21.829   0.347  52.235  1.00  0.00    -0.034 A 
HETATM   14  C9  UNL     1      21.472  -0.686  54.811  1.00  0.00     0.001 A 
HETATM   15  C10 UNL     1      22.355  -1.323  53.968  1.00  0.00     0.001 A 
HETATM   16  C11 UNL     1      22.488  -0.767  52.712  1.00  0.00     0.009 A 
HETATM   17  C13 UNL     1      22.060   0.843  50.877  1.00  0.00     0.158 C 
HETATM   18  H13 UNL     1      22.065   2.758  49.934  1.00  0.00     0.159 HD
ENDBRANCH   4   7
BRANCH   5  19
HETATM   19  N4  UNL     1      23.803   4.918  52.636  1.00  0.00    -0.340 N 
HETATM   20  H14 UNL     1      23.751   5.319  53.594  1.00  0.00     0.167 HD
BRANCH  19  21
HETATM   21  C15 UNL     1      24.473   3.700  52.432  1.00  0.00     0.033 A 
HETATM   22  C16 UNL     1      25.092   3.416  51.218  1.00  0.00     0.031 A 
HETATM   23  C17 UNL     1      25.734   2.212  51.069  1.00  0.00     0.026 A 
HETATM   24  C18 UNL     1      25.796   1.270  52.065  1.00  0.00     0.034 A 
HETATM   25 CL1  UNL     1      26.618  -0.262  51.865  1.00  0.00    -0.084 Cl
HETATM   26  C19 UNL     1      25.199   1.492  53.300  1.00  0.00     0.026 A 
HETATM   27  C20 UNL     1      24.566   2.722  53.396  1.00  0.00     0.031 A 
ENDBRANCH  19  21
ENDBRANCH   5  19
BRANCH   1  28
HETATM   28  N1  UNL     1      24.110   8.210  49.286  1.00  0.00    -0.271 NA
HETATM   29  H1  UNL     1      24.491   8.734  50.127  1.00  0.00     0.127 HD
HETATM   30  H2  UNL     1      24.594   8.833  50.002  1.00  0.00     0.127 HD
ENDBRANCH   1  28
TORSDOF 4
ENDMDL
MODEL 7
REMARK VINA RESULT:      -8.5      2.420      5.488
REMARK  4 active torsions:
REMARK  status: ('A' for Active; 'I' for Inactive)
REMARK    1  A    between atoms: N1_1  and  C1_2 
REMARK    2  A    between atoms: C3_5  and  C4_6 
REMARK    3  A    between atoms: C14_17  and  N4_18 
REMARK    4  A    between atoms: N4_18  and  C15_19 
ROOT
HETATM    1  C1  UNL     1      26.428   3.901  49.556  1.00  0.00     0.201 A 
HETATM    2  N2  UNL     1      25.197   3.676  49.034  1.00  0.00    -0.230 NA
HETATM    3  C2  UNL     1      24.330   2.978  49.785  1.00  0.00     0.135 A 
HETATM    4  C3  UNL     1      24.659   2.509  51.024  1.00  0.00     0.029 A 
HETATM    5  C14 UNL     1      25.907   2.739  51.549  1.00  0.00     0.143 A 
HETATM    6  N5  UNL     1      26.769   3.439  50.790  1.00  0.00    -0.200 NA
ENDROOT
BRANCH   4   7
HETATM    7  C4  UNL     1      23.667   1.768  51.786  1.00  0.00     0.041 C 
HETATM    8  C5  UNL     1      22.430   2.047  52.234  1.00  0.00     0.010 C 
HETATM    9  C6  UNL     1      21.628   1.059  53.011  1.00  0.00     0.095 C 
HETATM   10  N3  UNL     1      21.835   3.315  51.989  1.00  0.00    -0.389 N 
HETATM   11  C7  UNL     1      20.244   1.110  52.469  1.00  0.00    -0.045 A 
HETATM   12  C8  UNL     1      19.510  -0.058  52.435  1.00  0.00     0.008 A 
HETATM   13  C12 UNL     1      19.666   2.268  52.003  1.00  0.00    -0.034 A 
HETATM   14  C9  UNL     1      18.201  -0.115  51.946  1.00  0.00     0.001 A 
HETATM   15  C10 UNL     1      17.602   1.032  51.475  1.00  0.00     0.001 A 
HETATM   16  C11 UNL     1      18.374   2.174  51.530  1.00  0.00     0.009 A 
HETATM   17  C13 UNL     1      20.383   3.545  52.006  1.00  0.00     0.158 C 
HETATM   18  H13 UNL     1      22.419   4.149  51.782  1.00  0.00     0.159 HD
ENDBRANCH   4   7
BRANCH   5  19
HETATM   19  N4  UNL     1      26.231   2.237  52.853  1.00  0.00    -0.340 N 
HETATM   20  H14 UNL     1      25.810   2.697  53.684  1.00  0.00     0.167 HD
BRANCH  19  21
HETATM   21  C15 UNL     1      27.099   1.146  53.030  1.00  0.00     0.033 A 
HETATM   22  C16 UNL     1      26.692  -0.151  52.733  1.00  0.00     0.031 A 
HETATM   23  C17 UNL     1      27.578  -1.182  52.924  1.00  0.00     0.026 A 
HETATM   24  C18 UNL     1      28.853  -0.993  53.396  1.00  0.00     0.034 A 
HETATM   25 CL1  UNL     1      29.975  -2.316  53.635  1.00  0.00    -0.084 Cl
HETATM   26  C19 UNL     1      29.320   0.276  53.711  1.00  0.00     0.026 A 
HETATM   27  C20 UNL     1      28.387   1.278  53.499  1.00  0.00     0.031 A 
ENDBRANCH  19  21
ENDBRANCH   5  19
BRANCH   1  28
HETATM   28  N1  UNL     1      27.558   4.607  49.008  1.00  0.00    -0.271 NA
HETATM   29  H1  UNL     1      27.150   5.484  48.571  1.00  0.00     0.127 HD
HETATM   30  H2  UNL     1      27.327   5.527  48.523  1.00  0.00     0.127 HD
ENDBRANCH   1  28
TORSDOF 4
ENDMDL
MODEL 8
REMARK VINA RESULT:      -8.3      4.331      8.348
REMARK  4 active torsions:
REMARK  status: ('A' for Active; 'I' for Inactive)
REMARK    1  A    between atoms: N1_1  and  C1_2 
REMARK    2  A    between atoms: C3_5  and  C4_6 
REMARK    3  A    between atoms: C14_17  and  N4_18 
REMARK    4  A    between atoms: N4_18  and  C15_19 
ROOT
HETATM    1  C1  UNL     1      27.786   8.968  49.489  1.00  0.00     0.201 A 
HETATM    2  N2  UNL     1      28.066   8.117  48.473  1.00  0.00    -0.230 NA
HETATM    3  C2  UNL     1      27.313   7.009  48.374  1.00  0.00     0.135 A 
HETATM    4  C3  UNL     1      26.304   6.739  49.253  1.00  0.00     0.029 A 
HETATM    5  C14 UNL     1      26.024   7.605  50.282  1.00  0.00     0.143 A 
HETATM    6  N5  UNL     1      26.783   8.711  50.373  1.00  0.00    -0.200 NA
ENDROOT
BRANCH   4   7
HETATM    7  C4  UNL     1      25.523   5.525  49.081  1.00  0.00     0.041 C 
HETATM    8  C5  UNL     1      25.615   4.275  49.567  1.00  0.00     0.010 C 
HETATM    9  C6  UNL     1      24.637   3.209  49.202  1.00  0.00     0.095 C 
HETATM   10  N3  UNL     1      26.668   3.912  50.451  1.00  0.00    -0.389 N 
HETATM   11  C7  UNL     1      24.304   2.486  50.458  1.00  0.00    -0.045 A 
HETATM   12  C8  UNL     1      23.023   1.998  50.613  1.00  0.00     0.008 A 
HETATM   13  C12 UNL     1      25.216   2.282  51.468  1.00  0.00    -0.034 A 
HETATM   14  C9  UNL     1      22.610   1.304  51.754  1.00  0.00     0.001 A 
HETATM   15  C10 UNL     1      23.506   1.088  52.778  1.00  0.00     0.001 A 
HETATM   16  C11 UNL     1      24.774   1.593  52.578  1.00  0.00     0.009 A 
HETATM   17  C13 UNL     1      26.592   2.773  51.376  1.00  0.00     0.158 C 
HETATM   18  H13 UNL     1      27.554   4.454  50.478  1.00  0.00     0.159 HD
ENDBRANCH   4   7
BRANCH   5  19
HETATM   19  N4  UNL     1      24.959   7.302  51.193  1.00  0.00    -0.340 N 
HETATM   20  H14 UNL     1      25.193   7.095  52.185  1.00  0.00     0.167 HD
BRANCH  19  21
HETATM   21  C15 UNL     1      23.616   7.278  50.780  1.00  0.00     0.033 A 
HETATM   22  C16 UNL     1      22.777   6.223  51.125  1.00  0.00     0.031 A 
HETATM   23  C17 UNL     1      21.473   6.248  50.697  1.00  0.00     0.026 A 
HETATM   24  C18 UNL     1      20.955   7.270  49.941  1.00  0.00     0.034 A 
HETATM   25 CL1  UNL     1      19.290   7.292  49.400  1.00  0.00    -0.084 Cl
HETATM   26  C19 UNL     1      21.740   8.352  49.563  1.00  0.00     0.026 A 
HETATM   27  C20 UNL     1      23.045   8.276  50.022  1.00  0.00     0.031 A 
ENDBRANCH  19  21
ENDBRANCH   5  19
BRANCH   1  28
HETATM   28  N1  UNL     1      28.401  10.219  49.853  1.00  0.00    -0.271 NA
HETATM   29  H1  UNL     1      27.600  10.837  50.175  1.00  0.00     0.127 HD
HETATM   30  H2  UNL     1      27.731  10.969  50.205  1.00  0.00     0.127 HD
ENDBRANCH   1  28
TORSDOF 4
ENDMDL
MODEL 9
REMARK VINA RESULT:      -8.3      3.421      7.083
REMARK  4 active torsions:
REMARK  status: ('A' for Active; 'I' for Inactive)
REMARK    1  A    between atoms: N1_1  and  C1_2 
REMARK    2  A    between atoms: C3_5  and  C4_6 
REMARK    3  A    between atoms: C14_17  and  N4_18 
REMARK    4  A    between atoms: N4_18  and  C15_19 
ROOT
HETATM    1  C1  UNL     1      21.913   4.412  46.758  1.00  0.00     0.201 A 
HETATM    2  N2  UNL     1      21.417   3.188  47.066  1.00  0.00    -0.230 NA
HETATM    3  C2  UNL     1      21.872   2.606  48.188  1.00  0.00     0.135 A 
HETATM    4  C3  UNL     1      22.796   3.208  48.992  1.00  0.00     0.029 A 
HETATM    5  C14 UNL     1      23.296   4.448  48.676  1.00  0.00     0.143 A 
HETATM    6  N5  UNL     1      22.834   5.023  47.551  1.00  0.00    -0.200 NA
ENDROOT
BRANCH   4   7
HETATM    7  C4  UNL     1      23.237   2.524  50.197  1.00  0.00     0.041 C 
HETATM    8  C5  UNL     1      22.675   2.275  51.392  1.00  0.00     0.010 C 
HETATM    9  C6  UNL     1      23.392   1.524  52.463  1.00  0.00     0.095 C 
HETATM   10  N3  UNL     1      21.362   2.731  51.690  1.00  0.00    -0.389 N 
HETATM   11  C7  UNL     1      22.413   0.568  53.044  1.00  0.00    -0.045 A 
HETATM   12  C8  UNL     1      22.874  -0.658  53.480  1.00  0.00     0.008 A 
HETATM   13  C12 UNL     1      21.073   0.852  53.167  1.00  0.00    -0.034 A 
HETATM   14  C9  UNL     1      22.035  -1.625  54.042  1.00  0.00     0.001 A 
HETATM   15  C10 UNL     1      20.690  -1.363  54.175  1.00  0.00     0.001 A 
HETATM   16  C11 UNL     1      20.276  -0.125  53.727  1.00  0.00     0.009 A 
HETATM   17  C13 UNL     1      20.511   2.130  52.725  1.00  0.00     0.158 C 
HETATM   18  H13 UNL     1      20.943   3.529  51.171  1.00  0.00     0.159 HD
ENDBRANCH   4   7
BRANCH   5  19
HETATM   19  N4  UNL     1      24.264   5.062  49.536  1.00  0.00    -0.340 N 
HETATM   20  H14 UNL     1      24.002   5.264  50.522  1.00  0.00     0.167 HD
BRANCH  19  21
HETATM   21  C15 UNL     1      25.552   5.395  49.082  1.00  0.00     0.033 A 
HETATM   22  C16 UNL     1      26.591   4.471  49.127  1.00  0.00     0.031 A 
HETATM   23  C17 UNL     1      27.830   4.845  48.670  1.00  0.00     0.026 A 
HETATM   24  C18 UNL     1      28.094   6.095  48.167  1.00  0.00     0.034 A 
HETATM   25 CL1  UNL     1      29.678   6.562  47.586  1.00  0.00    -0.084 Cl
HETATM   26  C19 UNL     1      27.100   7.063  48.094  1.00  0.00     0.026 A 
HETATM   27  C20 UNL     1      25.871   6.632  48.568  1.00  0.00     0.031 A 
ENDBRANCH  19  21
ENDBRANCH   5  19
BRANCH   1  28
HETATM   28  N1  UNL     1      21.626   5.280  45.645  1.00  0.00    -0.271 NA
HETATM   29  H1  UNL     1      20.591   5.501  45.727  1.00  0.00     0.127 HD
HETATM   30  H2  UNL     1      20.614   5.605  45.571  1.00  0.00     0.127 HD
ENDBRANCH   1  28
TORSDOF 4
ENDMDL
