MODEL 1
REMARK VINA RESULT:      -8.5      0.000      0.000
REMARK  4 active torsions:
REMARK  status: ('A' for Active; 'I' for Inactive)
REMARK    1  A    between atoms: N1_1  and  C1_2 
REMARK    2  A    between atoms: C8_10  and  C9_11 
REMARK    3  A    between atoms: N2_18  and  C15_19 
REMARK    4  A    between atoms: C16_21  and  O1_22 
ROOT
HETATM    1  C1  UNL     1      26.245   1.243  54.164  1.00  0.00     0.275 A 
HETATM    2  C2  UNL     1      27.626   0.730  54.361  1.00  0.00     0.053 A 
HETATM    3  C3  UNL     1      28.317  -0.287  53.871  1.00  0.00     0.114 A 
HETATM    4  F1  UNL     1      29.598  -0.593  54.184  1.00  0.00    -0.206 F 
HETATM    5  C4  UNL     1      27.537  -1.088  52.917  1.00  0.00     0.040 A 
HETATM    6  C5  UNL     1      26.289  -0.745  52.645  1.00  0.00     0.010 A 
HETATM    7  C6  UNL     1      25.492   0.389  53.181  1.00  0.00     0.089 A 
HETATM    8  C7  UNL     1      24.152  -0.092  53.632  1.00  0.00     0.068 C 
HETATM    9  C8  UNL     1      23.772   0.145  52.184  1.00  0.00     0.123 C 
HETATM   10  N2  UNL     1      24.828   1.135  52.116  1.00  0.00    -0.336 N 
ENDROOT
BRANCH   1  11
HETATM   11  N1  UNL     1      26.250   2.635  53.823  1.00  0.00     0.089 N 
HETATM   12  H1  UNL     1      25.376   2.897  53.342  1.00  0.00     0.313 HD
HETATM   13  H2  UNL     1      26.416   3.257  54.650  1.00  0.00     0.313 HD
ENDBRANCH   1  11
BRANCH  10  14
HETATM   14  C15 UNL     1      25.201   2.342  51.400  1.00  0.00     0.172 A 
HETATM   15  N3  UNL     1      26.235   2.694  50.780  1.00  0.00    -0.200 NA
HETATM   16  C16 UNL     1      26.282   3.882  50.217  1.00  0.00     0.171 A 
HETATM   17  C17 UNL     1      25.223   4.762  50.285  1.00  0.00     0.111 A 
HETATM   18  S1  UNL     1      23.996   3.832  51.255  1.00  0.00    -0.060 SA
BRANCH  16  19
HETATM   19  O1  UNL     1      27.512   4.121  49.562  1.00  0.00    -0.344 OA
HETATM   20  H14 UNL     1      27.967   3.323  49.141  1.00  0.00     0.219 HD
ENDBRANCH  16  19
ENDBRANCH  10  14
BRANCH   9  21
HETATM   21  C9  UNL     1      22.399   0.697  52.070  1.00  0.00    -0.035 A 
HETATM   22  C10 UNL     1      21.678   1.262  53.121  1.00  0.00     0.010 A 
HETATM   23  C11 UNL     1      20.407   1.750  52.927  1.00  0.00     0.019 A 
HETATM   24  C12 UNL     1      19.793   1.698  51.684  1.00  0.00     0.011 A 
HETATM   25 BR1  UNL     1      18.023   2.376  51.409  1.00  0.00    -0.051 Br
HETATM   26  C13 UNL     1      20.510   1.133  50.630  1.00  0.00     0.019 A 
HETATM   27  C14 UNL     1      21.785   0.647  50.839  1.00  0.00     0.010 A 
ENDBRANCH   9  21
TORSDOF 4
ENDMDL
MODEL 2
REMARK VINA RESULT:      -8.2      3.772      6.148
REMARK  4 active torsions:
REMARK  status: ('A' for Active; 'I' for Inactive)
REMARK    1  A    between atoms: N1_1  and  C1_2 
REMARK    2  A    between atoms: C8_10  and  C9_11 
REMARK    3  A    between atoms: N2_18  and  C15_19 
REMARK    4  A    between atoms: C16_21  and  O1_22 
ROOT
HETATM    1  C1  UNL     1      21.677   0.278  51.200  1.00  0.00     0.275 A 
HETATM    2  C2  UNL     1      20.205   0.482  51.205  1.00  0.00     0.053 A 
HETATM    3  C3  UNL     1      19.296   0.663  52.150  1.00  0.00     0.114 A 
HETATM    4  F1  UNL     1      17.969   0.834  51.944  1.00  0.00    -0.206 F 
HETATM    5  C4  UNL     1      19.880   0.662  53.498  1.00  0.00     0.040 A 
HETATM    6  C5  UNL     1      21.184   0.492  53.644  1.00  0.00     0.010 A 
HETATM    7  C6  UNL     1      22.223   0.286  52.602  1.00  0.00     0.089 A 
HETATM    8  C7  UNL     1      23.094  -0.872  52.966  1.00  0.00     0.068 C 
HETATM    9  C8  UNL     1      23.874   0.177  53.731  1.00  0.00     0.123 C 
HETATM   10  N2  UNL     1      23.371   1.166  52.800  1.00  0.00    -0.336 N 
ENDROOT
BRANCH   1  11
HETATM   11  N1  UNL     1      22.329   1.213  50.330  1.00  0.00     0.089 N 
HETATM   12  H1  UNL     1      22.601   2.064  50.846  1.00  0.00     0.313 HD
HETATM   13  H2  UNL     1      23.156   0.801  49.836  1.00  0.00     0.313 HD
ENDBRANCH   1  11
BRANCH  10  14
HETATM   14  C15 UNL     1      23.713   2.455  52.227  1.00  0.00     0.172 A 
HETATM   15  N3  UNL     1      24.716   2.887  51.606  1.00  0.00    -0.200 NA
HETATM   16  C16 UNL     1      24.740   4.138  51.199  1.00  0.00     0.171 A 
HETATM   17  C17 UNL     1      23.690   4.999  51.432  1.00  0.00     0.111 A 
HETATM   18  S1  UNL     1      22.508   3.949  52.334  1.00  0.00    -0.060 SA
BRANCH  16  19
HETATM   19  O1  UNL     1      25.937   4.461  50.519  1.00  0.00    -0.344 OA
HETATM   20  H14 UNL     1      26.124   3.962  49.661  1.00  0.00     0.219 HD
ENDBRANCH  16  19
ENDBRANCH  10  14
BRANCH   9  21
HETATM   21  C9  UNL     1      25.335  -0.067  53.645  1.00  0.00    -0.035 A 
HETATM   22  C10 UNL     1      25.970  -0.731  52.598  1.00  0.00     0.010 A 
HETATM   23  C11 UNL     1      27.333  -0.915  52.599  1.00  0.00     0.019 A 
HETATM   24  C12 UNL     1      28.127  -0.450  53.637  1.00  0.00     0.011 A 
HETATM   25 BR1  UNL     1      30.025  -0.704  53.642  1.00  0.00    -0.051 Br
HETATM   26  C13 UNL     1      27.495   0.215  54.688  1.00  0.00     0.019 A 
HETATM   27  C14 UNL     1      26.126   0.392  54.674  1.00  0.00     0.010 A 
ENDBRANCH   9  21
TORSDOF 4
ENDMDL
MODEL 3
REMARK VINA RESULT:      -7.9      3.934      6.234
REMARK  4 active torsions:
REMARK  status: ('A' for Active; 'I' for Inactive)
REMARK    1  A    between atoms: N1_1  and  C1_2 
REMARK    2  A    between atoms: C8_10  and  C9_11 
REMARK    3  A    between atoms: N2_18  and  C15_19 
REMARK    4  A    between atoms: C16_21  and  O1_22 
ROOT
HETATM    1  C1  UNL     1      22.383   2.364  49.959  1.00  0.00     0.275 A 
HETATM    2  C2  UNL     1      21.094   3.064  49.721  1.00  0.00     0.053 A 
HETATM    3  C3  UNL     1      20.295   3.816  50.461  1.00  0.00     0.114 A 
HETATM    4  F1  UNL     1      19.133   4.376  50.048  1.00  0.00    -0.206 F 
HETATM    5  C4  UNL     1      20.801   3.995  51.829  1.00  0.00     0.040 A 
HETATM    6  C5  UNL     1      21.943   3.427  52.181  1.00  0.00     0.010 A 
HETATM    7  C6  UNL     1      22.856   2.580  51.370  1.00  0.00     0.089 A 
HETATM    8  C7  UNL     1      23.221   1.346  52.128  1.00  0.00     0.068 C 
HETATM    9  C8  UNL     1      24.317   2.226  52.694  1.00  0.00     0.123 C 
HETATM   10  N2  UNL     1      24.244   3.018  51.483  1.00  0.00    -0.336 N 
ENDROOT
BRANCH   1  11
HETATM   11  N1  UNL     1      23.358   2.719  48.970  1.00  0.00     0.089 N 
HETATM   12  H1  UNL     1      22.942   3.325  48.247  1.00  0.00     0.313 HD
HETATM   13  H2  UNL     1      24.210   3.168  49.382  1.00  0.00     0.313 HD
ENDBRANCH   1  11
BRANCH  10  14
HETATM   14  C15 UNL     1      25.057   3.883  50.648  1.00  0.00     0.172 A 
HETATM   15  N3  UNL     1      26.115   3.707  49.993  1.00  0.00    -0.200 NA
HETATM   16  C16 UNL     1      26.633   4.708  49.313  1.00  0.00     0.171 A 
HETATM   17  C17 UNL     1      26.046   5.955  49.294  1.00  0.00     0.111 A 
HETATM   18  S1  UNL     1      24.586   5.723  50.356  1.00  0.00    -0.060 SA
BRANCH  16  19
HETATM   19  O1  UNL     1      27.818   4.343  48.635  1.00  0.00    -0.344 OA
HETATM   20  H14 UNL     1      27.747   3.594  47.961  1.00  0.00     0.219 HD
ENDBRANCH  16  19
ENDBRANCH  10  14
BRANCH   9  21
HETATM   21  C9  UNL     1      25.583   1.471  52.864  1.00  0.00    -0.035 A 
HETATM   22  C10 UNL     1      25.859   0.239  52.273  1.00  0.00     0.010 A 
HETATM   23  C11 UNL     1      27.062  -0.394  52.485  1.00  0.00     0.019 A 
HETATM   24  C12 UNL     1      28.043   0.164  53.292  1.00  0.00     0.011 A 
HETATM   25 BR1  UNL     1      29.718  -0.714  53.590  1.00  0.00    -0.051 Br
HETATM   26  C13 UNL     1      27.770   1.397  53.885  1.00  0.00     0.019 A 
HETATM   27  C14 UNL     1      26.559   2.020  53.664  1.00  0.00     0.010 A 
ENDBRANCH   9  21
TORSDOF 4
ENDMDL
MODEL 4
REMARK VINA RESULT:      -7.1      4.855      6.841
REMARK  4 active torsions:
REMARK  status: ('A' for Active; 'I' for Inactive)
REMARK    1  A    between atoms: N1_1  and  C1_2 
REMARK    2  A    between atoms: C8_10  and  C9_11 
REMARK    3  A    between atoms: N2_18  and  C15_19 
REMARK    4  A    between atoms: C16_21  and  O1_22 
ROOT
HETATM    1  C1  UNL     1      21.718   0.923  50.385  1.00  0.00     0.275 A 
HETATM    2  C2  UNL     1      20.467   0.430  51.016  1.00  0.00     0.053 A 
HETATM    3  C3  UNL     1      19.644   0.903  51.939  1.00  0.00     0.114 A 
HETATM    4  F1  UNL     1      18.526   0.285  52.389  1.00  0.00    -0.206 F 
HETATM    5  C4  UNL     1      20.070   2.212  52.453  1.00  0.00     0.040 A 
HETATM    6  C5  UNL     1      21.169   2.773  51.978  1.00  0.00     0.010 A 
HETATM    7  C6  UNL     1      22.109   2.263  50.945  1.00  0.00     0.089 A 
HETATM    8  C7  UNL     1      23.517   2.380  51.428  1.00  0.00     0.068 C 
HETATM    9  C8  UNL     1      23.419   3.776  50.848  1.00  0.00     0.123 C 
HETATM   10  N2  UNL     1      22.407   3.277  49.937  1.00  0.00    -0.336 N 
ENDROOT
BRANCH   1  11
HETATM   11  N1  UNL     1      21.620   0.910  48.955  1.00  0.00     0.089 N 
HETATM   12  H1  UNL     1      20.684   1.218  48.650  1.00  0.00     0.313 HD
HETATM   13  H2  UNL     1      22.365   1.482  48.490  1.00  0.00     0.313 HD
ENDBRANCH   1  11
BRANCH  10  14
HETATM   14  C15 UNL     1      21.839   3.537  48.628  1.00  0.00     0.172 A 
HETATM   15  N3  UNL     1      22.277   3.418  47.456  1.00  0.00    -0.200 NA
HETATM   16  C16 UNL     1      21.508   3.743  46.439  1.00  0.00     0.171 A 
HETATM   17  C17 UNL     1      20.225   4.212  46.617  1.00  0.00     0.111 A 
HETATM   18  S1  UNL     1      20.050   4.210  48.429  1.00  0.00    -0.060 SA
BRANCH  16  19
HETATM   19  O1  UNL     1      22.150   3.550  45.194  1.00  0.00    -0.344 OA
HETATM   20  H14 UNL     1      21.920   4.200  44.456  1.00  0.00     0.219 HD
ENDBRANCH  16  19
ENDBRANCH  10  14
BRANCH   9  21
HETATM   21  C9  UNL     1      24.690   4.181  50.198  1.00  0.00    -0.035 A 
HETATM   22  C10 UNL     1      25.719   3.308  49.851  1.00  0.00     0.010 A 
HETATM   23  C11 UNL     1      26.867   3.770  49.250  1.00  0.00     0.019 A 
HETATM   24  C12 UNL     1      27.047   5.116  48.969  1.00  0.00     0.011 A 
HETATM   25 BR1  UNL     1      28.643   5.764  48.133  1.00  0.00    -0.051 Br
HETATM   26  C13 UNL     1      26.019   5.993  49.315  1.00  0.00     0.019 A 
HETATM   27  C14 UNL     1      24.873   5.516  49.917  1.00  0.00     0.010 A 
ENDBRANCH   9  21
TORSDOF 4
ENDMDL
MODEL 5
REMARK VINA RESULT:      -7.0      7.086      9.316
REMARK  4 active torsions:
REMARK  status: ('A' for Active; 'I' for Inactive)
REMARK    1  A    between atoms: N1_1  and  C1_2 
REMARK    2  A    between atoms: C8_10  and  C9_11 
REMARK    3  A    between atoms: N2_18  and  C15_19 
REMARK    4  A    between atoms: C16_21  and  O1_22 
ROOT
HETATM    1  C1  UNL     1      32.022   7.534  49.324  1.00  0.00     0.275 A 
HETATM    2  C2  UNL     1      33.439   7.741  48.925  1.00  0.00     0.053 A 
HETATM    3  C3  UNL     1      34.130   7.539  47.815  1.00  0.00     0.114 A 
HETATM    4  F1  UNL     1      35.448   7.799  47.648  1.00  0.00    -0.206 F 
HETATM    5  C4  UNL     1      33.304   6.983  46.733  1.00  0.00     0.040 A 
HETATM    6  C5  UNL     1      32.020   6.748  46.948  1.00  0.00     0.010 A 
HETATM    7  C6  UNL     1      31.223   6.966  48.184  1.00  0.00     0.089 A 
HETATM    8  C7  UNL     1      30.420   5.746  48.498  1.00  0.00     0.068 C 
HETATM    9  C8  UNL     1      29.408   6.384  47.568  1.00  0.00     0.123 C 
HETATM   10  N2  UNL     1      29.976   7.673  47.907  1.00  0.00    -0.336 N 
ENDROOT
BRANCH   1  11
HETATM   11  N1  UNL     1      31.457   8.730  49.876  1.00  0.00     0.089 N 
HETATM   12  H1  UNL     1      30.580   8.522  50.378  1.00  0.00     0.313 HD
HETATM   13  H2  UNL     1      32.123   9.247  50.497  1.00  0.00     0.313 HD
ENDBRANCH   1  11
BRANCH  10  14
HETATM   14  C15 UNL     1      29.621   9.078  47.987  1.00  0.00     0.172 A 
HETATM   15  N3  UNL     1      28.961   9.757  48.813  1.00  0.00    -0.200 NA
HETATM   16  C16 UNL     1      28.804  11.048  48.614  1.00  0.00     0.171 A 
HETATM   17  C17 UNL     1      29.346  11.687  47.520  1.00  0.00     0.111 A 
HETATM   18  S1  UNL     1      30.185  10.330  46.643  1.00  0.00    -0.060 SA
BRANCH  16  19
HETATM   19  O1  UNL     1      28.039  11.662  49.632  1.00  0.00    -0.344 OA
HETATM   20  H14 UNL     1      28.549  12.138  50.362  1.00  0.00     0.219 HD
ENDBRANCH  16  19
ENDBRANCH  10  14
BRANCH   9  21
HETATM   21  C9  UNL     1      28.021   6.173  48.053  1.00  0.00    -0.035 A 
HETATM   22  C10 UNL     1      26.986   7.097  47.930  1.00  0.00     0.010 A 
HETATM   23  C11 UNL     1      25.727   6.820  48.410  1.00  0.00     0.019 A 
HETATM   24  C12 UNL     1      25.438   5.615  49.034  1.00  0.00     0.011 A 
HETATM   25 BR1  UNL     1      23.688   5.224  49.704  1.00  0.00    -0.051 Br
HETATM   26  C13 UNL     1      26.472   4.686  49.159  1.00  0.00     0.019 A 
HETATM   27  C14 UNL     1      27.730   4.979  48.673  1.00  0.00     0.010 A 
ENDBRANCH   9  21
TORSDOF 4
ENDMDL
MODEL 6
REMARK VINA RESULT:      -6.9      8.072      9.351
REMARK  4 active torsions:
REMARK  status: ('A' for Active; 'I' for Inactive)
REMARK    1  A    between atoms: N1_1  and  C1_2 
REMARK    2  A    between atoms: C8_10  and  C9_11 
REMARK    3  A    between atoms: N2_18  and  C15_19 
REMARK    4  A    between atoms: C16_21  and  O1_22 
ROOT
HETATM    1  C1  UNL     1      31.611   6.497  49.379  1.00  0.00     0.275 A 
HETATM    2  C2  UNL     1      32.990   6.022  49.095  1.00  0.00     0.053 A 
HETATM    3  C3  UNL     1      33.613   5.570  48.018  1.00  0.00     0.114 A 
HETATM    4  F1  UNL     1      34.908   5.177  47.963  1.00  0.00    -0.206 F 
HETATM    5  C4  UNL     1      32.738   5.532  46.838  1.00  0.00     0.040 A 
HETATM    6  C5  UNL     1      31.481   5.928  46.945  1.00  0.00     0.010 A 
HETATM    7  C6  UNL     1      30.759   6.438  48.140  1.00  0.00     0.089 A 
HETATM    8  C7  UNL     1      29.449   5.736  48.287  1.00  0.00     0.068 C 
HETATM    9  C8  UNL     1      28.957   6.825  47.356  1.00  0.00     0.123 C 
HETATM   10  N2  UNL     1      30.029   7.668  47.849  1.00  0.00    -0.336 N 
ENDROOT
BRANCH   1  11
HETATM   11  N1  UNL     1      31.624   7.789  50.001  1.00  0.00     0.089 N 
HETATM   12  H1  UNL     1      32.456   8.325  49.712  1.00  0.00     0.313 HD
HETATM   13  H2  UNL     1      30.750   8.337  49.817  1.00  0.00     0.313 HD
ENDBRANCH   1  11
BRANCH  10  14
HETATM   14  C15 UNL     1      30.372   9.065  48.036  1.00  0.00     0.172 A 
HETATM   15  N3  UNL     1      29.929   9.972  48.784  1.00  0.00    -0.200 NA
HETATM   16  C16 UNL     1      30.455  11.177  48.727  1.00  0.00     0.171 A 
HETATM   17  C17 UNL     1      31.488  11.480  47.867  1.00  0.00     0.111 A 
HETATM   18  S1  UNL     1      31.775   9.895  47.018  1.00  0.00    -0.060 SA
BRANCH  16  19
HETATM   19  O1  UNL     1      29.844  12.075  49.631  1.00  0.00    -0.344 OA
HETATM   20  H14 UNL     1      29.785  13.042  49.344  1.00  0.00     0.219 HD
ENDBRANCH  16  19
ENDBRANCH  10  14
BRANCH   9  21
HETATM   21  C9  UNL     1      27.594   7.278  47.727  1.00  0.00    -0.035 A 
HETATM   22  C10 UNL     1      26.898   6.862  48.860  1.00  0.00     0.010 A 
HETATM   23  C11 UNL     1      25.634   7.333  49.129  1.00  0.00     0.019 A 
HETATM   24  C12 UNL     1      25.003   8.236  48.286  1.00  0.00     0.011 A 
HETATM   25 BR1  UNL     1      23.244   8.895  48.655  1.00  0.00    -0.051 Br
HETATM   26  C13 UNL     1      25.696   8.656  47.150  1.00  0.00     0.019 A 
HETATM   27  C14 UNL     1      26.964   8.174  46.894  1.00  0.00     0.010 A 
ENDBRANCH   9  21
TORSDOF 4
ENDMDL
MODEL 7
REMARK VINA RESULT:      -6.9      1.907      2.326
REMARK  4 active torsions:
REMARK  status: ('A' for Active; 'I' for Inactive)
REMARK    1  A    between atoms: N1_1  and  C1_2 
REMARK    2  A    between atoms: C8_10  and  C9_11 
REMARK    3  A    between atoms: N2_18  and  C15_19 
REMARK    4  A    between atoms: C16_21  and  O1_22 
ROOT
HETATM    1  C1  UNL     1      24.735   2.506  53.428  1.00  0.00     0.275 A 
HETATM    2  C2  UNL     1      26.090   2.175  53.941  1.00  0.00     0.053 A 
HETATM    3  C3  UNL     1      27.094   1.433  53.501  1.00  0.00     0.114 A 
HETATM    4  F1  UNL     1      28.279   1.255  54.132  1.00  0.00    -0.206 F 
HETATM    5  C4  UNL     1      26.796   0.792  52.212  1.00  0.00     0.040 A 
HETATM    6  C5  UNL     1      25.623   1.000  51.637  1.00  0.00     0.010 A 
HETATM    7  C6  UNL     1      24.482   1.826  52.110  1.00  0.00     0.089 A 
HETATM    8  C7  UNL     1      23.210   1.049  52.014  1.00  0.00     0.068 C 
HETATM    9  C8  UNL     1      23.190   1.586  50.598  1.00  0.00     0.123 C 
HETATM   10  N2  UNL     1      23.980   2.709  51.061  1.00  0.00    -0.336 N 
ENDROOT
BRANCH   1  11
HETATM   11  N1  UNL     1      24.525   3.923  53.388  1.00  0.00     0.089 N 
HETATM   12  H1  UNL     1      23.759   4.197  54.023  1.00  0.00     0.313 HD
HETATM   13  H2  UNL     1      25.393   4.469  53.601  1.00  0.00     0.313 HD
ENDBRANCH   1  11
BRANCH  10  14
HETATM   14  C15 UNL     1      24.257   4.100  50.751  1.00  0.00     0.172 A 
HETATM   15  N3  UNL     1      25.302   4.727  50.448  1.00  0.00    -0.200 NA
HETATM   16  C16 UNL     1      25.241   6.020  50.217  1.00  0.00     0.171 A 
HETATM   17  C17 UNL     1      24.054   6.718  50.295  1.00  0.00     0.111 A 
HETATM   18  S1  UNL     1      22.861   5.421  50.751  1.00  0.00    -0.060 SA
BRANCH  16  19
HETATM   19  O1  UNL     1      26.500   6.571  49.889  1.00  0.00    -0.344 OA
HETATM   20  H14 UNL     1      27.291   6.259  50.435  1.00  0.00     0.219 HD
ENDBRANCH  16  19
ENDBRANCH  10  14
BRANCH   9  21
HETATM   21  C9  UNL     1      21.812   1.933  50.171  1.00  0.00    -0.035 A 
HETATM   22  C10 UNL     1      20.769   2.257  51.037  1.00  0.00     0.010 A 
HETATM   23  C11 UNL     1      19.519   2.567  50.556  1.00  0.00     0.019 A 
HETATM   24  C12 UNL     1      19.245   2.569  49.196  1.00  0.00     0.011 A 
HETATM   25 BR1  UNL     1      17.506   2.999  48.521  1.00  0.00    -0.051 Br
HETATM   26  C13 UNL     1      20.287   2.245  48.326  1.00  0.00     0.019 A 
HETATM   27  C14 UNL     1      21.536   1.936  48.823  1.00  0.00     0.010 A 
ENDBRANCH   9  21
TORSDOF 4
ENDMDL
MODEL 8
REMARK VINA RESULT:      -6.8      4.530      6.431
REMARK  4 active torsions:
REMARK  status: ('A' for Active; 'I' for Inactive)
REMARK    1  A    between atoms: N1_1  and  C1_2 
REMARK    2  A    between atoms: C8_10  and  C9_11 
REMARK    3  A    between atoms: N2_18  and  C15_19 
REMARK    4  A    between atoms: C16_21  and  O1_22 
ROOT
HETATM    1  C1  UNL     1      23.271   6.265  51.058  1.00  0.00     0.275 A 
HETATM    2  C2  UNL     1      23.612   7.415  50.181  1.00  0.00     0.053 A 
HETATM    3  C3  UNL     1      24.074   7.537  48.946  1.00  0.00     0.114 A 
HETATM    4  F1  UNL     1      24.325   8.705  48.310  1.00  0.00    -0.206 F 
HETATM    5  C4  UNL     1      24.299   6.235  48.301  1.00  0.00     0.040 A 
HETATM    6  C5  UNL     1      24.036   5.123  48.966  1.00  0.00     0.010 A 
HETATM    7  C6  UNL     1      23.519   4.961  50.351  1.00  0.00     0.089 A 
HETATM    8  C7  UNL     1      24.348   3.966  51.096  1.00  0.00     0.068 C 
HETATM    9  C8  UNL     1      23.394   2.966  50.475  1.00  0.00     0.123 C 
HETATM   10  N2  UNL     1      22.404   4.021  50.406  1.00  0.00    -0.336 N 
ENDROOT
BRANCH   1  11
HETATM   11  N1  UNL     1      21.942   6.386  51.582  1.00  0.00     0.089 N 
HETATM   12  H1  UNL     1      21.250   6.414  50.818  1.00  0.00     0.313 HD
HETATM   13  H2  UNL     1      21.704   5.630  52.267  1.00  0.00     0.313 HD
ENDBRANCH   1  11
BRANCH  10  14
HETATM   14  C15 UNL     1      20.966   4.222  50.389  1.00  0.00     0.172 A 
HETATM   15  N3  UNL     1      20.052   3.998  51.221  1.00  0.00    -0.200 NA
HETATM   16  C16 UNL     1      18.807   4.293  50.915  1.00  0.00     0.171 A 
HETATM   17  C17 UNL     1      18.469   4.847  49.699  1.00  0.00     0.111 A 
HETATM   18  S1  UNL     1      20.080   4.979  48.861  1.00  0.00    -0.060 SA
BRANCH  16  19
HETATM   19  O1  UNL     1      17.906   3.980  51.957  1.00  0.00    -0.344 OA
HETATM   20  H14 UNL     1      18.127   3.175  52.526  1.00  0.00     0.219 HD
ENDBRANCH  16  19
ENDBRANCH  10  14
BRANCH   9  21
HETATM   21  C9  UNL     1      23.067   1.872  51.423  1.00  0.00    -0.035 A 
HETATM   22  C10 UNL     1      23.713   1.653  52.638  1.00  0.00     0.010 A 
HETATM   23  C11 UNL     1      23.345   0.611  53.458  1.00  0.00     0.019 A 
HETATM   24  C12 UNL     1      22.323  -0.260  53.110  1.00  0.00     0.011 A 
HETATM   25 BR1  UNL     1      21.808  -1.711  54.248  1.00  0.00    -0.051 Br
HETATM   26  C13 UNL     1      21.675  -0.044  51.893  1.00  0.00     0.019 A 
HETATM   27  C14 UNL     1      22.055   1.005  51.081  1.00  0.00     0.010 A 
ENDBRANCH   9  21
TORSDOF 4
ENDMDL
MODEL 9
REMARK VINA RESULT:      -6.6      4.286      5.557
REMARK  4 active torsions:
REMARK  status: ('A' for Active; 'I' for Inactive)
REMARK    1  A    between atoms: N1_1  and  C1_2 
REMARK    2  A    between atoms: C8_10  and  C9_11 
REMARK    3  A    between atoms: N2_18  and  C15_19 
REMARK    4  A    between atoms: C16_21  and  O1_22 
ROOT
HETATM    1  C1  UNL     1      20.126   1.781  52.295  1.00  0.00     0.275 A 
HETATM    2  C2  UNL     1      20.417   1.013  53.534  1.00  0.00     0.053 A 
HETATM    3  C3  UNL     1      21.266   0.049  53.851  1.00  0.00     0.114 A 
HETATM    4  F1  UNL     1      21.379  -0.534  55.068  1.00  0.00    -0.206 F 
HETATM    5  C4  UNL     1      22.111  -0.350  52.716  1.00  0.00     0.040 A 
HETATM    6  C5  UNL     1      21.961   0.252  51.548  1.00  0.00     0.010 A 
HETATM    7  C6  UNL     1      21.017   1.335  51.168  1.00  0.00     0.089 A 
HETATM    8  C7  UNL     1      20.323   0.987  49.891  1.00  0.00     0.068 C 
HETATM    9  C8  UNL     1      21.537   1.634  49.257  1.00  0.00     0.123 C 
HETATM   10  N2  UNL     1      21.693   2.421  50.464  1.00  0.00    -0.336 N 
ENDROOT
BRANCH   1  11
HETATM   11  N1  UNL     1      20.175   3.194  52.534  1.00  0.00     0.089 N 
HETATM   12  H1  UNL     1      19.525   3.693  51.909  1.00  0.00     0.313 HD
HETATM   13  H2  UNL     1      19.990   3.444  53.534  1.00  0.00     0.313 HD
ENDBRANCH   1  11
BRANCH  10  14
HETATM   14  C15 UNL     1      22.231   3.687  50.925  1.00  0.00     0.172 A 
HETATM   15  N3  UNL     1      21.833   4.876  50.846  1.00  0.00    -0.200 NA
HETATM   16  C16 UNL     1      22.555   5.840  51.375  1.00  0.00     0.171 A 
HETATM   17  C17 UNL     1      23.746   5.586  52.020  1.00  0.00     0.111 A 
HETATM   18  S1  UNL     1      23.896   3.777  51.881  1.00  0.00    -0.060 SA
BRANCH  16  19
HETATM   19  O1  UNL     1      21.968   7.113  51.200  1.00  0.00    -0.344 OA
HETATM   20  H14 UNL     1      21.774   7.646  52.036  1.00  0.00     0.219 HD
ENDBRANCH  16  19
ENDBRANCH  10  14
BRANCH   9  21
HETATM   21  C9  UNL     1      21.163   2.417  48.052  1.00  0.00    -0.035 A 
HETATM   22  C10 UNL     1      19.867   2.817  47.734  1.00  0.00     0.010 A 
HETATM   23  C11 UNL     1      19.609   3.542  46.594  1.00  0.00     0.019 A 
HETATM   24  C12 UNL     1      20.623   3.902  45.719  1.00  0.00     0.011 A 
HETATM   25 BR1  UNL     1      20.268   4.910  44.131  1.00  0.00    -0.051 Br
HETATM   26  C13 UNL     1      21.922   3.503  46.034  1.00  0.00     0.019 A 
HETATM   27  C14 UNL     1      22.166   2.776  47.181  1.00  0.00     0.010 A 
ENDBRANCH   9  21
TORSDOF 4
ENDMDL
