MODEL 1
REMARK VINA RESULT:      -8.9      0.000      0.000
REMARK  5 active torsions:
REMARK  status: ('A' for Active; 'I' for Inactive)
REMARK    1  A    between atoms: C4_5  and  N2_6 
REMARK    2  A    between atoms: N2_6  and  C5_7 
REMARK    3  A    between atoms: C11_15  and  N4_16 
REMARK    4  A    between atoms: N4_16  and  C12_17 
REMARK    5  A    between atoms: C16_21  and  N5_22 
ROOT
HETATM    1  C1  UNL     1      24.570   5.088  49.097  1.00  0.00     0.062 C 
HETATM    2  C2  UNL     1      23.403   4.336  49.723  1.00  0.00     0.318 C 
HETATM    3  N1  UNL     1      23.503   4.503  51.147  1.00  0.00    -0.178 NA
HETATM    4  C3  UNL     1      22.747   3.343  51.651  1.00  0.00     0.208 C 
HETATM    5  C4  UNL     1      23.214   2.251  50.733  1.00  0.00     0.360 C 
HETATM    6  N3  UNL     1      24.512   1.815  51.286  1.00  0.00    -0.040 NA
HETATM    7  C11 UNL     1      25.313   2.827  51.516  1.00  0.00     0.710 C 
HETATM    8  N6  UNL     1      24.847   4.192  51.486  1.00  0.00    -0.148 N 
HETATM    9  N7  UNL     1      23.524   2.904  49.504  1.00  0.00     0.157 N 
HETATM   10  C18 UNL     1      22.733   2.550  48.372  1.00  0.00     0.318 C 
HETATM   11  H25 UNL     1      25.492   4.984  51.717  1.00  0.00     0.199 HD
ENDROOT
BRANCH   7  12
HETATM   12  N4  UNL     1      26.712   2.660  51.813  1.00  0.00    -0.219 N 
HETATM   13  H12 UNL     1      27.425   3.182  51.232  1.00  0.00     0.178 HD
BRANCH  12  14
HETATM   14  C12 UNL     1      27.073   1.773  52.904  1.00  0.00     0.101 C 
HETATM   15  C13 UNL     1      28.285   2.306  53.568  1.00  0.00     0.026 C 
HETATM   16  C14 UNL     1      29.178   1.314  54.224  1.00  0.00     0.004 C 
HETATM   17  C15 UNL     1      29.038  -0.103  53.802  1.00  0.00     0.035 C 
HETATM   18  C16 UNL     1      27.604  -0.492  53.488  1.00  0.00     0.220 C 
HETATM   19  C17 UNL     1      27.220   0.391  52.315  1.00  0.00     0.060 C 
BRANCH  18  20
HETATM   20  N5  UNL     1      27.518  -1.886  53.183  1.00  0.00     0.083 N 
HETATM   21  H21 UNL     1      27.539  -2.080  52.164  1.00  0.00     0.313 HD
HETATM   22  H22 UNL     1      28.279  -2.381  53.702  1.00  0.00     0.313 HD
ENDBRANCH  18  20
ENDBRANCH  12  14
ENDBRANCH   7  12
BRANCH   5  23
HETATM   23  N2  UNL     1      22.342   1.134  50.612  1.00  0.00    -0.335 N 
HETATM   24  H7  UNL     1      22.307   0.714  49.645  1.00  0.00     0.164 HD
BRANCH  23  25
HETATM   25  C5  UNL     1      21.539   0.530  51.594  1.00  0.00     0.033 A 
HETATM   26  C6  UNL     1      20.164   0.484  51.586  1.00  0.00     0.029 A 
HETATM   27  C7  UNL     1      19.368  -0.107  52.533  1.00  0.00     0.004 A 
HETATM   28  C8  UNL     1      20.004  -0.713  53.596  1.00  0.00     0.024 A 
HETATM   29  C9  UNL     1      21.380  -0.713  53.680  1.00  0.00     0.036 A 
HETATM   30 CL1  UNL     1      22.182  -1.483  55.031  1.00  0.00    -0.084 Cl
HETATM   31  C10 UNL     1      22.102  -0.097  52.686  1.00  0.00     0.053 A 
ENDBRANCH  23  25
ENDBRANCH   5  23
TORSDOF 5
ENDMDL
MODEL 2
REMARK VINA RESULT:      -8.7      1.128      1.454
REMARK  5 active torsions:
REMARK  status: ('A' for Active; 'I' for Inactive)
REMARK    1  A    between atoms: C4_5  and  N2_6 
REMARK    2  A    between atoms: N2_6  and  C5_7 
REMARK    3  A    between atoms: C11_15  and  N4_16 
REMARK    4  A    between atoms: N4_16  and  C12_17 
REMARK    5  A    between atoms: C16_21  and  N5_22 
ROOT
HETATM    1  C1  UNL     1      24.466   5.134  49.308  1.00  0.00     0.062 C 
HETATM    2  C2  UNL     1      23.329   4.332  49.927  1.00  0.00     0.318 C 
HETATM    3  N1  UNL     1      23.455   4.446  51.354  1.00  0.00    -0.178 NA
HETATM    4  C3  UNL     1      22.736   3.251  51.827  1.00  0.00     0.208 C 
HETATM    5  C4  UNL     1      23.206   2.206  50.857  1.00  0.00     0.360 C 
HETATM    6  N3  UNL     1      24.525   1.778  51.366  1.00  0.00    -0.040 NA
HETATM    7  C11 UNL     1      25.308   2.798  51.620  1.00  0.00     0.710 C 
HETATM    8  N6  UNL     1      24.812   4.153  51.654  1.00  0.00    -0.148 N 
HETATM    9  N7  UNL     1      23.476   2.913  49.649  1.00  0.00     0.157 N 
HETATM   10  C18 UNL     1      22.669   2.587  48.520  1.00  0.00     0.318 C 
HETATM   11  H25 UNL     1      25.445   4.948  51.902  1.00  0.00     0.199 HD
ENDROOT
BRANCH   7  12
HETATM   12  N4  UNL     1      26.716   2.650  51.881  1.00  0.00    -0.219 N 
HETATM   13  H12 UNL     1      27.407   3.189  51.289  1.00  0.00     0.178 HD
BRANCH  12  14
HETATM   14  C12 UNL     1      27.117   1.760  52.955  1.00  0.00     0.101 C 
HETATM   15  C13 UNL     1      28.344   2.299  53.586  1.00  0.00     0.026 C 
HETATM   16  C14 UNL     1      29.265   1.311  54.208  1.00  0.00     0.004 C 
HETATM   17  C15 UNL     1      29.126  -0.105  53.781  1.00  0.00     0.035 C 
HETATM   18  C16 UNL     1      27.686  -0.504  53.507  1.00  0.00     0.220 C 
HETATM   19  C17 UNL     1      27.260   0.383  52.352  1.00  0.00     0.060 C 
BRANCH  18  20
HETATM   20  N5  UNL     1      27.604  -1.897  53.194  1.00  0.00     0.083 N 
HETATM   21  H21 UNL     1      28.012  -2.504  53.930  1.00  0.00     0.313 HD
HETATM   22  H22 UNL     1      26.603  -2.128  52.994  1.00  0.00     0.313 HD
ENDBRANCH  18  20
ENDBRANCH  12  14
ENDBRANCH   7  12
BRANCH   5  23
HETATM   23  N2  UNL     1      22.356   1.075  50.709  1.00  0.00    -0.335 N 
HETATM   24  H7  UNL     1      22.379   0.639  49.750  1.00  0.00     0.164 HD
BRANCH  23  25
HETATM   25  C5  UNL     1      21.510   0.477  51.658  1.00  0.00     0.033 A 
HETATM   26  C6  UNL     1      21.918  -0.127  52.825  1.00  0.00     0.029 A 
HETATM   27  C7  UNL     1      21.104  -0.709  53.763  1.00  0.00     0.004 A 
HETATM   28  C8  UNL     1      19.748  -0.688  53.514  1.00  0.00     0.024 A 
HETATM   29  C9  UNL     1      19.256  -0.101  52.368  1.00  0.00     0.036 A 
HETATM   30 CL1  UNL     1      17.534  -0.077  52.059  1.00  0.00    -0.084 Cl
HETATM   31  C10 UNL     1      20.142   0.459  51.480  1.00  0.00     0.053 A 
ENDBRANCH  23  25
ENDBRANCH   5  23
TORSDOF 5
ENDMDL
MODEL 3
REMARK VINA RESULT:      -8.4      3.188      5.840
REMARK  5 active torsions:
REMARK  status: ('A' for Active; 'I' for Inactive)
REMARK    1  A    between atoms: C4_5  and  N2_6 
REMARK    2  A    between atoms: N2_6  and  C5_7 
REMARK    3  A    between atoms: C11_15  and  N4_16 
REMARK    4  A    between atoms: N4_16  and  C12_17 
REMARK    5  A    between atoms: C16_21  and  N5_22 
ROOT
HETATM    1  C1  UNL     1      21.068   2.225  52.232  1.00  0.00     0.062 C 
HETATM    2  C2  UNL     1      21.720   3.033  51.118  1.00  0.00     0.318 C 
HETATM    3  N1  UNL     1      22.482   2.115  50.315  1.00  0.00    -0.178 NA
HETATM    4  C3  UNL     1      23.472   3.002  49.681  1.00  0.00     0.208 C 
HETATM    5  C4  UNL     1      23.858   3.897  50.823  1.00  0.00     0.360 C 
HETATM    6  N3  UNL     1      24.849   3.121  51.598  1.00  0.00    -0.040 NA
HETATM    7  C11 UNL     1      24.426   1.909  51.864  1.00  0.00     0.710 C 
HETATM    8  N6  UNL     1      23.260   1.350  51.224  1.00  0.00    -0.148 N 
HETATM    9  N7  UNL     1      22.700   3.966  51.652  1.00  0.00     0.157 N 
HETATM   10  C18 UNL     1      22.082   5.244  51.785  1.00  0.00     0.318 C 
HETATM   11  H25 UNL     1      22.964   0.364  51.417  1.00  0.00     0.199 HD
ENDROOT
BRANCH   7  12
HETATM   12  N4  UNL     1      25.084   1.046  52.809  1.00  0.00    -0.219 N 
HETATM   13  H12 UNL     1      24.514   0.599  53.578  1.00  0.00     0.178 HD
BRANCH  12  14
HETATM   14  C12 UNL     1      26.512   0.834  52.654  1.00  0.00     0.101 C 
HETATM   15  C13 UNL     1      26.772  -0.624  52.592  1.00  0.00     0.026 C 
HETATM   16  C14 UNL     1      28.099  -1.086  53.078  1.00  0.00     0.004 C 
HETATM   17  C15 UNL     1      28.854  -0.163  53.962  1.00  0.00     0.035 C 
HETATM   18  C16 UNL     1      28.670   1.298  53.592  1.00  0.00     0.220 C 
HETATM   19  C17 UNL     1      27.188   1.556  53.794  1.00  0.00     0.060 C 
BRANCH  18  20
HETATM   20  N5  UNL     1      29.493   2.131  54.414  1.00  0.00     0.083 N 
HETATM   21  H21 UNL     1      29.308   2.011  55.427  1.00  0.00     0.313 HD
HETATM   22  H22 UNL     1      30.493   1.949  54.164  1.00  0.00     0.313 HD
ENDBRANCH  18  20
ENDBRANCH  12  14
ENDBRANCH   7  12
BRANCH   5  23
HETATM   23  N2  UNL     1      24.409   5.157  50.460  1.00  0.00    -0.335 N 
HETATM   24  H7  UNL     1      23.851   5.986  50.796  1.00  0.00     0.164 HD
BRANCH  23  25
HETATM   25  C5  UNL     1      25.576   5.432  49.728  1.00  0.00     0.033 A 
HETATM   26  C6  UNL     1      26.531   4.508  49.369  1.00  0.00     0.029 A 
HETATM   27  C7  UNL     1      27.670   4.760  48.649  1.00  0.00     0.004 A 
HETATM   28  C8  UNL     1      27.882   6.062  48.248  1.00  0.00     0.024 A 
HETATM   29  C9  UNL     1      26.974   7.049  48.567  1.00  0.00     0.036 A 
HETATM   30 CL1  UNL     1      27.249   8.700  48.054  1.00  0.00    -0.084 Cl
HETATM   31  C10 UNL     1      25.857   6.709  49.291  1.00  0.00     0.053 A 
ENDBRANCH  23  25
ENDBRANCH   5  23
TORSDOF 5
ENDMDL
MODEL 4
REMARK VINA RESULT:      -8.3      2.650      5.131
REMARK  5 active torsions:
REMARK  status: ('A' for Active; 'I' for Inactive)
REMARK    1  A    between atoms: C4_5  and  N2_6 
REMARK    2  A    between atoms: N2_6  and  C5_7 
REMARK    3  A    between atoms: C11_15  and  N4_16 
REMARK    4  A    between atoms: N4_16  and  C12_17 
REMARK    5  A    between atoms: C16_21  and  N5_22 
ROOT
HETATM    1  C1  UNL     1      20.529   0.580  53.638  1.00  0.00     0.062 C 
HETATM    2  C2  UNL     1      20.704   1.138  52.232  1.00  0.00     0.318 C 
HETATM    3  N1  UNL     1      21.587   0.249  51.527  1.00  0.00    -0.178 NA
HETATM    4  C3  UNL     1      22.126   1.119  50.468  1.00  0.00     0.208 C 
HETATM    5  C4  UNL     1      22.374   2.396  51.217  1.00  0.00     0.360 C 
HETATM    6  N3  UNL     1      23.670   2.195  51.897  1.00  0.00    -0.040 NA
HETATM    7  C11 UNL     1      23.709   1.062  52.556  1.00  0.00     0.710 C 
HETATM    8  N6  UNL     1      22.702   0.043  52.382  1.00  0.00    -0.148 N 
HETATM    9  N7  UNL     1      21.399   2.415  52.257  1.00  0.00     0.157 N 
HETATM   10  C18 UNL     1      20.429   3.459  52.209  1.00  0.00     0.318 C 
HETATM   11  H25 UNL     1      22.775  -0.873  52.884  1.00  0.00     0.199 HD
ENDROOT
BRANCH   7  12
HETATM   12  N4  UNL     1      24.749   0.746  53.499  1.00  0.00    -0.219 N 
HETATM   13  H12 UNL     1      24.487   0.545  54.503  1.00  0.00     0.178 HD
BRANCH  12  14
HETATM   14  C12 UNL     1      26.118   0.723  53.017  1.00  0.00     0.101 C 
HETATM   15  C13 UNL     1      26.545  -0.688  52.869  1.00  0.00     0.026 C 
HETATM   16  C14 UNL     1      27.997  -0.966  53.028  1.00  0.00     0.004 C 
HETATM   17  C15 UNL     1      28.808   0.059  53.733  1.00  0.00     0.035 C 
HETATM   18  C16 UNL     1      28.354   1.479  53.443  1.00  0.00     0.220 C 
HETATM   19  C17 UNL     1      26.938   1.541  53.984  1.00  0.00     0.060 C 
BRANCH  18  20
HETATM   20  N5  UNL     1      29.228   2.422  54.069  1.00  0.00     0.083 N 
HETATM   21  H21 UNL     1      29.404   3.262  53.486  1.00  0.00     0.313 HD
HETATM   22  H22 UNL     1      28.831   2.661  55.007  1.00  0.00     0.313 HD
ENDBRANCH  18  20
ENDBRANCH  12  14
ENDBRANCH   7  12
BRANCH   5  23
HETATM   23  N2  UNL     1      22.424   3.576  50.424  1.00  0.00    -0.335 N 
HETATM   24  H7  UNL     1      21.622   3.677  49.747  1.00  0.00     0.164 HD
BRANCH  23  25
HETATM   25  C5  UNL     1      23.383   4.602  50.428  1.00  0.00     0.033 A 
HETATM   26  C6  UNL     1      23.290   5.781  51.131  1.00  0.00     0.029 A 
HETATM   27  C7  UNL     1      24.220   6.788  51.150  1.00  0.00     0.004 A 
HETATM   28  C8  UNL     1      25.358   6.604  50.393  1.00  0.00     0.024 A 
HETATM   29  C9  UNL     1      25.530   5.450  49.659  1.00  0.00     0.036 A 
HETATM   30 CL1  UNL     1      26.977   5.222  48.700  1.00  0.00    -0.084 Cl
HETATM   31  C10 UNL     1      24.548   4.491  49.696  1.00  0.00     0.053 A 
ENDBRANCH  23  25
ENDBRANCH   5  23
TORSDOF 5
ENDMDL
MODEL 5
REMARK VINA RESULT:      -8.0      3.154      5.325
REMARK  5 active torsions:
REMARK  status: ('A' for Active; 'I' for Inactive)
REMARK    1  A    between atoms: C4_5  and  N2_6 
REMARK    2  A    between atoms: N2_6  and  C5_7 
REMARK    3  A    between atoms: C11_15  and  N4_16 
REMARK    4  A    between atoms: N4_16  and  C12_17 
REMARK    5  A    between atoms: C16_21  and  N5_22 
ROOT
HETATM    1  C1  UNL     1      21.378   0.623  51.352  1.00  0.00     0.062 C 
HETATM    2  C2  UNL     1      21.667   2.059  50.935  1.00  0.00     0.318 C 
HETATM    3  N1  UNL     1      22.979   2.075  50.346  1.00  0.00    -0.178 NA
HETATM    4  C3  UNL     1      23.376   3.484  50.510  1.00  0.00     0.208 C 
HETATM    5  C4  UNL     1      22.897   3.778  51.902  1.00  0.00     0.360 C 
HETATM    6  N3  UNL     1      23.947   3.238  52.790  1.00  0.00    -0.040 NA
HETATM    7  C11 UNL     1      24.264   2.003  52.482  1.00  0.00     0.710 C 
HETATM    8  N6  UNL     1      23.826   1.386  51.253  1.00  0.00    -0.148 N 
HETATM    9  N7  UNL     1      21.766   2.931  52.093  1.00  0.00     0.157 N 
HETATM   10  C18 UNL     1      20.508   3.575  52.283  1.00  0.00     0.318 C 
HETATM   11  H25 UNL     1      24.128   0.415  51.006  1.00  0.00     0.199 HD
ENDROOT
BRANCH   7  12
HETATM   12  N4  UNL     1      25.067   1.171  53.338  1.00  0.00    -0.219 N 
HETATM   13  H12 UNL     1      24.618   0.720  54.183  1.00  0.00     0.178 HD
BRANCH  12  14
HETATM   14  C12 UNL     1      26.466   0.993  52.995  1.00  0.00     0.101 C 
HETATM   15  C13 UNL     1      26.734  -0.455  52.827  1.00  0.00     0.026 C 
HETATM   16  C14 UNL     1      28.117  -0.916  53.117  1.00  0.00     0.004 C 
HETATM   17  C15 UNL     1      28.967  -0.024  53.945  1.00  0.00     0.035 C 
HETATM   18  C16 UNL     1      28.720   1.451  53.675  1.00  0.00     0.220 C 
HETATM   19  C17 UNL     1      27.273   1.671  54.075  1.00  0.00     0.060 C 
BRANCH  18  20
HETATM   20  N5  UNL     1      29.630   2.257  54.428  1.00  0.00     0.083 N 
HETATM   21  H21 UNL     1      29.909   1.823  55.328  1.00  0.00     0.313 HD
HETATM   22  H22 UNL     1      30.452   2.477  53.818  1.00  0.00     0.313 HD
ENDBRANCH  18  20
ENDBRANCH  12  14
ENDBRANCH   7  12
BRANCH   5  23
HETATM   23  N2  UNL     1      22.673   5.151  52.200  1.00  0.00    -0.335 N 
HETATM   24  H7  UNL     1      22.442   5.342  53.210  1.00  0.00     0.164 HD
BRANCH  23  25
HETATM   25  C5  UNL     1      22.721   6.260  51.339  1.00  0.00     0.033 A 
HETATM   26  C6  UNL     1      21.650   6.787  50.654  1.00  0.00     0.029 A 
HETATM   27  C7  UNL     1      21.680   7.872  49.817  1.00  0.00     0.004 A 
HETATM   28  C8  UNL     1      22.897   8.495  49.642  1.00  0.00     0.024 A 
HETATM   29  C9  UNL     1      24.020   8.030  50.292  1.00  0.00     0.036 A 
HETATM   30 CL1  UNL     1      25.563   8.826  50.067  1.00  0.00    -0.084 Cl
HETATM   31  C10 UNL     1      23.902   6.936  51.114  1.00  0.00     0.053 A 
ENDBRANCH  23  25
ENDBRANCH   5  23
TORSDOF 5
ENDMDL
MODEL 6
REMARK VINA RESULT:      -7.9      1.876      5.600
REMARK  5 active torsions:
REMARK  status: ('A' for Active; 'I' for Inactive)
REMARK    1  A    between atoms: C4_5  and  N2_6 
REMARK    2  A    between atoms: N2_6  and  C5_7 
REMARK    3  A    between atoms: C11_15  and  N4_16 
REMARK    4  A    between atoms: N4_16  and  C12_17 
REMARK    5  A    between atoms: C16_21  and  N5_22 
ROOT
HETATM    1  C1  UNL     1      28.543   2.428  53.589  1.00  0.00     0.062 C 
HETATM    2  C2  UNL     1      27.802   1.137  53.264  1.00  0.00     0.318 C 
HETATM    3  N1  UNL     1      27.437   1.193  51.874  1.00  0.00    -0.178 NA
HETATM    4  C3  UNL     1      26.302   0.257  51.812  1.00  0.00     0.208 C 
HETATM    5  C4  UNL     1      25.548   0.605  53.063  1.00  0.00     0.360 C 
HETATM    6  N3  UNL     1      24.755   1.801  52.711  1.00  0.00    -0.040 NA
HETATM    7  C11 UNL     1      25.489   2.727  52.141  1.00  0.00     0.710 C 
HETATM    8  N6  UNL     1      26.830   2.462  51.678  1.00  0.00    -0.148 N 
HETATM    9  N7  UNL     1      26.539   1.063  53.980  1.00  0.00     0.157 N 
HETATM   10  C18 UNL     1      26.732   0.283  55.158  1.00  0.00     0.318 C 
HETATM   11  H25 UNL     1      27.382   3.202  51.185  1.00  0.00     0.199 HD
ENDROOT
BRANCH   7  12
HETATM   12  N4  UNL     1      25.020   4.072  51.933  1.00  0.00    -0.219 N 
HETATM   13  H12 UNL     1      25.627   4.880  52.242  1.00  0.00     0.178 HD
BRANCH  12  14
HETATM   14  C12 UNL     1      23.723   4.249  51.306  1.00  0.00     0.101 C 
HETATM   15  C13 UNL     1      23.801   3.760  49.909  1.00  0.00     0.026 C 
HETATM   16  C14 UNL     1      22.885   4.398  48.926  1.00  0.00     0.004 C 
HETATM   17  C15 UNL     1      22.312   5.717  49.295  1.00  0.00     0.035 C 
HETATM   18  C16 UNL     1      22.008   5.840  50.778  1.00  0.00     0.220 C 
HETATM   19  C17 UNL     1      23.360   5.706  51.454  1.00  0.00     0.060 C 
BRANCH  18  20
HETATM   20  N5  UNL     1      21.371   7.090  51.057  1.00  0.00     0.083 N 
HETATM   21  H21 UNL     1      21.763   7.877  50.507  1.00  0.00     0.313 HD
HETATM   22  H22 UNL     1      20.342   6.972  50.910  1.00  0.00     0.313 HD
ENDBRANCH  18  20
ENDBRANCH  12  14
ENDBRANCH   7  12
BRANCH   5  23
HETATM   23  N2  UNL     1      24.690  -0.410  53.568  1.00  0.00    -0.335 N 
HETATM   24  H7  UNL     1      25.196  -1.233  53.991  1.00  0.00     0.164 HD
BRANCH  23  25
HETATM   25  C5  UNL     1      23.286  -0.456  53.576  1.00  0.00     0.033 A 
HETATM   26  C6  UNL     1      22.506  -0.874  54.630  1.00  0.00     0.029 A 
HETATM   27  C7  UNL     1      21.136  -0.918  54.655  1.00  0.00     0.004 A 
HETATM   28  C8  UNL     1      20.475  -0.505  53.518  1.00  0.00     0.024 A 
HETATM   29  C9  UNL     1      21.182  -0.070  52.417  1.00  0.00     0.036 A 
HETATM   30 CL1  UNL     1      20.338   0.453  50.976  1.00  0.00    -0.084 Cl
HETATM   31  C10 UNL     1      22.555  -0.058  52.477  1.00  0.00     0.053 A 
ENDBRANCH  23  25
ENDBRANCH   5  23
TORSDOF 5
ENDMDL
MODEL 7
REMARK VINA RESULT:      -7.8      2.459      6.265
REMARK  5 active torsions:
REMARK  status: ('A' for Active; 'I' for Inactive)
REMARK    1  A    between atoms: C4_5  and  N2_6 
REMARK    2  A    between atoms: N2_6  and  C5_7 
REMARK    3  A    between atoms: C11_15  and  N4_16 
REMARK    4  A    between atoms: N4_16  and  C12_17 
REMARK    5  A    between atoms: C16_21  and  N5_22 
ROOT
HETATM    1  C1  UNL     1      21.701   3.580  51.837  1.00  0.00     0.062 C 
HETATM    2  C2  UNL     1      22.732   2.975  52.780  1.00  0.00     0.318 C 
HETATM    3  N1  UNL     1      23.765   3.957  52.969  1.00  0.00    -0.178 NA
HETATM    4  C3  UNL     1      24.912   3.128  53.377  1.00  0.00     0.208 C 
HETATM    5  C4  UNL     1      24.795   1.961  52.440  1.00  0.00     0.360 C 
HETATM    6  N3  UNL     1      25.406   2.422  51.176  1.00  0.00    -0.040 NA
HETATM    7  C11 UNL     1      24.930   3.583  50.796  1.00  0.00     0.710 C 
HETATM    8  N6  UNL     1      24.126   4.403  51.670  1.00  0.00    -0.148 N 
HETATM    9  N7  UNL     1      23.401   1.840  52.167  1.00  0.00     0.157 N 
HETATM   10  C18 UNL     1      22.762   0.645  52.609  1.00  0.00     0.318 C 
HETATM   11  H25 UNL     1      23.793   5.347  51.362  1.00  0.00     0.199 HD
ENDROOT
BRANCH   7  12
HETATM   12  N4  UNL     1      25.169   4.129  49.485  1.00  0.00    -0.219 N 
HETATM   13  H12 UNL     1      25.046   3.505  48.641  1.00  0.00     0.178 HD
BRANCH  12  14
HETATM   14  C12 UNL     1      25.570   5.520  49.392  1.00  0.00     0.101 C 
HETATM   15  C13 UNL     1      24.589   6.242  48.548  1.00  0.00     0.026 C 
HETATM   16  C14 UNL     1      25.094   7.424  47.800  1.00  0.00     0.004 C 
HETATM   17  C15 UNL     1      26.562   7.524  47.605  1.00  0.00     0.035 C 
HETATM   18  C16 UNL     1      27.356   7.004  48.791  1.00  0.00     0.220 C 
HETATM   19  C17 UNL     1      26.989   5.534  48.878  1.00  0.00     0.060 C 
BRANCH  18  20
HETATM   20  N5  UNL     1      28.756   7.213  48.587  1.00  0.00     0.083 N 
HETATM   21  H21 UNL     1      29.348   6.536  49.105  1.00  0.00     0.313 HD
HETATM   22  H22 UNL     1      28.941   7.202  47.557  1.00  0.00     0.313 HD
ENDBRANCH  18  20
ENDBRANCH  12  14
ENDBRANCH   7  12
BRANCH   5  23
HETATM   23  N2  UNL     1      25.426   0.761  52.870  1.00  0.00    -0.335 N 
HETATM   24  H7  UNL     1      24.771  -0.059  52.975  1.00  0.00     0.164 HD
BRANCH  23  25
HETATM   25  C5  UNL     1      26.780   0.532  53.166  1.00  0.00     0.033 A 
HETATM   26  C6  UNL     1      27.685   1.490  53.560  1.00  0.00     0.029 A 
HETATM   27  C7  UNL     1      29.007   1.281  53.859  1.00  0.00     0.004 A 
HETATM   28  C8  UNL     1      29.476  -0.011  53.753  1.00  0.00     0.024 A 
HETATM   29  C9  UNL     1      28.634  -1.031  53.365  1.00  0.00     0.036 A 
HETATM   30 CL1  UNL     1      29.235  -2.669  53.233  1.00  0.00    -0.084 Cl
HETATM   31  C10 UNL     1      27.323  -0.733  53.084  1.00  0.00     0.053 A 
ENDBRANCH  23  25
ENDBRANCH   5  23
TORSDOF 5
ENDMDL
MODEL 8
REMARK VINA RESULT:      -7.6      2.993      5.004
REMARK  5 active torsions:
REMARK  status: ('A' for Active; 'I' for Inactive)
REMARK    1  A    between atoms: C4_5  and  N2_6 
REMARK    2  A    between atoms: N2_6  and  C5_7 
REMARK    3  A    between atoms: C11_15  and  N4_16 
REMARK    4  A    between atoms: N4_16  and  C12_17 
REMARK    5  A    between atoms: C16_21  and  N5_22 
ROOT
HETATM    1  C1  UNL     1      22.468   6.850  50.683  1.00  0.00     0.062 C 
HETATM    2  C2  UNL     1      22.346   5.618  51.570  1.00  0.00     0.318 C 
HETATM    3  N1  UNL     1      23.626   5.412  52.192  1.00  0.00    -0.178 NA
HETATM    4  C3  UNL     1      23.583   3.979  52.528  1.00  0.00     0.208 C 
HETATM    5  C4  UNL     1      22.960   3.393  51.294  1.00  0.00     0.360 C 
HETATM    6  N3  UNL     1      24.071   3.271  50.327  1.00  0.00    -0.040 NA
HETATM    7  C11 UNL     1      24.753   4.386  50.219  1.00  0.00     0.710 C 
HETATM    8  N6  UNL     1      24.586   5.477  51.147  1.00  0.00    -0.148 N 
HETATM    9  N7  UNL     1      22.118   4.421  50.777  1.00  0.00     0.157 N 
HETATM   10  C18 UNL     1      20.718   4.152  50.754  1.00  0.00     0.318 C 
HETATM   11  H25 UNL     1      25.172   6.341  51.069  1.00  0.00     0.199 HD
ENDROOT
BRANCH   7  12
HETATM   12  N4  UNL     1      25.715   4.609  49.172  1.00  0.00    -0.219 N 
HETATM   13  H12 UNL     1      25.972   3.807  48.532  1.00  0.00     0.178 HD
BRANCH  12  14
HETATM   14  C12 UNL     1      26.289   5.936  49.048  1.00  0.00     0.101 C 
HETATM   15  C13 UNL     1      25.394   6.765  48.207  1.00  0.00     0.026 C 
HETATM   16  C14 UNL     1      26.032   7.861  47.432  1.00  0.00     0.004 C 
HETATM   17  C15 UNL     1      27.498   7.769  47.212  1.00  0.00     0.035 C 
HETATM   18  C16 UNL     1      28.239   7.170  48.395  1.00  0.00     0.220 C 
HETATM   19  C17 UNL     1      27.689   5.761  48.512  1.00  0.00     0.060 C 
BRANCH  18  20
HETATM   20  N5  UNL     1      29.651   7.196  48.166  1.00  0.00     0.083 N 
HETATM   21  H21 UNL     1      29.938   7.918  47.478  1.00  0.00     0.313 HD
HETATM   22  H22 UNL     1      30.129   7.309  49.090  1.00  0.00     0.313 HD
ENDBRANCH  18  20
ENDBRANCH  12  14
ENDBRANCH   7  12
BRANCH   5  23
HETATM   23  N2  UNL     1      22.328   2.131  51.463  1.00  0.00    -0.335 N 
HETATM   24  H7  UNL     1      21.600   1.910  50.732  1.00  0.00     0.164 HD
BRANCH  23  25
HETATM   25  C5  UNL     1      22.543   1.161  52.456  1.00  0.00     0.033 A 
HETATM   26  C6  UNL     1      21.588   0.674  53.318  1.00  0.00     0.029 A 
HETATM   27  C7  UNL     1      21.781  -0.276  54.287  1.00  0.00     0.004 A 
HETATM   28  C8  UNL     1      23.053  -0.794  54.412  1.00  0.00     0.024 A 
HETATM   29  C9  UNL     1      24.068  -0.360  53.587  1.00  0.00     0.036 A 
HETATM   30 CL1  UNL     1      25.681  -1.021  53.749  1.00  0.00    -0.084 Cl
HETATM   31  C10 UNL     1      23.788   0.596  52.641  1.00  0.00     0.053 A 
ENDBRANCH  23  25
ENDBRANCH   5  23
TORSDOF 5
ENDMDL
MODEL 9
REMARK VINA RESULT:      -7.6      7.311      9.210
REMARK  5 active torsions:
REMARK  status: ('A' for Active; 'I' for Inactive)
REMARK    1  A    between atoms: C4_5  and  N2_6 
REMARK    2  A    between atoms: N2_6  and  C5_7 
REMARK    3  A    between atoms: C11_15  and  N4_16 
REMARK    4  A    between atoms: N4_16  and  C12_17 
REMARK    5  A    between atoms: C16_21  and  N5_22 
ROOT
HETATM    1  C1  UNL     1      32.467   9.026  46.596  1.00  0.00     0.062 C 
HETATM    2  C2  UNL     1      31.063   8.965  47.182  1.00  0.00     0.318 C 
HETATM    3  N1  UNL     1      31.201   8.774  48.600  1.00  0.00    -0.178 NA
HETATM    4  C3  UNL     1      29.904   8.176  48.961  1.00  0.00     0.208 C 
HETATM    5  C4  UNL     1      29.688   7.209  47.835  1.00  0.00     0.360 C 
HETATM    6  N3  UNL     1      30.488   6.019  48.192  1.00  0.00    -0.040 NA
HETATM    7  C11 UNL     1      31.717   6.336  48.522  1.00  0.00     0.710 C 
HETATM    8  N6  UNL     1      32.116   7.701  48.765  1.00  0.00    -0.148 N 
HETATM    9  N7  UNL     1      30.350   7.788  46.712  1.00  0.00     0.157 N 
HETATM   10  C18 UNL     1      29.530   8.166  45.609  1.00  0.00     0.318 C 
HETATM   11  H25 UNL     1      33.091   7.927  49.071  1.00  0.00     0.199 HD
ENDROOT
BRANCH   7  12
HETATM   12  N4  UNL     1      32.760   5.354  48.666  1.00  0.00    -0.219 N 
HETATM   13  H12 UNL     1      33.300   5.309  49.574  1.00  0.00     0.178 HD
BRANCH  12  14
HETATM   14  C12 UNL     1      33.018   4.468  47.545  1.00  0.00     0.101 C 
HETATM   15  C13 UNL     1      34.254   3.700  47.821  1.00  0.00     0.026 C 
HETATM   16  C14 UNL     1      35.043   3.259  46.641  1.00  0.00     0.004 C 
HETATM   17  C15 UNL     1      34.796   3.966  45.359  1.00  0.00     0.035 C 
HETATM   18  C16 UNL     1      33.342   4.363  45.171  1.00  0.00     0.220 C 
HETATM   19  C17 UNL     1      33.063   5.330  46.307  1.00  0.00     0.060 C 
BRANCH  18  20
HETATM   20  N5  UNL     1      33.146   4.953  43.883  1.00  0.00     0.083 N 
HETATM   21  H21 UNL     1      32.386   4.501  43.340  1.00  0.00     0.313 HD
HETATM   22  H22 UNL     1      32.990   5.979  44.014  1.00  0.00     0.313 HD
ENDBRANCH  18  20
ENDBRANCH  12  14
ENDBRANCH   7  12
BRANCH   5  23
HETATM   23  N2  UNL     1      28.338   6.828  47.600  1.00  0.00    -0.335 N 
HETATM   24  H7  UNL     1      27.943   7.174  46.686  1.00  0.00     0.164 HD
BRANCH  23  25
HETATM   25  C5  UNL     1      27.482   6.066  48.413  1.00  0.00     0.033 A 
HETATM   26  C6  UNL     1      27.590   4.714  48.641  1.00  0.00     0.029 A 
HETATM   27  C7  UNL     1      26.767   3.958  49.436  1.00  0.00     0.004 A 
HETATM   28  C8  UNL     1      25.731   4.614  50.067  1.00  0.00     0.024 A 
HETATM   29  C9  UNL     1      25.552   5.970  49.892  1.00  0.00     0.036 A 
HETATM   30 CL1  UNL     1      24.236   6.797  50.696  1.00  0.00    -0.084 Cl
HETATM   31  C10 UNL     1      26.424   6.651  49.077  1.00  0.00     0.053 A 
ENDBRANCH  23  25
ENDBRANCH   5  23
TORSDOF 5
ENDMDL
