MODEL 1
REMARK VINA RESULT:      -8.4      0.000      0.000
REMARK  5 active torsions:
REMARK  status: ('A' for Active; 'I' for Inactive)
REMARK    1  A    between atoms: N1_1  and  C1_2 
REMARK    2  A    between atoms: C4_5  and  C6_9 
REMARK    3  A    between atoms: C7_11  and  N4_12 
REMARK    4  A    between atoms: C7_11  and  C14_20 
REMARK    5  A    between atoms: N4_12  and  C8_13 
ROOT
HETATM    1  C1  UNL     1      23.033  -0.865  54.721  1.00  0.00     0.002 C 
HETATM    2  C2  UNL     1      24.309  -1.134  55.002  1.00  0.00     0.003 C 
HETATM    3  C3  UNL     1      25.321  -0.427  54.163  1.00  0.00     0.062 A 
HETATM    4  C4  UNL     1      25.733   0.347  53.252  1.00  0.00    -0.009 A 
HETATM    5  O1  UNL     1      24.421   0.068  53.586  1.00  0.00     0.000 OA
HETATM    6  C5  UNL     1      23.715   0.753  52.783  1.00  0.00    -0.004 A 
HETATM    7  N2  UNL     1      24.236   1.553  51.846  1.00  0.00     0.000 N 
HETATM    8  C6  UNL     1      25.539   1.231  52.222  1.00  0.00     0.085 A 
HETATM    9  N3  UNL     1      25.188   2.023  51.298  1.00  0.00    -0.197 NA
HETATM   10  C7  UNL     1      23.877   2.321  50.951  1.00  0.00     0.177 A 
HETATM   11  C14 UNL     1      23.054   1.558  51.836  1.00  0.00     0.133 A 
HETATM   12  N5  UNL     1      21.579   1.570  51.628  1.00  0.00    -0.400 N 
HETATM   13  C15 UNL     1      21.588   0.145  51.870  1.00  0.00     0.143 C 
HETATM   14  C16 UNL     1      21.308  -0.205  53.292  1.00  0.00    -0.006 C 
HETATM   15  C17 UNL     1      21.665  -0.604  54.503  1.00  0.00     0.020 C 
HETATM   16  H10 UNL     1      21.397   2.566  51.433  1.00  0.00     0.154 HD
ENDROOT
BRANCH  10  17
HETATM   17  N4  UNL     1      23.396   3.199  49.906  1.00  0.00    -0.361 N 
HETATM   18  H5  UNL     1      22.690   2.700  49.344  1.00  0.00     0.162 HD
BRANCH  17  19
HETATM   19  C8  UNL     1      24.073   4.416  50.021  1.00  0.00     0.031 A 
HETATM   20  C9  UNL     1      23.588   5.318  50.968  1.00  0.00     0.029 A 
HETATM   21  C10 UNL     1      24.154   6.542  51.221  1.00  0.00     0.004 A 
HETATM   22  C11 UNL     1      25.269   6.848  50.463  1.00  0.00     0.019 A 
HETATM   23  C12 UNL     1      25.773   5.980  49.518  1.00  0.00     0.013 A 
HETATM   24 BR1  UNL     1      27.329   6.336  48.452  1.00  0.00    -0.051 Br
HETATM   25  C13 UNL     1      25.201   4.753  49.269  1.00  0.00     0.048 A 
ENDBRANCH  17  19
ENDBRANCH  10  17
BRANCH   1  26
HETATM   26  N1  UNL     1      22.987  -1.804  55.839  1.00  0.00    -0.303 NA
HETATM   27  H1  UNL     1      22.574  -2.233  56.684  1.00  0.00     0.124 HD
HETATM   28  H2  UNL     1      22.387  -2.069  56.643  1.00  0.00     0.124 HD
ENDBRANCH   1  26
TORSDOF 5
ENDMDL
MODEL 2
REMARK VINA RESULT:      -8.2      3.147      5.634
REMARK  5 active torsions:
REMARK  status: ('A' for Active; 'I' for Inactive)
REMARK    1  A    between atoms: N1_1  and  C1_2 
REMARK    2  A    between atoms: C4_5  and  C6_9 
REMARK    3  A    between atoms: C7_11  and  N4_12 
REMARK    4  A    between atoms: C7_11  and  C14_20 
REMARK    5  A    between atoms: N4_12  and  C8_13 
ROOT
HETATM    1  C1  UNL     1      21.720   1.341  49.576  1.00  0.00     0.002 C 
HETATM    2  C2  UNL     1      22.136   2.180  48.625  1.00  0.00     0.003 C 
HETATM    3  C3  UNL     1      23.406   2.907  48.913  1.00  0.00     0.062 A 
HETATM    4  C4  UNL     1      24.423   3.242  49.589  1.00  0.00    -0.009 A 
HETATM    5  O1  UNL     1      23.430   2.351  49.951  1.00  0.00     0.000 OA
HETATM    6  C5  UNL     1      23.752   1.939  51.109  1.00  0.00    -0.004 A 
HETATM    7  N2  UNL     1      24.854   2.345  51.751  1.00  0.00     0.000 N 
HETATM    8  C6  UNL     1      25.223   3.180  50.699  1.00  0.00     0.085 A 
HETATM    9  N3  UNL     1      25.847   3.008  51.789  1.00  0.00    -0.197 NA
HETATM   10  C7  UNL     1      25.447   2.166  52.817  1.00  0.00     0.177 A 
HETATM   11  C14 UNL     1      24.224   1.568  52.383  1.00  0.00     0.133 A 
HETATM   12  N5  UNL     1      23.476   0.698  53.332  1.00  0.00    -0.400 N 
HETATM   13  C15 UNL     1      22.263   1.342  52.883  1.00  0.00     0.143 C 
HETATM   14  C16 UNL     1      21.581   0.599  51.785  1.00  0.00    -0.006 C 
HETATM   15  C17 UNL     1      21.237   0.413  50.520  1.00  0.00     0.020 C 
HETATM   16  H10 UNL     1      24.234   0.145  53.760  1.00  0.00     0.154 HD
ENDROOT
BRANCH  10  17
HETATM   17  N4  UNL     1      26.091   1.925  54.090  1.00  0.00    -0.361 N 
HETATM   18  H5  UNL     1      25.550   2.389  54.836  1.00  0.00     0.162 HD
BRANCH  17  19
HETATM   19  C8  UNL     1      27.234   1.156  53.856  1.00  0.00     0.031 A 
HETATM   20  C9  UNL     1      28.463   1.804  53.973  1.00  0.00     0.029 A 
HETATM   21  C10 UNL     1      29.676   1.187  53.801  1.00  0.00     0.004 A 
HETATM   22  C11 UNL     1      29.617  -0.160  53.494  1.00  0.00     0.019 A 
HETATM   23  C12 UNL     1      28.419  -0.832  53.370  1.00  0.00     0.013 A 
HETATM   24 BR1  UNL     1      28.271  -2.703  52.969  1.00  0.00    -0.051 Br
HETATM   25  C13 UNL     1      27.205  -0.206  53.544  1.00  0.00     0.048 A 
ENDBRANCH  17  19
ENDBRANCH  10  17
BRANCH   1  26
HETATM   26  N1  UNL     1      20.729   1.228  48.508  1.00  0.00    -0.303 NA
HETATM   27  H1  UNL     1      19.822   1.414  48.051  1.00  0.00     0.124 HD
HETATM   28  H2  UNL     1      19.778   1.557  48.254  1.00  0.00     0.124 HD
ENDBRANCH   1  26
TORSDOF 5
ENDMDL
MODEL 3
REMARK VINA RESULT:      -8.1      3.569      4.832
REMARK  5 active torsions:
REMARK  status: ('A' for Active; 'I' for Inactive)
REMARK    1  A    between atoms: N1_1  and  C1_2 
REMARK    2  A    between atoms: C4_5  and  C6_9 
REMARK    3  A    between atoms: C7_11  and  N4_12 
REMARK    4  A    between atoms: C7_11  and  C14_20 
REMARK    5  A    between atoms: N4_12  and  C8_13 
ROOT
HETATM    1  C1  UNL     1      19.758  -0.115  52.635  1.00  0.00     0.002 C 
HETATM    2  C2  UNL     1      19.805  -1.014  53.621  1.00  0.00     0.003 C 
HETATM    3  C3  UNL     1      21.154  -1.264  54.206  1.00  0.00     0.062 A 
HETATM    4  C4  UNL     1      22.405  -1.125  54.335  1.00  0.00    -0.009 A 
HETATM    5  O1  UNL     1      21.578  -0.484  53.431  1.00  0.00     0.000 OA
HETATM    6  C5  UNL     1      22.341   0.274  52.756  1.00  0.00    -0.004 A 
HETATM    7  N2  UNL     1      23.660   0.363  52.964  1.00  0.00     0.000 N 
HETATM    8  C6  UNL     1      23.612  -0.570  53.998  1.00  0.00     0.085 A 
HETATM    9  N3  UNL     1      24.638   0.033  53.564  1.00  0.00    -0.197 NA
HETATM   10  C7  UNL     1      24.648   0.958  52.529  1.00  0.00     0.177 A 
HETATM   11  C14 UNL     1      23.294   1.066  52.085  1.00  0.00     0.133 A 
HETATM   12  N5  UNL     1      22.997   1.901  50.888  1.00  0.00    -0.400 N 
HETATM   13  C15 UNL     1      22.104   0.854  50.446  1.00  0.00     0.143 C 
HETATM   14  C16 UNL     1      20.691   1.082  50.861  1.00  0.00    -0.006 C 
HETATM   15  C17 UNL     1      19.626   0.846  51.613  1.00  0.00     0.020 C 
HETATM   16  H10 UNL     1      23.587   2.730  51.053  1.00  0.00     0.154 HD
ENDROOT
BRANCH  10  17
HETATM   17  N4  UNL     1      25.773   1.676  51.969  1.00  0.00    -0.361 N 
HETATM   18  H5  UNL     1      25.430   2.341  51.260  1.00  0.00     0.162 HD
BRANCH  17  19
HETATM   19  C8  UNL     1      26.935   1.201  52.582  1.00  0.00     0.031 A 
HETATM   20  C9  UNL     1      27.720   2.139  53.253  1.00  0.00     0.029 A 
HETATM   21  C10 UNL     1      28.874   1.832  53.927  1.00  0.00     0.004 A 
HETATM   22  C11 UNL     1      29.236   0.498  53.907  1.00  0.00     0.019 A 
HETATM   23  C12 UNL     1      28.484  -0.455  53.252  1.00  0.00     0.013 A 
HETATM   24 BR1  UNL     1      28.919  -2.323  53.206  1.00  0.00    -0.051 Br
HETATM   25  C13 UNL     1      27.326  -0.140  52.578  1.00  0.00     0.048 A 
ENDBRANCH  17  19
ENDBRANCH  10  17
BRANCH   1  26
HETATM   26  N1  UNL     1      18.375  -0.550  52.820  1.00  0.00    -0.303 NA
HETATM   27  H1  UNL     1      17.371  -0.601  52.582  1.00  0.00     0.124 HD
HETATM   28  H2  UNL     1      17.437  -0.457  52.386  1.00  0.00     0.124 HD
ENDBRANCH   1  26
TORSDOF 5
ENDMDL
MODEL 4
REMARK VINA RESULT:      -7.8      1.902      3.127
REMARK  5 active torsions:
REMARK  status: ('A' for Active; 'I' for Inactive)
REMARK    1  A    between atoms: N1_1  and  C1_2 
REMARK    2  A    between atoms: C4_5  and  C6_9 
REMARK    3  A    between atoms: C7_11  and  N4_12 
REMARK    4  A    between atoms: C7_11  and  C14_20 
REMARK    5  A    between atoms: N4_12  and  C8_13 
ROOT
HETATM    1  C1  UNL     1      24.789  -0.692  54.913  1.00  0.00     0.002 C 
HETATM    2  C2  UNL     1      23.589  -1.251  55.081  1.00  0.00     0.003 C 
HETATM    3  C3  UNL     1      22.551  -0.868  54.079  1.00  0.00     0.062 A 
HETATM    4  C4  UNL     1      22.080  -0.267  53.071  1.00  0.00    -0.009 A 
HETATM    5  O1  UNL     1      23.361  -0.175  53.580  1.00  0.00     0.000 OA
HETATM    6  C5  UNL     1      23.968   0.644  52.821  1.00  0.00    -0.004 A 
HETATM    7  N2  UNL     1      23.391   1.234  51.768  1.00  0.00     0.000 N 
HETATM    8  C6  UNL     1      22.179   0.589  52.005  1.00  0.00     0.085 A 
HETATM    9  N3  UNL     1      22.436   1.404  51.070  1.00  0.00    -0.197 NA
HETATM   10  C7  UNL     1      23.659   2.030  50.865  1.00  0.00     0.177 A 
HETATM   11  C14 UNL     1      24.518   1.563  51.907  1.00  0.00     0.133 A 
HETATM   12  N5  UNL     1      25.880   2.155  52.030  1.00  0.00    -0.400 N 
HETATM   13  C15 UNL     1      25.673   2.196  53.460  1.00  0.00     0.143 C 
HETATM   14  C16 UNL     1      26.215   0.997  54.160  1.00  0.00    -0.006 C 
HETATM   15  C17 UNL     1      26.090  -0.167  54.781  1.00  0.00     0.020 C 
HETATM   16  H10 UNL     1      26.185   2.198  51.047  1.00  0.00     0.154 HD
ENDROOT
BRANCH  10  17
HETATM   17  N4  UNL     1      24.027   2.978  49.836  1.00  0.00    -0.361 N 
HETATM   18  H5  UNL     1      24.644   2.513  49.153  1.00  0.00     0.162 HD
BRANCH  17  19
HETATM   19  C8  UNL     1      23.424   4.201  50.141  1.00  0.00     0.031 A 
HETATM   20  C9  UNL     1      24.197   5.126  50.843  1.00  0.00     0.029 A 
HETATM   21  C10 UNL     1      23.763   6.378  51.196  1.00  0.00     0.004 A 
HETATM   22  C11 UNL     1      22.473   6.690  50.808  1.00  0.00     0.019 A 
HETATM   23  C12 UNL     1      21.682   5.799  50.114  1.00  0.00     0.013 A 
HETATM   24 BR1  UNL     1      19.894   6.179  49.528  1.00  0.00    -0.051 Br
HETATM   25  C13 UNL     1      22.124   4.543  49.763  1.00  0.00     0.048 A 
ENDBRANCH  17  19
ENDBRANCH  10  17
BRANCH   1  26
HETATM   26  N1  UNL     1      24.930  -1.556  56.083  1.00  0.00    -0.303 NA
HETATM   27  H1  UNL     1      25.238  -2.402  56.589  1.00  0.00     0.124 HD
HETATM   28  H2  UNL     1      25.339  -2.467  56.367  1.00  0.00     0.124 HD
ENDBRANCH   1  26
TORSDOF 5
ENDMDL
MODEL 5
REMARK VINA RESULT:      -7.7      1.717      2.028
REMARK  5 active torsions:
REMARK  status: ('A' for Active; 'I' for Inactive)
REMARK    1  A    between atoms: N1_1  and  C1_2 
REMARK    2  A    between atoms: C4_5  and  C6_9 
REMARK    3  A    between atoms: C7_11  and  N4_12 
REMARK    4  A    between atoms: C7_11  and  C14_20 
REMARK    5  A    between atoms: N4_12  and  C8_13 
ROOT
HETATM    1  C1  UNL     1      21.581  -0.538  53.726  1.00  0.00     0.002 C 
HETATM    2  C2  UNL     1      22.673  -0.911  54.397  1.00  0.00     0.003 C 
HETATM    3  C3  UNL     1      23.958  -0.322  53.921  1.00  0.00     0.062 A 
HETATM    4  C4  UNL     1      24.707   0.386  53.187  1.00  0.00    -0.009 A 
HETATM    5  O1  UNL     1      23.337   0.234  53.089  1.00  0.00     0.000 OA
HETATM    6  C5  UNL     1      22.988   0.954  52.103  1.00  0.00    -0.004 A 
HETATM    7  N2  UNL     1      23.851   1.677  51.380  1.00  0.00     0.000 N 
HETATM    8  C6  UNL     1      24.932   1.251  52.149  1.00  0.00     0.085 A 
HETATM    9  N3  UNL     1      24.966   2.044  51.161  1.00  0.00    -0.197 NA
HETATM   10  C7  UNL     1      23.865   2.446  50.416  1.00  0.00     0.177 A 
HETATM   11  C14 UNL     1      22.738   1.787  50.995  1.00  0.00     0.133 A 
HETATM   12  N5  UNL     1      21.411   1.923  50.331  1.00  0.00    -0.400 N 
HETATM   13  C15 UNL     1      21.210   0.511  50.564  1.00  0.00     0.143 C 
HETATM   14  C16 UNL     1      20.464   0.230  51.824  1.00  0.00    -0.006 C 
HETATM   15  C17 UNL     1      20.383  -0.163  53.086  1.00  0.00     0.020 C 
HETATM   16  H10 UNL     1      21.394   2.925  50.088  1.00  0.00     0.154 HD
ENDROOT
BRANCH  10  17
HETATM   17  N4  UNL     1      23.823   3.332  49.273  1.00  0.00    -0.361 N 
HETATM   18  H5  UNL     1      23.848   2.770  48.409  1.00  0.00     0.162 HD
BRANCH  17  19
HETATM   19  C8  UNL     1      23.776   4.645  49.747  1.00  0.00     0.031 A 
HETATM   20  C9  UNL     1      24.989   5.224  50.118  1.00  0.00     0.029 A 
HETATM   21  C10 UNL     1      25.118   6.510  50.577  1.00  0.00     0.004 A 
HETATM   22  C11 UNL     1      23.941   7.231  50.658  1.00  0.00     0.019 A 
HETATM   23  C12 UNL     1      22.724   6.690  50.301  1.00  0.00     0.013 A 
HETATM   24 BR1  UNL     1      21.060   7.644  50.369  1.00  0.00    -0.051 Br
HETATM   25  C13 UNL     1      22.602   5.398  49.840  1.00  0.00     0.048 A 
ENDBRANCH  17  19
ENDBRANCH  10  17
BRANCH   1  26
HETATM   26  N1  UNL     1      21.097  -1.435  54.772  1.00  0.00    -0.303 NA
HETATM   27  H1  UNL     1      20.999  -2.344  55.254  1.00  0.00     0.124 HD
HETATM   28  H2  UNL     1      21.153  -2.427  55.072  1.00  0.00     0.124 HD
ENDBRANCH   1  26
TORSDOF 5
ENDMDL
MODEL 6
REMARK VINA RESULT:      -7.5      2.196      3.546
REMARK  5 active torsions:
REMARK  status: ('A' for Active; 'I' for Inactive)
REMARK    1  A    between atoms: N1_1  and  C1_2 
REMARK    2  A    between atoms: C4_5  and  C6_9 
REMARK    3  A    between atoms: C7_11  and  N4_12 
REMARK    4  A    between atoms: C7_11  and  C14_20 
REMARK    5  A    between atoms: N4_12  and  C8_13 
ROOT
HETATM    1  C1  UNL     1      23.201  -0.838  54.665  1.00  0.00     0.002 C 
HETATM    2  C2  UNL     1      21.898  -0.802  54.948  1.00  0.00     0.003 C 
HETATM    3  C3  UNL     1      21.102   0.217  54.203  1.00  0.00     0.062 A 
HETATM    4  C4  UNL     1      20.905   1.164  53.387  1.00  0.00    -0.009 A 
HETATM    5  O1  UNL     1      22.106   0.545  53.681  1.00  0.00     0.000 OA
HETATM    6  C5  UNL     1      22.972   1.130  52.959  1.00  0.00    -0.004 A 
HETATM    7  N2  UNL     1      22.674   2.125  52.116  1.00  0.00     0.000 N 
HETATM    8  C6  UNL     1      21.323   2.079  52.457  1.00  0.00     0.085 A 
HETATM    9  N3  UNL     1      21.871   2.859  51.622  1.00  0.00    -0.197 NA
HETATM   10  C7  UNL     1      23.224   2.877  51.308  1.00  0.00     0.177 A 
HETATM   11  C14 UNL     1      23.826   1.860  52.110  1.00  0.00     0.133 A 
HETATM   12  N5  UNL     1      25.309   1.716  52.088  1.00  0.00    -0.400 N 
HETATM   13  C15 UNL     1      25.260   1.547  53.522  1.00  0.00     0.143 C 
HETATM   14  C16 UNL     1      25.205   0.117  53.938  1.00  0.00    -0.006 C 
HETATM   15  C17 UNL     1      24.579  -0.959  54.393  1.00  0.00     0.020 C 
HETATM   16  H10 UNL     1      25.520   1.818  51.084  1.00  0.00     0.154 HD
ENDROOT
BRANCH  10  17
HETATM   17  N4  UNL     1      23.925   3.740  50.382  1.00  0.00    -0.361 N 
HETATM   18  H5  UNL     1      24.730   4.168  50.862  1.00  0.00     0.162 HD
BRANCH  17  19
HETATM   19  C8  UNL     1      23.250   3.697  49.159  1.00  0.00     0.031 A 
HETATM   20  C9  UNL     1      23.055   2.438  48.592  1.00  0.00     0.029 A 
HETATM   21  C10 UNL     1      22.390   2.223  47.411  1.00  0.00     0.004 A 
HETATM   22  C11 UNL     1      21.907   3.358  46.788  1.00  0.00     0.019 A 
HETATM   23  C12 UNL     1      22.083   4.618  47.320  1.00  0.00     0.013 A 
HETATM   24 BR1  UNL     1      21.417   6.228  46.516  1.00  0.00    -0.051 Br
HETATM   25  C13 UNL     1      22.751   4.827  48.506  1.00  0.00     0.048 A 
ENDBRANCH  17  19
ENDBRANCH  10  17
BRANCH   1  26
HETATM   26  N1  UNL     1      22.997  -1.893  55.655  1.00  0.00    -0.303 NA
HETATM   27  H1  UNL     1      23.280  -2.521  56.425  1.00  0.00     0.124 HD
HETATM   28  H2  UNL     1      23.500  -2.399  56.409  1.00  0.00     0.124 HD
ENDBRANCH   1  26
TORSDOF 5
ENDMDL
MODEL 7
REMARK VINA RESULT:      -7.5      2.431      3.654
REMARK  5 active torsions:
REMARK  status: ('A' for Active; 'I' for Inactive)
REMARK    1  A    between atoms: N1_1  and  C1_2 
REMARK    2  A    between atoms: C4_5  and  C6_9 
REMARK    3  A    between atoms: C7_11  and  N4_12 
REMARK    4  A    between atoms: C7_11  and  C14_20 
REMARK    5  A    between atoms: N4_12  and  C8_13 
ROOT
HETATM    1  C1  UNL     1      22.696  -0.012  52.893  1.00  0.00     0.002 C 
HETATM    2  C2  UNL     1      21.362  -0.004  52.889  1.00  0.00     0.003 C 
HETATM    3  C3  UNL     1      20.723   1.330  52.689  1.00  0.00     0.062 A 
HETATM    4  C4  UNL     1      20.686   2.582  52.509  1.00  0.00    -0.009 A 
HETATM    5  O1  UNL     1      21.808   1.786  52.642  1.00  0.00     0.000 OA
HETATM    6  C5  UNL     1      22.796   2.578  52.546  1.00  0.00    -0.004 A 
HETATM    7  N2  UNL     1      22.665   3.895  52.350  1.00  0.00     0.000 N 
HETATM    8  C6  UNL     1      21.274   3.807  52.338  1.00  0.00     0.085 A 
HETATM    9  N3  UNL     1      21.972   4.856  52.195  1.00  0.00    -0.197 NA
HETATM   10  C7  UNL     1      23.359   4.905  52.214  1.00  0.00     0.177 A 
HETATM   11  C14 UNL     1      23.797   3.561  52.424  1.00  0.00     0.133 A 
HETATM   12  N5  UNL     1      25.252   3.305  52.616  1.00  0.00    -0.400 N 
HETATM   13  C15 UNL     1      24.896   2.392  53.678  1.00  0.00     0.143 C 
HETATM   14  C16 UNL     1      24.786   0.979  53.218  1.00  0.00    -0.006 C 
HETATM   15  C17 UNL     1      24.102  -0.103  52.875  1.00  0.00     0.020 C 
HETATM   16  H10 UNL     1      25.674   3.912  51.897  1.00  0.00     0.154 HD
ENDROOT
BRANCH  10  17
HETATM   17  N4  UNL     1      24.224   6.056  52.073  1.00  0.00    -0.361 N 
HETATM   18  H5  UNL     1      24.684   6.246  52.976  1.00  0.00     0.162 HD
BRANCH  17  19
HETATM   19  C8  UNL     1      24.120   6.515  50.757  1.00  0.00     0.031 A 
HETATM   20  C9  UNL     1      24.868   5.838  49.794  1.00  0.00     0.029 A 
HETATM   21  C10 UNL     1      24.857   6.147  48.458  1.00  0.00     0.004 A 
HETATM   22  C11 UNL     1      24.037   7.200  48.099  1.00  0.00     0.019 A 
HETATM   23  C12 UNL     1      23.284   7.891  49.025  1.00  0.00     0.013 A 
HETATM   24 BR1  UNL     1      22.111   9.345  48.589  1.00  0.00    -0.051 Br
HETATM   25  C13 UNL     1      23.300   7.576  50.365  1.00  0.00     0.048 A 
ENDBRANCH  17  19
ENDBRANCH  10  17
BRANCH   1  26
HETATM   26  N1  UNL     1      22.306  -1.408  53.077  1.00  0.00    -0.303 NA
HETATM   27  H1  UNL     1      22.170  -2.388  52.780  1.00  0.00     0.124 HD
HETATM   28  H2  UNL     1      22.268  -2.308  52.562  1.00  0.00     0.124 HD
ENDBRANCH   1  26
TORSDOF 5
ENDMDL
MODEL 8
REMARK VINA RESULT:      -7.5      2.335      2.841
REMARK  5 active torsions:
REMARK  status: ('A' for Active; 'I' for Inactive)
REMARK    1  A    between atoms: N1_1  and  C1_2 
REMARK    2  A    between atoms: C4_5  and  C6_9 
REMARK    3  A    between atoms: C7_11  and  N4_12 
REMARK    4  A    between atoms: C7_11  and  C14_20 
REMARK    5  A    between atoms: N4_12  and  C8_13 
ROOT
HETATM    1  C1  UNL     1      24.247  -0.857  54.971  1.00  0.00     0.002 C 
HETATM    2  C2  UNL     1      25.542  -0.551  54.878  1.00  0.00     0.003 C 
HETATM    3  C3  UNL     1      25.875   0.595  53.982  1.00  0.00     0.062 A 
HETATM    4  C4  UNL     1      25.640   1.540  53.174  1.00  0.00    -0.009 A 
HETATM    5  O1  UNL     1      24.723   0.681  53.750  1.00  0.00     0.000 OA
HETATM    6  C5  UNL     1      23.593   1.041  53.295  1.00  0.00    -0.004 A 
HETATM    7  N2  UNL     1      23.435   2.060  52.443  1.00  0.00     0.000 N 
HETATM    8  C6  UNL     1      24.804   2.322  52.422  1.00  0.00     0.085 A 
HETATM    9  N3  UNL     1      23.900   2.945  51.789  1.00  0.00    -0.197 NA
HETATM   10  C7  UNL     1      22.543   2.655  51.834  1.00  0.00     0.177 A 
HETATM   11  C14 UNL     1      22.409   1.539  52.717  1.00  0.00     0.133 A 
HETATM   12  N5  UNL     1      21.069   0.910  52.876  1.00  0.00    -0.400 N 
HETATM   13  C15 UNL     1      21.725  -0.376  52.815  1.00  0.00     0.143 C 
HETATM   14  C16 UNL     1      22.057  -0.924  54.162  1.00  0.00    -0.006 C 
HETATM   15  C17 UNL     1      22.895  -1.215  55.146  1.00  0.00     0.020 C 
HETATM   16  H10 UNL     1      20.451   1.733  52.936  1.00  0.00     0.154 HD
ENDROOT
BRANCH  10  17
HETATM   17  N4  UNL     1      21.456   3.305  51.135  1.00  0.00    -0.361 N 
HETATM   18  H5  UNL     1      20.760   3.633  51.822  1.00  0.00     0.162 HD
BRANCH  17  19
HETATM   19  C8  UNL     1      21.729   3.248  49.766  1.00  0.00     0.031 A 
HETATM   20  C9  UNL     1      21.833   1.979  49.198  1.00  0.00     0.029 A 
HETATM   21  C10 UNL     1      22.070   1.751  47.866  1.00  0.00     0.004 A 
HETATM   22  C11 UNL     1      22.207   2.884  47.086  1.00  0.00     0.019 A 
HETATM   23  C12 UNL     1      22.112   4.153  47.615  1.00  0.00     0.013 A 
HETATM   24 BR1  UNL     1      22.269   5.764  46.583  1.00  0.00    -0.051 Br
HETATM   25  C13 UNL     1      21.873   4.375  48.953  1.00  0.00     0.048 A 
ENDBRANCH  17  19
ENDBRANCH  10  17
BRANCH   1  26
HETATM   26  N1  UNL     1      24.926  -1.802  55.854  1.00  0.00    -0.303 NA
HETATM   27  H1  UNL     1      25.388  -2.098  56.730  1.00  0.00     0.124 HD
HETATM   28  H2  UNL     1      25.334  -1.864  56.806  1.00  0.00     0.124 HD
ENDBRANCH   1  26
TORSDOF 5
ENDMDL
MODEL 9
REMARK VINA RESULT:      -7.4      1.663      3.072
REMARK  5 active torsions:
REMARK  status: ('A' for Active; 'I' for Inactive)
REMARK    1  A    between atoms: N1_1  and  C1_2 
REMARK    2  A    between atoms: C4_5  and  C6_9 
REMARK    3  A    between atoms: C7_11  and  N4_12 
REMARK    4  A    between atoms: C7_11  and  C14_20 
REMARK    5  A    between atoms: N4_12  and  C8_13 
ROOT
HETATM    1  C1  UNL     1      25.528   0.007  53.011  1.00  0.00     0.002 C 
HETATM    2  C2  UNL     1      24.425  -0.286  53.702  1.00  0.00     0.003 C 
HETATM    3  C3  UNL     1      23.187   0.433  53.281  1.00  0.00     0.062 A 
HETATM    4  C4  UNL     1      22.490   1.238  52.597  1.00  0.00    -0.009 A 
HETATM    5  O1  UNL     1      23.843   0.981  52.471  1.00  0.00     0.000 OA
HETATM    6  C5  UNL     1      24.240   1.727  51.521  1.00  0.00    -0.004 A 
HETATM    7  N2  UNL     1      23.429   2.549  50.846  1.00  0.00     0.000 N 
HETATM    8  C6  UNL     1      22.324   2.168  51.605  1.00  0.00     0.085 A 
HETATM    9  N3  UNL     1      22.343   3.008  50.657  1.00  0.00    -0.197 NA
HETATM   10  C7  UNL     1      23.465   3.365  49.922  1.00  0.00     0.177 A 
HETATM   11  C14 UNL     1      24.546   2.599  50.460  1.00  0.00     0.133 A 
HETATM   12  N5  UNL     1      25.924   2.854  49.954  1.00  0.00    -0.400 N 
HETATM   13  C15 UNL     1      26.382   2.773  51.322  1.00  0.00     0.143 C 
HETATM   14  C16 UNL     1      26.854   1.410  51.697  1.00  0.00    -0.006 C 
HETATM   15  C17 UNL     1      26.725   0.240  52.304  1.00  0.00     0.020 C 
HETATM   16  H10 UNL     1      25.767   2.942  48.939  1.00  0.00     0.154 HD
ENDROOT
BRANCH  10  17
HETATM   17  N4  UNL     1      23.571   4.320  48.840  1.00  0.00    -0.361 N 
HETATM   18  H5  UNL     1      23.510   3.820  47.940  1.00  0.00     0.162 HD
BRANCH  17  19
HETATM   19  C8  UNL     1      23.734   5.589  49.401  1.00  0.00     0.031 A 
HETATM   20  C9  UNL     1      22.618   6.149  50.023  1.00  0.00     0.029 A 
HETATM   21  C10 UNL     1      22.619   7.373  50.643  1.00  0.00     0.004 A 
HETATM   22  C11 UNL     1      23.825   8.049  50.619  1.00  0.00     0.019 A 
HETATM   23  C12 UNL     1      24.947   7.525  50.012  1.00  0.00     0.013 A 
HETATM   24 BR1  UNL     1      26.653   8.402  49.964  1.00  0.00    -0.051 Br
HETATM   25  C13 UNL     1      24.939   6.296  49.392  1.00  0.00     0.048 A 
ENDBRANCH  17  19
ENDBRANCH  10  17
BRANCH   1  26
HETATM   26  N1  UNL     1      25.946  -0.997  53.987  1.00  0.00    -0.303 NA
HETATM   27  H1  UNL     1      25.815  -1.626  54.797  1.00  0.00     0.124 HD
HETATM   28  H2  UNL     1      25.580  -1.534  54.796  1.00  0.00     0.124 HD
ENDBRANCH   1  26
TORSDOF 5
ENDMDL
