MODEL 1
REMARK VINA RESULT:      -8.2      0.000      0.000
REMARK  3 active torsions:
REMARK  status: ('A' for Active; 'I' for Inactive)
REMARK    1  A    between atoms: C2_2  and  C3_3 
REMARK    2  A    between atoms: C8_10  and  N3_11 
REMARK    3  A    between atoms: N3_11  and  C10_13 
ROOT
HETATM    1  C3  UNL     1      22.479   0.885  51.666  1.00  0.00    -0.058 A 
HETATM    2  C4  UNL     1      21.303   0.284  52.039  1.00  0.00     0.009 A 
HETATM    3  C5  UNL     1      21.307  -0.503  53.176  1.00  0.00     0.033 A 
HETATM    4  C6  UNL     1      22.466  -0.672  53.907  1.00  0.00     0.072 A 
HETATM    5  N1  UNL     1      22.417  -1.446  55.004  1.00  0.00    -0.241 NA
HETATM    6  C7  UNL     1      23.562  -1.606  55.716  1.00  0.00     0.236 A 
HETATM    7  N2  UNL     1      24.716  -0.993  55.318  1.00  0.00    -0.223 NA
HETATM    8  C8  UNL     1      24.763  -0.210  54.209  1.00  0.00     0.143 A 
HETATM    9  C16 UNL     1      23.602  -0.042  53.476  1.00  0.00     0.039 A 
HETATM   10  C17 UNL     1      23.679   0.762  52.349  1.00  0.00     0.024 A 
ENDROOT
BRANCH   8  11
HETATM   11  N3  UNL     1      25.998   0.368  53.895  1.00  0.00    -0.335 N 
HETATM   12  C9  UNL     1      26.222   1.816  53.820  1.00  0.00     0.158 C 
BRANCH  11  13
HETATM   13  C10 UNL     1      27.108  -0.459  53.631  1.00  0.00     0.035 A 
HETATM   14  C11 UNL     1      28.399  -0.125  54.014  1.00  0.00     0.029 A 
HETATM   15  C12 UNL     1      29.515  -0.905  53.776  1.00  0.00     0.002 A 
HETATM   16  C13 UNL     1      29.343  -2.106  53.110  1.00  0.00     0.000 A 
HETATM   17  C14 UNL     1      28.086  -2.491  52.704  1.00  0.00     0.002 A 
HETATM   18  C15 UNL     1      27.023  -1.672  52.972  1.00  0.00     0.029 A 
ENDBRANCH  11  13
ENDBRANCH   8  11
BRANCH   1  19
HETATM   19  C2  UNL     1      22.398   1.714  50.436  1.00  0.00     0.034 C 
HETATM   20  C1  UNL     1      21.534   1.003  49.389  1.00  0.00     0.010 C 
ENDBRANCH   1  19
TORSDOF 3
ENDMDL
MODEL 2
REMARK VINA RESULT:      -7.6      1.073      2.040
REMARK  3 active torsions:
REMARK  status: ('A' for Active; 'I' for Inactive)
REMARK    1  A    between atoms: C2_2  and  C3_3 
REMARK    2  A    between atoms: C8_10  and  N3_11 
REMARK    3  A    between atoms: N3_11  and  C10_13 
ROOT
HETATM    1  C3  UNL     1      22.896   1.025  51.908  1.00  0.00    -0.058 A 
HETATM    2  C4  UNL     1      21.708   0.996  52.593  1.00  0.00     0.009 A 
HETATM    3  C5  UNL     1      21.666   0.310  53.793  1.00  0.00     0.033 A 
HETATM    4  C6  UNL     1      22.793  -0.323  54.278  1.00  0.00     0.072 A 
HETATM    5  N1  UNL     1      22.700  -0.975  55.449  1.00  0.00    -0.241 NA
HETATM    6  C7  UNL     1      23.815  -1.594  55.917  1.00  0.00     0.236 A 
HETATM    7  N2  UNL     1      24.982  -1.545  55.211  1.00  0.00    -0.223 NA
HETATM    8  C8  UNL     1      25.074  -0.884  54.028  1.00  0.00     0.143 A 
HETATM    9  C16 UNL     1      23.945  -0.251  53.542  1.00  0.00     0.039 A 
HETATM   10  C17 UNL     1      24.066   0.415  52.332  1.00  0.00     0.024 A 
ENDROOT
BRANCH   8  11
HETATM   11  N3  UNL     1      26.320  -0.899  53.389  1.00  0.00    -0.335 N 
HETATM   12  C9  UNL     1      26.762  -1.976  52.497  1.00  0.00     0.158 C 
BRANCH  11  13
HETATM   13  C10 UNL     1      27.221   0.164  53.593  1.00  0.00     0.035 A 
HETATM   14  C11 UNL     1      28.286   0.085  54.480  1.00  0.00     0.029 A 
HETATM   15  C12 UNL     1      29.192   1.103  54.710  1.00  0.00     0.002 A 
HETATM   16  C13 UNL     1      29.037   2.287  54.012  1.00  0.00     0.000 A 
HETATM   17  C14 UNL     1      27.999   2.426  53.118  1.00  0.00     0.002 A 
HETATM   18  C15 UNL     1      27.137   1.379  52.937  1.00  0.00     0.029 A 
ENDBRANCH  11  13
ENDBRANCH   8  11
BRANCH   1  19
HETATM   19  C2  UNL     1      22.866   1.780  50.628  1.00  0.00     0.034 C 
HETATM   20  C1  UNL     1      21.681   1.307  49.777  1.00  0.00     0.010 C 
ENDBRANCH   1  19
TORSDOF 3
ENDMDL
MODEL 3
REMARK VINA RESULT:      -7.6      2.452      5.799
REMARK  3 active torsions:
REMARK  status: ('A' for Active; 'I' for Inactive)
REMARK    1  A    between atoms: C2_2  and  C3_3 
REMARK    2  A    between atoms: C8_10  and  N3_11 
REMARK    3  A    between atoms: N3_11  and  C10_13 
ROOT
HETATM    1  C3  UNL     1      23.553  -0.406  54.179  1.00  0.00    -0.058 A 
HETATM    2  C4  UNL     1      24.728  -0.978  54.596  1.00  0.00     0.009 A 
HETATM    3  C5  UNL     1      25.914  -0.446  54.123  1.00  0.00     0.033 A 
HETATM    4  C6  UNL     1      25.904   0.629  53.257  1.00  0.00     0.072 A 
HETATM    5  N1  UNL     1      27.083   1.109  52.828  1.00  0.00    -0.241 NA
HETATM    6  C7  UNL     1      27.061   2.167  51.976  1.00  0.00     0.236 A 
HETATM    7  N2  UNL     1      25.874   2.713  51.581  1.00  0.00    -0.223 NA
HETATM    8  C8  UNL     1      24.683   2.227  52.018  1.00  0.00     0.143 A 
HETATM    9  C16 UNL     1      24.694   1.149  52.884  1.00  0.00     0.039 A 
HETATM   10  C17 UNL     1      23.464   0.673  53.314  1.00  0.00     0.024 A 
ENDROOT
BRANCH   8  11
HETATM   11  N3  UNL     1      23.529   2.864  51.548  1.00  0.00    -0.335 N 
HETATM   12  C9  UNL     1      22.885   3.990  52.234  1.00  0.00     0.158 C 
BRANCH  11  13
HETATM   13  C10 UNL     1      22.928   2.425  50.351  1.00  0.00     0.035 A 
HETATM   14  C11 UNL     1      23.244   2.963  49.112  1.00  0.00     0.029 A 
HETATM   15  C12 UNL     1      22.680   2.563  47.916  1.00  0.00     0.002 A 
HETATM   16  C13 UNL     1      21.732   1.556  47.944  1.00  0.00     0.000 A 
HETATM   17  C14 UNL     1      21.376   0.983  49.145  1.00  0.00     0.002 A 
HETATM   18  C15 UNL     1      21.974   1.425  50.293  1.00  0.00     0.029 A 
ENDBRANCH  11  13
ENDBRANCH   8  11
BRANCH   1  19
HETATM   19  C2  UNL     1      22.321  -1.030  54.727  1.00  0.00     0.034 C 
HETATM   20  C1  UNL     1      21.145  -0.056  54.595  1.00  0.00     0.010 C 
ENDBRANCH   1  19
TORSDOF 3
ENDMDL
MODEL 4
REMARK VINA RESULT:      -7.5      1.946      5.596
REMARK  3 active torsions:
REMARK  status: ('A' for Active; 'I' for Inactive)
REMARK    1  A    between atoms: C2_2  and  C3_3 
REMARK    2  A    between atoms: C8_10  and  N3_11 
REMARK    3  A    between atoms: N3_11  and  C10_13 
ROOT
HETATM    1  C3  UNL     1      26.105   0.787  52.867  1.00  0.00    -0.058 A 
HETATM    2  C4  UNL     1      26.239  -0.294  53.701  1.00  0.00     0.009 A 
HETATM    3  C5  UNL     1      25.091  -0.839  54.248  1.00  0.00     0.033 A 
HETATM    4  C6  UNL     1      23.853  -0.303  53.956  1.00  0.00     0.072 A 
HETATM    5  N1  UNL     1      22.770  -0.870  54.512  1.00  0.00    -0.241 NA
HETATM    6  C7  UNL     1      21.556  -0.335  54.219  1.00  0.00     0.236 A 
HETATM    7  N2  UNL     1      21.458   0.742  53.384  1.00  0.00    -0.223 NA
HETATM    8  C8  UNL     1      22.555   1.312  52.823  1.00  0.00     0.143 A 
HETATM    9  C16 UNL     1      23.795   0.776  53.116  1.00  0.00     0.039 A 
HETATM   10  C17 UNL     1      24.898   1.378  52.529  1.00  0.00     0.024 A 
ENDROOT
BRANCH   8  11
HETATM   11  N3  UNL     1      22.337   2.411  51.983  1.00  0.00    -0.335 N 
HETATM   12  C9  UNL     1      22.135   3.780  52.472  1.00  0.00     0.158 C 
BRANCH  11  13
HETATM   13  C10 UNL     1      22.306   2.227  50.586  1.00  0.00     0.035 A 
HETATM   14  C11 UNL     1      23.034   3.018  49.710  1.00  0.00     0.029 A 
HETATM   15  C12 UNL     1      23.033   2.872  48.336  1.00  0.00     0.002 A 
HETATM   16  C13 UNL     1      22.254   1.870  47.785  1.00  0.00     0.000 A 
HETATM   17  C14 UNL     1      21.508   1.053  48.604  1.00  0.00     0.002 A 
HETATM   18  C15 UNL     1      21.555   1.250  49.957  1.00  0.00     0.029 A 
ENDBRANCH  11  13
ENDBRANCH   8  11
BRANCH   1  19
HETATM   19  C2  UNL     1      27.380   1.319  52.319  1.00  0.00     0.034 C 
HETATM   20  C1  UNL     1      28.039   2.245  53.346  1.00  0.00     0.010 C 
ENDBRANCH   1  19
TORSDOF 3
ENDMDL
MODEL 5
REMARK VINA RESULT:      -7.4      2.606      5.544
REMARK  3 active torsions:
REMARK  status: ('A' for Active; 'I' for Inactive)
REMARK    1  A    between atoms: C2_2  and  C3_3 
REMARK    2  A    between atoms: C8_10  and  N3_11 
REMARK    3  A    between atoms: N3_11  and  C10_13 
ROOT
HETATM    1  C3  UNL     1      19.961  -0.755  53.455  1.00  0.00    -0.058 A 
HETATM    2  C4  UNL     1      20.580  -1.728  54.199  1.00  0.00     0.009 A 
HETATM    3  C5  UNL     1      21.946  -1.629  54.391  1.00  0.00     0.033 A 
HETATM    4  C6  UNL     1      22.656  -0.578  53.845  1.00  0.00     0.072 A 
HETATM    5  N1  UNL     1      23.980  -0.528  54.062  1.00  0.00    -0.241 NA
HETATM    6  C7  UNL     1      24.669   0.510  53.521  1.00  0.00     0.236 A 
HETATM    7  N2  UNL     1      24.023   1.462  52.786  1.00  0.00    -0.223 NA
HETATM    8  C8  UNL     1      22.683   1.409  52.570  1.00  0.00     0.143 A 
HETATM    9  C16 UNL     1      21.972   0.356  53.115  1.00  0.00     0.039 A 
HETATM   10  C17 UNL     1      20.606   0.327  52.878  1.00  0.00     0.024 A 
ENDROOT
BRANCH   8  11
HETATM   11  N3  UNL     1      22.125   2.438  51.801  1.00  0.00    -0.335 N 
HETATM   12  C9  UNL     1      21.429   3.595  52.375  1.00  0.00     0.158 C 
BRANCH  11  13
HETATM   13  C10 UNL     1      22.221   2.390  50.396  1.00  0.00     0.035 A 
HETATM   14  C11 UNL     1      22.863   3.372  49.655  1.00  0.00     0.029 A 
HETATM   15  C12 UNL     1      22.980   3.364  48.278  1.00  0.00     0.002 A 
HETATM   16  C13 UNL     1      22.422   2.307  47.580  1.00  0.00     0.000 A 
HETATM   17  C14 UNL     1      21.772   1.303  48.261  1.00  0.00     0.002 A 
HETATM   18  C15 UNL     1      21.693   1.371  49.625  1.00  0.00     0.029 A 
ENDBRANCH  11  13
ENDBRANCH   8  11
BRANCH   1  19
HETATM   19  C2  UNL     1      18.494  -0.928  53.291  1.00  0.00     0.034 C 
HETATM   20  C1  UNL     1      18.098  -2.364  53.648  1.00  0.00     0.010 C 
ENDBRANCH   1  19
TORSDOF 3
ENDMDL
MODEL 6
REMARK VINA RESULT:      -7.2      2.858      5.736
REMARK  3 active torsions:
REMARK  status: ('A' for Active; 'I' for Inactive)
REMARK    1  A    between atoms: C2_2  and  C3_3 
REMARK    2  A    between atoms: C8_10  and  N3_11 
REMARK    3  A    between atoms: N3_11  and  C10_13 
ROOT
HETATM    1  C3  UNL     1      23.370  -0.541  53.809  1.00  0.00    -0.058 A 
HETATM    2  C4  UNL     1      22.646  -1.244  54.739  1.00  0.00     0.009 A 
HETATM    3  C5  UNL     1      21.273  -1.306  54.582  1.00  0.00     0.033 A 
HETATM    4  C6  UNL     1      20.660  -0.675  53.519  1.00  0.00     0.072 A 
HETATM    5  N1  UNL     1      19.324  -0.767  53.412  1.00  0.00    -0.241 NA
HETATM    6  C7  UNL     1      18.730  -0.142  52.362  1.00  0.00     0.236 A 
HETATM    7  N2  UNL     1      19.480   0.549  51.454  1.00  0.00    -0.223 NA
HETATM    8  C8  UNL     1      20.831   0.639  51.564  1.00  0.00     0.143 A 
HETATM    9  C16 UNL     1      21.445   0.008  52.630  1.00  0.00     0.039 A 
HETATM   10  C17 UNL     1      22.824   0.116  52.718  1.00  0.00     0.024 A 
ENDROOT
BRANCH   8  11
HETATM   11  N3  UNL     1      21.498   1.374  50.577  1.00  0.00    -0.335 N 
HETATM   12  C9  UNL     1      21.543   0.982  49.163  1.00  0.00     0.158 C 
BRANCH  11  13
HETATM   13  C10 UNL     1      22.174   2.560  50.927  1.00  0.00     0.035 A 
HETATM   14  C11 UNL     1      21.607   3.535  51.734  1.00  0.00     0.029 A 
HETATM   15  C12 UNL     1      22.233   4.711  52.101  1.00  0.00     0.002 A 
HETATM   16  C13 UNL     1      23.516   4.942  51.637  1.00  0.00     0.000 A 
HETATM   17  C14 UNL     1      24.131   4.010  50.832  1.00  0.00     0.002 A 
HETATM   18  C15 UNL     1      23.455   2.866  50.506  1.00  0.00     0.029 A 
ENDBRANCH  11  13
ENDBRANCH   8  11
BRANCH   1  19
HETATM   19  C2  UNL     1      24.837  -0.518  54.042  1.00  0.00     0.034 C 
HETATM   20  C1  UNL     1      25.511   0.390  53.007  1.00  0.00     0.010 C 
ENDBRANCH   1  19
TORSDOF 3
ENDMDL
MODEL 7
REMARK VINA RESULT:      -7.1      2.161      5.583
REMARK  3 active torsions:
REMARK  status: ('A' for Active; 'I' for Inactive)
REMARK    1  A    between atoms: C2_2  and  C3_3 
REMARK    2  A    between atoms: C8_10  and  N3_11 
REMARK    3  A    between atoms: N3_11  and  C10_13 
ROOT
HETATM    1  C3  UNL     1      25.680   0.297  52.910  1.00  0.00    -0.058 A 
HETATM    2  C4  UNL     1      25.799  -0.447  54.057  1.00  0.00     0.009 A 
HETATM    3  C5  UNL     1      24.639  -0.884  54.671  1.00  0.00     0.033 A 
HETATM    4  C6  UNL     1      23.404  -0.576  54.137  1.00  0.00     0.072 A 
HETATM    5  N1  UNL     1      22.309  -1.025  54.771  1.00  0.00    -0.241 NA
HETATM    6  C7  UNL     1      21.099  -0.716  54.237  1.00  0.00     0.236 A 
HETATM    7  N2  UNL     1      21.016   0.026  53.094  1.00  0.00    -0.223 NA
HETATM    8  C8  UNL     1      22.125   0.478  52.454  1.00  0.00     0.143 A 
HETATM    9  C16 UNL     1      23.362   0.170  52.990  1.00  0.00     0.039 A 
HETATM   10  C17 UNL     1      24.477   0.645  52.316  1.00  0.00     0.024 A 
ENDROOT
BRANCH   8  11
HETATM   11  N3  UNL     1      21.922   1.230  51.291  1.00  0.00    -0.335 N 
HETATM   12  C9  UNL     1      21.339   0.683  50.061  1.00  0.00     0.158 C 
BRANCH  11  13
HETATM   13  C10 UNL     1      22.287   2.591  51.267  1.00  0.00     0.035 A 
HETATM   14  C11 UNL     1      23.076   3.138  50.266  1.00  0.00     0.029 A 
HETATM   15  C12 UNL     1      23.457   4.465  50.204  1.00  0.00     0.002 A 
HETATM   16  C13 UNL     1      23.025   5.317  51.205  1.00  0.00     0.000 A 
HETATM   17  C14 UNL     1      22.239   4.832  52.226  1.00  0.00     0.002 A 
HETATM   18  C15 UNL     1      21.898   3.507  52.227  1.00  0.00     0.029 A 
ENDBRANCH  11  13
ENDBRANCH   8  11
BRANCH   1  19
HETATM   19  C2  UNL     1      26.967   0.731  52.307  1.00  0.00     0.034 C 
HETATM   20  C1  UNL     1      26.761   2.038  51.534  1.00  0.00     0.010 C 
ENDBRANCH   1  19
TORSDOF 3
ENDMDL
MODEL 8
REMARK VINA RESULT:      -7.0      4.618      7.045
REMARK  3 active torsions:
REMARK  status: ('A' for Active; 'I' for Inactive)
REMARK    1  A    between atoms: C2_2  and  C3_3 
REMARK    2  A    between atoms: C8_10  and  N3_11 
REMARK    3  A    between atoms: N3_11  and  C10_13 
ROOT
HETATM    1  C3  UNL     1      26.267   5.293  49.252  1.00  0.00    -0.058 A 
HETATM    2  C4  UNL     1      26.261   6.634  49.542  1.00  0.00     0.009 A 
HETATM    3  C5  UNL     1      25.112   7.175  50.088  1.00  0.00     0.033 A 
HETATM    4  C6  UNL     1      24.009   6.381  50.332  1.00  0.00     0.072 A 
HETATM    5  N1  UNL     1      22.919   6.956  50.865  1.00  0.00    -0.241 NA
HETATM    6  C7  UNL     1      21.839   6.164  51.100  1.00  0.00     0.236 A 
HETATM    7  N2  UNL     1      21.879   4.833  50.800  1.00  0.00    -0.223 NA
HETATM    8  C8  UNL     1      22.984   4.254  50.263  1.00  0.00     0.143 A 
HETATM    9  C16 UNL     1      24.087   5.051  50.018  1.00  0.00     0.039 A 
HETATM   10  C17 UNL     1      25.201   4.434  49.469  1.00  0.00     0.024 A 
ENDROOT
BRANCH   8  11
HETATM   11  N3  UNL     1      22.913   2.882  49.996  1.00  0.00    -0.335 N 
HETATM   12  C9  UNL     1      22.642   2.326  48.665  1.00  0.00     0.158 C 
BRANCH  11  13
HETATM   13  C10 UNL     1      23.109   1.957  51.041  1.00  0.00     0.035 A 
HETATM   14  C11 UNL     1      22.070   1.228  51.601  1.00  0.00     0.029 A 
HETATM   15  C12 UNL     1      22.217   0.311  52.625  1.00  0.00     0.002 A 
HETATM   16  C13 UNL     1      23.486   0.098  53.134  1.00  0.00     0.000 A 
HETATM   17  C14 UNL     1      24.557   0.792  52.619  1.00  0.00     0.002 A 
HETATM   18  C15 UNL     1      24.342   1.685  51.605  1.00  0.00     0.029 A 
ENDBRANCH  11  13
ENDBRANCH   8  11
BRANCH   1  19
HETATM   19  C2  UNL     1      27.534   4.782  48.668  1.00  0.00     0.034 C 
HETATM   20  C1  UNL     1      28.440   5.958  48.287  1.00  0.00     0.010 C 
ENDBRANCH   1  19
TORSDOF 3
ENDMDL
MODEL 9
REMARK VINA RESULT:      -7.0      9.167     10.869
REMARK  3 active torsions:
REMARK  status: ('A' for Active; 'I' for Inactive)
REMARK    1  A    between atoms: C2_2  and  C3_3 
REMARK    2  A    between atoms: C8_10  and  N3_11 
REMARK    3  A    between atoms: N3_11  and  C10_13 
ROOT
HETATM    1  C3  UNL     1      27.711   6.595  48.089  1.00  0.00    -0.058 A 
HETATM    2  C4  UNL     1      27.172   7.512  47.222  1.00  0.00     0.009 A 
HETATM    3  C5  UNL     1      28.037   8.243  46.428  1.00  0.00     0.033 A 
HETATM    4  C6  UNL     1      29.401   8.047  46.513  1.00  0.00     0.072 A 
HETATM    5  N1  UNL     1      30.198   8.782  45.720  1.00  0.00    -0.241 NA
HETATM    6  C7  UNL     1      31.538   8.581  45.811  1.00  0.00     0.236 A 
HETATM    7  N2  UNL     1      32.042   7.660  46.684  1.00  0.00    -0.223 NA
HETATM    8  C8  UNL     1      31.234   6.917  47.484  1.00  0.00     0.143 A 
HETATM    9  C16 UNL     1      29.868   7.115  47.400  1.00  0.00     0.039 A 
HETATM   10  C17 UNL     1      29.066   6.344  48.229  1.00  0.00     0.024 A 
ENDROOT
BRANCH   8  11
HETATM   11  N3  UNL     1      31.858   6.003  48.341  1.00  0.00    -0.335 N 
HETATM   12  C9  UNL     1      31.969   6.194  49.792  1.00  0.00     0.158 C 
BRANCH  11  13
HETATM   13  C10 UNL     1      32.421   4.824  47.813  1.00  0.00     0.035 A 
HETATM   14  C11 UNL     1      31.686   3.907  47.076  1.00  0.00     0.029 A 
HETATM   15  C12 UNL     1      32.198   2.741  46.540  1.00  0.00     0.002 A 
HETATM   16  C13 UNL     1      33.536   2.458  46.747  1.00  0.00     0.000 A 
HETATM   17  C14 UNL     1      34.318   3.330  47.471  1.00  0.00     0.002 A 
HETATM   18  C15 UNL     1      33.748   4.468  47.973  1.00  0.00     0.029 A 
ENDBRANCH  11  13
ENDBRANCH   8  11
BRANCH   1  19
HETATM   19  C2  UNL     1      26.722   5.849  48.909  1.00  0.00     0.034 C 
HETATM   20  C1  UNL     1      27.137   4.377  49.008  1.00  0.00     0.010 C 
ENDBRANCH   1  19
TORSDOF 3
ENDMDL
