MODEL 1
REMARK VINA RESULT:      -8.8      0.000      0.000
REMARK  7 active torsions:
REMARK  status: ('A' for Active; 'I' for Inactive)
REMARK    1  A    between atoms: C6_6  and  N1_7 
REMARK    2  A    between atoms: N1_7  and  C8_9 
REMARK    3  A    between atoms: C9_11  and  C10_12 
REMARK    4  A    between atoms: C11_13  and  C12_14 
REMARK    5  A    between atoms: C13_15  and  C14_16 
REMARK    6  A    between atoms: C14_16  and  N3_17 
REMARK    7  A    between atoms: C17_21  and  C18_22 
ROOT
HETATM    1  C1  UNL     1      22.328  -0.280  54.138  1.00  0.00     0.049 C 
HETATM    2  C2  UNL     1      22.760   0.267  52.833  1.00  0.00    -0.055 C 
HETATM    3  C3  UNL     1      21.695   0.109  52.017  1.00  0.00     0.007 C 
HETATM    4  C4  UNL     1      21.610   0.502  50.592  1.00  0.00    -0.001 C 
HETATM    5  C5  UNL     1      22.304   1.535  50.064  1.00  0.00     0.002 C 
HETATM    6  C6  UNL     1      23.274   2.501  50.688  1.00  0.00     0.132 C 
HETATM    7  C16 UNL     1      24.189   1.803  51.614  1.00  0.00     0.010 C 
HETATM    8  C17 UNL     1      24.089   0.861  52.546  1.00  0.00    -0.046 C 
ENDROOT
BRANCH   6   9
HETATM    9  N1  UNL     1      22.589   3.619  51.261  1.00  0.00    -0.353 N 
HETATM   10  C7  UNL     1      21.507   3.412  52.223  1.00  0.00     0.152 C 
BRANCH   9  11
HETATM   11  C8  UNL     1      22.863   5.026  50.956  1.00  0.00     0.169 A 
HETATM   12  N2  UNL     1      23.774   5.824  50.806  1.00  0.00    -0.224 NA
HETATM   13  C9  UNL     1      23.608   7.093  50.552  1.00  0.00     0.066 A 
HETATM   14  C15 UNL     1      22.347   7.549  50.450  1.00  0.00     0.085 A 
HETATM   15  S1  UNL     1      21.272   6.082  50.730  1.00  0.00    -0.062 SA
BRANCH  13  16
HETATM   16  C10 UNL     1      24.767   7.959  50.373  1.00  0.00     0.032 C 
HETATM   17  C11 UNL     1      25.890   7.676  49.742  1.00  0.00     0.002 C 
BRANCH  17  18
HETATM   18  C12 UNL     1      26.841   6.892  48.986  1.00  0.00    -0.002 C 
HETATM   19  C13 UNL     1      27.388   5.770  48.618  1.00  0.00     0.003 C 
BRANCH  19  20
HETATM   20  C14 UNL     1      27.154   4.351  48.966  1.00  0.00     0.294 C 
BRANCH  20  21
HETATM   21  N3  UNL     1      26.540   4.239  50.283  1.00  0.00     0.081 N 
HETATM   22  H17 UNL     1      26.351   5.190  50.644  1.00  0.00     0.313 HD
HETATM   23  H18 UNL     1      27.102   3.674  50.935  1.00  0.00     0.313 HD
ENDBRANCH  20  21
ENDBRANCH  19  20
ENDBRANCH  17  18
ENDBRANCH  13  16
ENDBRANCH   9  11
ENDBRANCH   6   9
BRANCH   8  24
HETATM   24  C18 UNL     1      25.124   0.295  53.399  1.00  0.00     0.045 A 
HETATM   25  C19 UNL     1      25.788  -0.893  52.751  1.00  0.00    -0.014 A 
HETATM   26  C20 UNL     1      27.072  -1.270  52.681  1.00  0.00     0.038 A 
HETATM   27  C21 UNL     1      28.050  -0.387  53.340  1.00  0.00     0.112 A 
HETATM   28  F1  UNL     1      29.368  -0.609  53.381  1.00  0.00    -0.206 F 
HETATM   29  C22 UNL     1      27.468   0.654  53.891  1.00  0.00     0.016 A 
HETATM   30  C23 UNL     1      26.095   1.204  54.036  1.00  0.00     0.043 A 
ENDBRANCH   8  24
TORSDOF 7
ENDMDL
MODEL 2
REMARK VINA RESULT:      -8.5      2.687      5.366
REMARK  7 active torsions:
REMARK  status: ('A' for Active; 'I' for Inactive)
REMARK    1  A    between atoms: C6_6  and  N1_7 
REMARK    2  A    between atoms: N1_7  and  C8_9 
REMARK    3  A    between atoms: C9_11  and  C10_12 
REMARK    4  A    between atoms: C11_13  and  C12_14 
REMARK    5  A    between atoms: C13_15  and  C14_16 
REMARK    6  A    between atoms: C14_16  and  N3_17 
REMARK    7  A    between atoms: C17_21  and  C18_22 
ROOT
HETATM    1  C1  UNL     1      22.478  -0.540  54.377  1.00  0.00     0.049 C 
HETATM    2  C2  UNL     1      22.845   0.044  53.068  1.00  0.00    -0.055 C 
HETATM    3  C3  UNL     1      21.770  -0.164  52.277  1.00  0.00     0.007 C 
HETATM    4  C4  UNL     1      21.626   0.240  50.860  1.00  0.00    -0.001 C 
HETATM    5  C5  UNL     1      22.248   1.315  50.327  1.00  0.00     0.002 C 
HETATM    6  C6  UNL     1      23.180   2.326  50.938  1.00  0.00     0.132 C 
HETATM    7  C16 UNL     1      24.155   1.669  51.832  1.00  0.00     0.010 C 
HETATM    8  C17 UNL     1      24.131   0.713  52.755  1.00  0.00    -0.046 C 
ENDROOT
BRANCH   6   9
HETATM    9  N1  UNL     1      22.450   3.399  51.542  1.00  0.00    -0.353 N 
HETATM   10  C7  UNL     1      23.095   4.275  52.519  1.00  0.00     0.152 C 
BRANCH   9  11
HETATM   11  C8  UNL     1      21.044   3.717  51.282  1.00  0.00     0.169 A 
HETATM   12  N2  UNL     1      19.907   3.391  51.581  1.00  0.00    -0.224 NA
HETATM   13  C9  UNL     1      18.829   3.930  51.080  1.00  0.00     0.066 A 
HETATM   14  C15 UNL     1      18.986   4.909  50.171  1.00  0.00     0.085 A 
HETATM   15  S1  UNL     1      20.805   5.117  49.985  1.00  0.00    -0.062 SA
BRANCH  13  16
HETATM   16  C10 UNL     1      17.516   3.479  51.519  1.00  0.00     0.032 C 
HETATM   17  C11 UNL     1      17.067   2.239  51.568  1.00  0.00     0.002 C 
BRANCH  17  18
HETATM   18  C12 UNL     1      17.088   0.801  51.426  1.00  0.00    -0.002 C 
HETATM   19  C13 UNL     1      17.448  -0.396  51.788  1.00  0.00     0.003 C 
BRANCH  19  20
HETATM   20  C14 UNL     1      18.281  -0.929  52.890  1.00  0.00     0.294 C 
BRANCH  20  21
HETATM   21  N3  UNL     1      17.460  -1.669  53.841  1.00  0.00     0.081 N 
HETATM   22  H17 UNL     1      18.043  -1.927  54.655  1.00  0.00     0.313 HD
HETATM   23  H18 UNL     1      16.996  -2.483  53.414  1.00  0.00     0.313 HD
ENDBRANCH  20  21
ENDBRANCH  19  20
ENDBRANCH  17  18
ENDBRANCH  13  16
ENDBRANCH   9  11
ENDBRANCH   6   9
BRANCH   8  24
HETATM   24  C18 UNL     1      25.218   0.196  53.574  1.00  0.00     0.045 A 
HETATM   25  C19 UNL     1      25.905  -0.971  52.911  1.00  0.00    -0.014 A 
HETATM   26  C20 UNL     1      27.201  -1.296  52.797  1.00  0.00     0.038 A 
HETATM   27  C21 UNL     1      28.165  -0.370  53.416  1.00  0.00     0.112 A 
HETATM   28  F1  UNL     1      29.492  -0.539  53.411  1.00  0.00    -0.206 F 
HETATM   29  C22 UNL     1      27.562   0.652  53.979  1.00  0.00     0.016 A 
HETATM   30  C23 UNL     1      26.174   1.148  54.170  1.00  0.00     0.043 A 
ENDBRANCH   8  24
TORSDOF 7
ENDMDL
MODEL 3
REMARK VINA RESULT:      -8.3      2.201      6.004
REMARK  7 active torsions:
REMARK  status: ('A' for Active; 'I' for Inactive)
REMARK    1  A    between atoms: C6_6  and  N1_7 
REMARK    2  A    between atoms: N1_7  and  C8_9 
REMARK    3  A    between atoms: C9_11  and  C10_12 
REMARK    4  A    between atoms: C11_13  and  C12_14 
REMARK    5  A    between atoms: C13_15  and  C14_16 
REMARK    6  A    between atoms: C14_16  and  N3_17 
REMARK    7  A    between atoms: C17_21  and  C18_22 
ROOT
HETATM    1  C1  UNL     1      26.773   3.475  49.326  1.00  0.00     0.049 C 
HETATM    2  C2  UNL     1      25.830   3.647  50.453  1.00  0.00    -0.055 C 
HETATM    3  C3  UNL     1      25.287   4.871  50.273  1.00  0.00     0.007 C 
HETATM    4  C4  UNL     1      24.274   5.522  51.133  1.00  0.00    -0.001 C 
HETATM    5  C5  UNL     1      23.355   4.835  51.848  1.00  0.00     0.002 C 
HETATM    6  C6  UNL     1      23.103   3.358  51.981  1.00  0.00     0.132 C 
HETATM    7  C16 UNL     1      24.375   2.615  52.097  1.00  0.00     0.010 C 
HETATM    8  C17 UNL     1      25.571   2.647  51.517  1.00  0.00    -0.046 C 
ENDROOT
BRANCH   6   9
HETATM    9  N1  UNL     1      22.235   2.889  50.944  1.00  0.00    -0.353 N 
HETATM   10  C7  UNL     1      22.436   3.319  49.560  1.00  0.00     0.152 C 
BRANCH   9  11
HETATM   11  C8  UNL     1      21.096   1.988  51.136  1.00  0.00     0.169 A 
HETATM   12  N2  UNL     1      20.638   1.159  51.905  1.00  0.00    -0.224 NA
HETATM   13  C9  UNL     1      19.530   0.499  51.703  1.00  0.00     0.066 A 
HETATM   14  C15 UNL     1      18.851   0.753  50.571  1.00  0.00     0.085 A 
HETATM   15  S1  UNL     1      19.833   2.034  49.688  1.00  0.00    -0.062 SA
BRANCH  13  16
HETATM   16  C10 UNL     1      19.061  -0.460  52.695  1.00  0.00     0.032 C 
HETATM   17  C11 UNL     1      19.755  -1.005  53.676  1.00  0.00     0.002 C 
BRANCH  17  18
HETATM   18  C12 UNL     1      20.899  -1.279  54.515  1.00  0.00    -0.002 C 
HETATM   19  C13 UNL     1      22.170  -1.244  54.792  1.00  0.00     0.003 C 
BRANCH  19  20
HETATM   20  C14 UNL     1      23.361  -0.714  54.090  1.00  0.00     0.294 C 
BRANCH  20  21
HETATM   21  N3  UNL     1      23.081  -0.532  52.671  1.00  0.00     0.081 N 
HETATM   22  H17 UNL     1      23.002   0.481  52.474  1.00  0.00     0.313 HD
HETATM   23  H18 UNL     1      22.253  -1.060  52.360  1.00  0.00     0.313 HD
ENDBRANCH  20  21
ENDBRANCH  19  20
ENDBRANCH  17  18
ENDBRANCH  13  16
ENDBRANCH   9  11
ENDBRANCH   6   9
BRANCH   8  24
HETATM   24  C18 UNL     1      26.731   1.800  51.752  1.00  0.00     0.045 A 
HETATM   25  C19 UNL     1      27.656   2.400  52.780  1.00  0.00    -0.014 A 
HETATM   26  C20 UNL     1      28.328   1.853  53.803  1.00  0.00     0.038 A 
HETATM   27  C21 UNL     1      28.156   0.402  53.997  1.00  0.00     0.112 A 
HETATM   28  F1  UNL     1      28.755  -0.312  54.957  1.00  0.00    -0.206 F 
HETATM   29  C22 UNL     1      27.338  -0.112  53.108  1.00  0.00     0.016 A 
HETATM   30  C23 UNL     1      26.526   0.354  51.954  1.00  0.00     0.043 A 
ENDBRANCH   8  24
TORSDOF 7
ENDMDL
MODEL 4
REMARK VINA RESULT:      -8.2      1.565      1.902
REMARK  7 active torsions:
REMARK  status: ('A' for Active; 'I' for Inactive)
REMARK    1  A    between atoms: C6_6  and  N1_7 
REMARK    2  A    between atoms: N1_7  and  C8_9 
REMARK    3  A    between atoms: C9_11  and  C10_12 
REMARK    4  A    between atoms: C11_13  and  C12_14 
REMARK    5  A    between atoms: C13_15  and  C14_16 
REMARK    6  A    between atoms: C14_16  and  N3_17 
REMARK    7  A    between atoms: C17_21  and  C18_22 
ROOT
HETATM    1  C1  UNL     1      22.572   0.112  53.850  1.00  0.00     0.049 C 
HETATM    2  C2  UNL     1      23.244   0.722  52.683  1.00  0.00    -0.055 C 
HETATM    3  C3  UNL     1      22.268   0.893  51.765  1.00  0.00     0.007 C 
HETATM    4  C4  UNL     1      22.420   1.476  50.413  1.00  0.00    -0.001 C 
HETATM    5  C5  UNL     1      23.353   2.404  50.105  1.00  0.00     0.002 C 
HETATM    6  C6  UNL     1      24.414   3.062  50.945  1.00  0.00     0.132 C 
HETATM    7  C16 UNL     1      25.068   2.077  51.831  1.00  0.00     0.010 C 
HETATM    8  C17 UNL     1      24.686   1.063  52.601  1.00  0.00    -0.046 C 
ENDROOT
BRANCH   6   9
HETATM    9  N1  UNL     1      23.895   4.213  51.619  1.00  0.00    -0.353 N 
HETATM   10  C7  UNL     1      23.718   4.205  53.071  1.00  0.00     0.152 C 
BRANCH   9  11
HETATM   11  C8  UNL     1      23.485   5.460  50.968  1.00  0.00     0.169 A 
HETATM   12  N2  UNL     1      23.926   6.439  50.388  1.00  0.00    -0.224 NA
HETATM   13  C9  UNL     1      23.195   7.427  49.948  1.00  0.00     0.066 A 
HETATM   14  C15 UNL     1      21.868   7.359  50.151  1.00  0.00     0.085 A 
HETATM   15  S1  UNL     1      21.589   5.770  51.037  1.00  0.00    -0.062 SA
BRANCH  13  16
HETATM   16  C10 UNL     1      23.821   8.543  49.251  1.00  0.00     0.032 C 
HETATM   17  C11 UNL     1      25.022   9.047  49.458  1.00  0.00     0.002 C 
BRANCH  17  18
HETATM   18  C12 UNL     1      26.327   9.193  50.061  1.00  0.00    -0.002 C 
HETATM   19  C13 UNL     1      27.628   9.208  50.022  1.00  0.00     0.003 C 
BRANCH  19  20
HETATM   20  C14 UNL     1      28.627   9.006  48.949  1.00  0.00     0.294 C 
BRANCH  20  21
HETATM   21  N3  UNL     1      29.872   8.481  49.498  1.00  0.00     0.081 N 
HETATM   22  H17 UNL     1      30.641   9.130  49.259  1.00  0.00     0.313 HD
HETATM   23  H18 UNL     1      30.062   7.515  49.196  1.00  0.00     0.313 HD
ENDBRANCH  20  21
ENDBRANCH  19  20
ENDBRANCH  17  18
ENDBRANCH  13  16
ENDBRANCH   9  11
ENDBRANCH   6   9
BRANCH   8  24
HETATM   24  C18 UNL     1      25.492   0.192  53.444  1.00  0.00     0.045 A 
HETATM   25  C19 UNL     1      26.283  -0.795  52.624  1.00  0.00    -0.014 A 
HETATM   26  C20 UNL     1      27.547  -1.230  52.727  1.00  0.00     0.038 A 
HETATM   27  C21 UNL     1      28.347  -0.661  53.825  1.00  0.00     0.112 A 
HETATM   28  F1  UNL     1      29.619  -0.984  54.085  1.00  0.00    -0.206 F 
HETATM   29  C22 UNL     1      27.658   0.209  54.526  1.00  0.00     0.016 A 
HETATM   30  C23 UNL     1      26.291   0.793  54.528  1.00  0.00     0.043 A 
ENDBRANCH   8  24
TORSDOF 7
ENDMDL
MODEL 5
REMARK VINA RESULT:      -7.9      1.951      2.973
REMARK  7 active torsions:
REMARK  status: ('A' for Active; 'I' for Inactive)
REMARK    1  A    between atoms: C6_6  and  N1_7 
REMARK    2  A    between atoms: N1_7  and  C8_9 
REMARK    3  A    between atoms: C9_11  and  C10_12 
REMARK    4  A    between atoms: C11_13  and  C12_14 
REMARK    5  A    between atoms: C13_15  and  C14_16 
REMARK    6  A    between atoms: C14_16  and  N3_17 
REMARK    7  A    between atoms: C17_21  and  C18_22 
ROOT
HETATM    1  C1  UNL     1      24.059   4.320  53.114  1.00  0.00     0.049 C 
HETATM    2  C2  UNL     1      23.150   3.359  52.452  1.00  0.00    -0.055 C 
HETATM    3  C3  UNL     1      21.936   3.952  52.472  1.00  0.00     0.007 C 
HETATM    4  C4  UNL     1      20.675   3.401  51.926  1.00  0.00    -0.001 C 
HETATM    5  C5  UNL     1      20.630   2.550  50.877  1.00  0.00     0.002 C 
HETATM    6  C6  UNL     1      21.724   1.960  50.029  1.00  0.00     0.132 C 
HETATM    7  C16 UNL     1      22.870   1.546  50.864  1.00  0.00     0.010 C 
HETATM    8  C17 UNL     1      23.547   2.043  51.895  1.00  0.00    -0.046 C 
ENDROOT
BRANCH   6   9
HETATM    9  N1  UNL     1      22.064   2.833  48.947  1.00  0.00    -0.353 N 
HETATM   10  C7  UNL     1      21.302   2.797  47.699  1.00  0.00     0.152 C 
BRANCH   9  11
HETATM   11  C8  UNL     1      23.165   3.799  48.954  1.00  0.00     0.169 A 
HETATM   12  N2  UNL     1      24.383   3.878  48.959  1.00  0.00    -0.224 NA
HETATM   13  C9  UNL     1      25.049   5.000  48.997  1.00  0.00     0.066 A 
HETATM   14  C15 UNL     1      24.343   6.143  49.033  1.00  0.00     0.085 A 
HETATM   15  S1  UNL     1      22.576   5.628  49.010  1.00  0.00    -0.062 SA
BRANCH  13  16
HETATM   16  C10 UNL     1      26.506   4.984  48.983  1.00  0.00     0.032 C 
HETATM   17  C11 UNL     1      27.316   5.975  48.664  1.00  0.00     0.002 C 
BRANCH  17  18
HETATM   18  C12 UNL     1      27.710   7.302  48.248  1.00  0.00    -0.002 C 
HETATM   19  C13 UNL     1      27.795   8.591  48.407  1.00  0.00     0.003 C 
BRANCH  19  20
HETATM   20  C14 UNL     1      27.358   9.526  49.467  1.00  0.00     0.294 C 
BRANCH  20  21
HETATM   21  N3  UNL     1      27.480   8.906  50.781  1.00  0.00     0.081 N 
HETATM   22  H17 UNL     1      26.648   9.152  51.345  1.00  0.00     0.313 HD
HETATM   23  H18 UNL     1      28.362   9.148  51.253  1.00  0.00     0.313 HD
ENDBRANCH  20  21
ENDBRANCH  19  20
ENDBRANCH  17  18
ENDBRANCH  13  16
ENDBRANCH   9  11
ENDBRANCH   6   9
BRANCH   8  24
HETATM   24  C18 UNL     1      24.696   1.488  52.596  1.00  0.00     0.045 A 
HETATM   25  C19 UNL     1      24.327   0.247  53.368  1.00  0.00    -0.014 A 
HETATM   26  C20 UNL     1      24.956  -0.926  53.525  1.00  0.00     0.038 A 
HETATM   27  C21 UNL     1      26.246  -1.075  52.828  1.00  0.00     0.112 A 
HETATM   28  F1  UNL     1      27.015  -2.168  52.878  1.00  0.00    -0.206 F 
HETATM   29  C22 UNL     1      26.555   0.004  52.145  1.00  0.00     0.016 A 
HETATM   30  C23 UNL     1      25.970   1.341  51.868  1.00  0.00     0.043 A 
ENDBRANCH   8  24
TORSDOF 7
ENDMDL
MODEL 6
REMARK VINA RESULT:      -7.8      3.736      6.109
REMARK  7 active torsions:
REMARK  status: ('A' for Active; 'I' for Inactive)
REMARK    1  A    between atoms: C6_6  and  N1_7 
REMARK    2  A    between atoms: N1_7  and  C8_9 
REMARK    3  A    between atoms: C9_11  and  C10_12 
REMARK    4  A    between atoms: C11_13  and  C12_14 
REMARK    5  A    between atoms: C13_15  and  C14_16 
REMARK    6  A    between atoms: C14_16  and  N3_17 
REMARK    7  A    between atoms: C17_21  and  C18_22 
ROOT
HETATM    1  C1  UNL     1      22.303  -0.348  54.150  1.00  0.00     0.049 C 
HETATM    2  C2  UNL     1      22.688   0.279  52.867  1.00  0.00    -0.055 C 
HETATM    3  C3  UNL     1      21.637   0.071  52.044  1.00  0.00     0.007 C 
HETATM    4  C4  UNL     1      21.519   0.509  50.635  1.00  0.00    -0.001 C 
HETATM    5  C5  UNL     1      22.131   1.612  50.146  1.00  0.00     0.002 C 
HETATM    6  C6  UNL     1      23.025   2.625  50.807  1.00  0.00     0.132 C 
HETATM    7  C16 UNL     1      23.993   1.965  51.707  1.00  0.00     0.010 C 
HETATM    8  C17 UNL     1      23.967   0.983  52.603  1.00  0.00    -0.046 C 
ENDROOT
BRANCH   6   9
HETATM    9  N1  UNL     1      22.258   3.665  51.421  1.00  0.00    -0.353 N 
HETATM   10  C7  UNL     1      22.895   4.616  52.333  1.00  0.00     0.152 C 
BRANCH   9  11
HETATM   11  C8  UNL     1      20.821   3.879  51.235  1.00  0.00     0.169 A 
HETATM   12  N2  UNL     1      19.732   3.600  51.709  1.00  0.00    -0.224 NA
HETATM   13  C9  UNL     1      18.589   3.982  51.207  1.00  0.00     0.066 A 
HETATM   14  C15 UNL     1      18.618   4.734  50.092  1.00  0.00     0.085 A 
HETATM   15  S1  UNL     1      20.401   4.942  49.688  1.00  0.00    -0.062 SA
BRANCH  13  16
HETATM   16  C10 UNL     1      17.343   3.608  51.863  1.00  0.00     0.032 C 
HETATM   17  C11 UNL     1      16.114   3.851  51.449  1.00  0.00     0.002 C 
BRANCH  17  18
HETATM   18  C12 UNL     1      15.064   4.349  50.590  1.00  0.00    -0.002 C 
HETATM   19  C13 UNL     1      13.817   4.505  50.252  1.00  0.00     0.003 C 
BRANCH  19  20
HETATM   20  C14 UNL     1      12.531   4.066  50.839  1.00  0.00     0.294 C 
BRANCH  20  21
HETATM   21  N3  UNL     1      12.167   4.913  51.969  1.00  0.00     0.081 N 
HETATM   22  H17 UNL     1      11.182   5.207  51.862  1.00  0.00     0.313 HD
HETATM   23  H18 UNL     1      12.807   5.711  52.087  1.00  0.00     0.313 HD
ENDBRANCH  20  21
ENDBRANCH  19  20
ENDBRANCH  17  18
ENDBRANCH  13  16
ENDBRANCH   9  11
ENDBRANCH   6   9
BRANCH   8  24
HETATM   24  C18 UNL     1      25.045   0.467  53.434  1.00  0.00     0.045 A 
HETATM   25  C19 UNL     1      25.645  -0.786  52.849  1.00  0.00    -0.014 A 
HETATM   26  C20 UNL     1      26.916  -1.195  52.731  1.00  0.00     0.038 A 
HETATM   27  C21 UNL     1      27.948  -0.283  53.253  1.00  0.00     0.112 A 
HETATM   28  F1  UNL     1      29.263  -0.530  53.230  1.00  0.00    -0.206 F 
HETATM   29  C22 UNL     1      27.421   0.813  53.748  1.00  0.00     0.016 A 
HETATM   30  C23 UNL     1      26.070   1.403  53.932  1.00  0.00     0.043 A 
ENDBRANCH   8  24
TORSDOF 7
ENDMDL
MODEL 7
REMARK VINA RESULT:      -7.8      1.689      2.025
REMARK  7 active torsions:
REMARK  status: ('A' for Active; 'I' for Inactive)
REMARK    1  A    between atoms: C6_6  and  N1_7 
REMARK    2  A    between atoms: N1_7  and  C8_9 
REMARK    3  A    between atoms: C9_11  and  C10_12 
REMARK    4  A    between atoms: C11_13  and  C12_14 
REMARK    5  A    between atoms: C13_15  and  C14_16 
REMARK    6  A    between atoms: C14_16  and  N3_17 
REMARK    7  A    between atoms: C17_21  and  C18_22 
ROOT
HETATM    1  C1  UNL     1      20.876   1.523  53.198  1.00  0.00     0.049 C 
HETATM    2  C2  UNL     1      21.619   1.402  51.925  1.00  0.00    -0.055 C 
HETATM    3  C3  UNL     1      20.692   1.047  51.009  1.00  0.00     0.007 C 
HETATM    4  C4  UNL     1      20.923   0.802  49.568  1.00  0.00    -0.001 C 
HETATM    5  C5  UNL     1      21.897   1.413  48.858  1.00  0.00     0.002 C 
HETATM    6  C6  UNL     1      22.938   2.421  49.264  1.00  0.00     0.132 C 
HETATM    7  C16 UNL     1      23.521   2.075  50.576  1.00  0.00     0.010 C 
HETATM    8  C17 UNL     1      23.073   1.642  51.750  1.00  0.00    -0.046 C 
ENDROOT
BRANCH   6   9
HETATM    9  N1  UNL     1      22.425   3.754  49.176  1.00  0.00    -0.353 N 
HETATM   10  C7  UNL     1      21.100   4.002  48.607  1.00  0.00     0.152 C 
BRANCH   9  11
HETATM   11  C8  UNL     1      23.133   4.963  49.604  1.00  0.00     0.169 A 
HETATM   12  N2  UNL     1      24.118   5.642  49.367  1.00  0.00    -0.224 NA
HETATM   13  C9  UNL     1      24.454   6.712  50.033  1.00  0.00     0.066 A 
HETATM   14  C15 UNL     1      23.658   7.089  51.050  1.00  0.00     0.085 A 
HETATM   15  S1  UNL     1      22.302   5.846  51.097  1.00  0.00    -0.062 SA
BRANCH  13  16
HETATM   16  C10 UNL     1      25.645   7.463  49.657  1.00  0.00     0.032 C 
HETATM   17  C11 UNL     1      26.726   7.004  49.057  1.00  0.00     0.002 C 
BRANCH  17  18
HETATM   18  C12 UNL     1      27.606   6.041  48.436  1.00  0.00    -0.002 C 
HETATM   19  C13 UNL     1      28.778   5.533  48.182  1.00  0.00     0.003 C 
BRANCH  19  20
HETATM   20  C14 UNL     1      30.158   5.884  48.584  1.00  0.00     0.294 C 
BRANCH  20  21
HETATM   21  N3  UNL     1      30.239   7.288  48.970  1.00  0.00     0.081 N 
HETATM   22  H17 UNL     1      31.037   7.410  49.617  1.00  0.00     0.313 HD
HETATM   23  H18 UNL     1      29.355   7.642  49.362  1.00  0.00     0.313 HD
ENDBRANCH  20  21
ENDBRANCH  19  20
ENDBRANCH  17  18
ENDBRANCH  13  16
ENDBRANCH   9  11
ENDBRANCH   6   9
BRANCH   8  24
HETATM   24  C18 UNL     1      23.812   1.367  52.974  1.00  0.00     0.045 A 
HETATM   25  C19 UNL     1      24.249  -0.073  53.046  1.00  0.00    -0.014 A 
HETATM   26  C20 UNL     1      25.400  -0.638  53.436  1.00  0.00     0.038 A 
HETATM   27  C21 UNL     1      26.463   0.281  53.879  1.00  0.00     0.112 A 
HETATM   28  F1  UNL     1      27.670  -0.103  54.310  1.00  0.00    -0.206 F 
HETATM   29  C22 UNL     1      26.083   1.535  53.800  1.00  0.00     0.016 A 
HETATM   30  C23 UNL     1      24.878   2.301  53.385  1.00  0.00     0.043 A 
ENDBRANCH   8  24
TORSDOF 7
ENDMDL
MODEL 8
REMARK VINA RESULT:      -7.8      3.667      7.293
REMARK  7 active torsions:
REMARK  status: ('A' for Active; 'I' for Inactive)
REMARK    1  A    between atoms: C6_6  and  N1_7 
REMARK    2  A    between atoms: N1_7  and  C8_9 
REMARK    3  A    between atoms: C9_11  and  C10_12 
REMARK    4  A    between atoms: C11_13  and  C12_14 
REMARK    5  A    between atoms: C13_15  and  C14_16 
REMARK    6  A    between atoms: C14_16  and  N3_17 
REMARK    7  A    between atoms: C17_21  and  C18_22 
ROOT
HETATM    1  C1  UNL     1      26.389   3.294  49.593  1.00  0.00     0.049 C 
HETATM    2  C2  UNL     1      25.449   3.153  50.726  1.00  0.00    -0.055 C 
HETATM    3  C3  UNL     1      24.709   4.283  50.712  1.00  0.00     0.007 C 
HETATM    4  C4  UNL     1      23.616   4.635  51.646  1.00  0.00    -0.001 C 
HETATM    5  C5  UNL     1      22.835   3.715  52.255  1.00  0.00     0.002 C 
HETATM    6  C6  UNL     1      22.831   2.212  52.183  1.00  0.00     0.132 C 
HETATM    7  C16 UNL     1      24.209   1.681  52.205  1.00  0.00     0.010 C 
HETATM    8  C17 UNL     1      25.374   1.989  51.643  1.00  0.00    -0.046 C 
ENDROOT
BRANCH   6   9
HETATM    9  N1  UNL     1      22.036   1.752  51.085  1.00  0.00    -0.353 N 
HETATM   10  C7  UNL     1      22.521   1.884  49.712  1.00  0.00     0.152 C 
BRANCH   9  11
HETATM   11  C8  UNL     1      20.708   1.144  51.199  1.00  0.00     0.169 A 
HETATM   12  N2  UNL     1      20.039   0.406  51.904  1.00  0.00    -0.224 NA
HETATM   13  C9  UNL     1      18.812   0.048  51.641  1.00  0.00     0.066 A 
HETATM   14  C15 UNL     1      18.250   0.527  50.517  1.00  0.00     0.085 A 
HETATM   15  S1  UNL     1      19.539   1.582  49.736  1.00  0.00    -0.062 SA
BRANCH  13  16
HETATM   16  C10 UNL     1      18.094  -0.825  52.560  1.00  0.00     0.032 C 
HETATM   17  C11 UNL     1      16.796  -0.849  52.796  1.00  0.00     0.002 C 
BRANCH  17  18
HETATM   18  C12 UNL     1      15.406  -0.471  52.678  1.00  0.00    -0.002 C 
HETATM   19  C13 UNL     1      14.442   0.401  52.618  1.00  0.00     0.003 C 
BRANCH  19  20
HETATM   20  C14 UNL     1      14.389   1.879  52.667  1.00  0.00     0.294 C 
BRANCH  20  21
HETATM   21  N3  UNL     1      13.528   2.326  53.756  1.00  0.00     0.081 N 
HETATM   22  H17 UNL     1      12.593   2.547  53.374  1.00  0.00     0.313 HD
HETATM   23  H18 UNL     1      13.935   3.110  54.285  1.00  0.00     0.313 HD
ENDBRANCH  20  21
ENDBRANCH  19  20
ENDBRANCH  17  18
ENDBRANCH  13  16
ENDBRANCH   9  11
ENDBRANCH   6   9
BRANCH   8  24
HETATM   24  C18 UNL     1      26.662   1.321  51.768  1.00  0.00     0.045 A 
HETATM   25  C19 UNL     1      27.586   2.067  52.696  1.00  0.00    -0.014 A 
HETATM   26  C20 UNL     1      28.425   1.643  53.650  1.00  0.00     0.038 A 
HETATM   27  C21 UNL     1      28.484   0.187  53.870  1.00  0.00     0.112 A 
HETATM   28  F1  UNL     1      29.269  -0.414  54.770  1.00  0.00    -0.206 F 
HETATM   29  C22 UNL     1      27.666  -0.457  53.069  1.00  0.00     0.016 A 
HETATM   30  C23 UNL     1      26.687  -0.136  51.998  1.00  0.00     0.043 A 
ENDBRANCH   8  24
TORSDOF 7
ENDMDL
MODEL 9
REMARK VINA RESULT:      -7.7      3.159      6.304
REMARK  7 active torsions:
REMARK  status: ('A' for Active; 'I' for Inactive)
REMARK    1  A    between atoms: C6_6  and  N1_7 
REMARK    2  A    between atoms: N1_7  and  C8_9 
REMARK    3  A    between atoms: C9_11  and  C10_12 
REMARK    4  A    between atoms: C11_13  and  C12_14 
REMARK    5  A    between atoms: C13_15  and  C14_16 
REMARK    6  A    between atoms: C14_16  and  N3_17 
REMARK    7  A    between atoms: C17_21  and  C18_22 
ROOT
HETATM    1  C1  UNL     1      21.285   0.980  49.274  1.00  0.00     0.049 C 
HETATM    2  C2  UNL     1      22.163   1.917  50.009  1.00  0.00    -0.055 C 
HETATM    3  C3  UNL     1      22.887   2.541  49.055  1.00  0.00     0.007 C 
HETATM    4  C4  UNL     1      23.916   3.584  49.269  1.00  0.00    -0.001 C 
HETATM    5  C5  UNL     1      23.894   4.446  50.310  1.00  0.00     0.002 C 
HETATM    6  C6  UNL     1      22.926   4.600  51.451  1.00  0.00     0.132 C 
HETATM    7  C16 UNL     1      22.526   3.281  51.983  1.00  0.00     0.010 C 
HETATM    8  C17 UNL     1      22.188   2.097  51.481  1.00  0.00    -0.046 C 
ENDROOT
BRANCH   6   9
HETATM    9  N1  UNL     1      21.832   5.448  51.087  1.00  0.00    -0.353 N 
HETATM   10  C7  UNL     1      21.997   6.902  51.067  1.00  0.00     0.152 C 
BRANCH   9  11
HETATM   11  C8  UNL     1      20.488   4.989  50.728  1.00  0.00     0.169 A 
HETATM   12  N2  UNL     1      19.565   4.297  51.124  1.00  0.00    -0.224 NA
HETATM   13  C9  UNL     1      18.459   4.092  50.462  1.00  0.00     0.066 A 
HETATM   14  C15 UNL     1      18.333   4.685  49.261  1.00  0.00     0.085 A 
HETATM   15  S1  UNL     1      19.895   5.626  49.014  1.00  0.00    -0.062 SA
BRANCH  13  16
HETATM   16  C10 UNL     1      17.409   3.260  51.034  1.00  0.00     0.032 C 
HETATM   17  C11 UNL     1      17.438   1.957  51.237  1.00  0.00     0.002 C 
BRANCH  17  18
HETATM   18  C12 UNL     1      17.970   0.614  51.238  1.00  0.00    -0.002 C 
HETATM   19  C13 UNL     1      18.155  -0.561  51.767  1.00  0.00     0.003 C 
BRANCH  19  20
HETATM   20  C14 UNL     1      17.734  -1.194  53.037  1.00  0.00     0.294 C 
BRANCH  20  21
HETATM   21  N3  UNL     1      16.292  -1.072  53.217  1.00  0.00     0.081 N 
HETATM   22  H17 UNL     1      15.949  -0.287  52.637  1.00  0.00     0.313 HD
HETATM   23  H18 UNL     1      16.023  -0.979  54.207  1.00  0.00     0.313 HD
ENDBRANCH  20  21
ENDBRANCH  19  20
ENDBRANCH  17  18
ENDBRANCH  13  16
ENDBRANCH   9  11
ENDBRANCH   6   9
BRANCH   8  24
HETATM   24  C18 UNL     1      21.793   0.881  52.177  1.00  0.00     0.045 A 
HETATM   25  C19 UNL     1      22.971  -0.027  52.419  1.00  0.00    -0.014 A 
HETATM   26  C20 UNL     1      23.333  -0.754  53.485  1.00  0.00     0.038 A 
HETATM   27  C21 UNL     1      22.448  -0.678  54.660  1.00  0.00     0.112 A 
HETATM   28  F1  UNL     1      22.645  -1.342  55.805  1.00  0.00    -0.206 F 
HETATM   29  C22 UNL     1      21.431   0.125  54.449  1.00  0.00     0.016 A 
HETATM   30  C23 UNL     1      20.914   0.991  53.357  1.00  0.00     0.043 A 
ENDBRANCH   8  24
TORSDOF 7
ENDMDL
