MODEL 1
REMARK VINA RESULT:      -8.1      0.000      0.000
REMARK  6 active torsions:
REMARK  status: ('A' for Active; 'I' for Inactive)
REMARK    1  A    between atoms: C2_2  and  C3_3 
REMARK    2  A    between atoms: C4_4  and  C5_5 
REMARK    3  A    between atoms: C5_5  and  C6_6 
REMARK    4  A    between atoms: C11_14  and  N3_15 
REMARK    5  A    between atoms: C12_17  and  N5_18 
REMARK    6  A    between atoms: N5_18  and  C13_19 
ROOT
HETATM    1  C3  UNL     1      23.533   0.064  53.312  1.00  0.00     0.035 A 
HETATM    2  C4  UNL     1      24.802   0.030  52.781  1.00  0.00     0.071 A 
HETATM    3  N2  UNL     1      25.103   1.068  51.964  1.00  0.00    -0.067 NA
HETATM    4  C11 UNL     1      24.225   2.051  51.696  1.00  0.00     0.722 A 
HETATM    5  N4  UNL     1      22.998   2.027  52.246  1.00  0.00    -0.044 NA
HETATM    6  C12 UNL     1      22.587   1.035  53.081  1.00  0.00     0.159 A 
ENDROOT
BRANCH   6   7
HETATM    7  N5  UNL     1      21.314   0.993  53.660  1.00  0.00    -0.340 N 
HETATM    8  H14 UNL     1      21.354   1.288  54.679  1.00  0.00     0.167 HD
BRANCH   7   9
HETATM    9  C13 UNL     1      20.116   0.611  52.997  1.00  0.00     0.035 A 
HETATM   10  C14 UNL     1      19.667   1.432  52.009  1.00  0.00     0.031 A 
HETATM   11  C15 UNL     1      18.533   1.236  51.248  1.00  0.00     0.019 A 
HETATM   12  P1  UNL     1      17.626  -0.214  51.630  1.00  0.00    -0.015 P 
HETATM   13  C16 UNL     1      18.385  -1.115  52.928  1.00  0.00     0.026 A 
HETATM   14 BR1  UNL     1      17.651  -2.750  53.587  1.00  0.00    -0.050 Br
HETATM   15  C17 UNL     1      19.548  -0.565  53.441  1.00  0.00     0.050 A 
ENDBRANCH   7   9
ENDBRANCH   6   7
BRANCH   1  16
HETATM   16  C2  UNL     1      23.076  -0.987  54.205  1.00  0.00     0.007 C 
HETATM   17  C1  UNL     1      23.345  -1.173  55.476  1.00  0.00     0.012 C 
ENDBRANCH   1  16
BRANCH   2  18
HETATM   18  C5  UNL     1      25.767  -1.031  53.064  1.00  0.00     0.096 C 
BRANCH  18  19
HETATM   19  C6  UNL     1      27.041  -0.557  53.624  1.00  0.00    -0.056 C 
HETATM   20  C7  UNL     1      28.232  -0.919  53.157  1.00  0.00     0.004 C 
HETATM   21  C8  UNL     1      29.660  -0.643  53.471  1.00  0.00     0.204 C 
HETATM   22  O1  UNL     1      29.822   0.637  54.068  1.00  0.00    -0.341 OA
HETATM   23  C9  UNL     1      28.919   1.693  54.068  1.00  0.00     0.245 C 
HETATM   24  N1  UNL     1      27.650   1.581  54.379  1.00  0.00    -0.274 NA
HETATM   25  C10 UNL     1      26.905   0.385  54.783  1.00  0.00     0.184 C 
ENDBRANCH  18  19
ENDBRANCH   2  18
BRANCH   4  26
HETATM   26  N3  UNL     1      24.444   3.172  50.858  1.00  0.00    -0.231 N 
HETATM   27  H12 UNL     1      24.661   4.182  51.095  1.00  0.00     0.174 HD
HETATM   28  H13 UNL     1      24.430   3.214  49.817  1.00  0.00     0.174 HD
ENDBRANCH   4  26
TORSDOF 6
ENDMDL
MODEL 2
REMARK VINA RESULT:      -8.0      1.540      2.667
REMARK  6 active torsions:
REMARK  status: ('A' for Active; 'I' for Inactive)
REMARK    1  A    between atoms: C2_2  and  C3_3 
REMARK    2  A    between atoms: C4_4  and  C5_5 
REMARK    3  A    between atoms: C5_5  and  C6_6 
REMARK    4  A    between atoms: C11_14  and  N3_15 
REMARK    5  A    between atoms: C12_17  and  N5_18 
REMARK    6  A    between atoms: N5_18  and  C13_19 
ROOT
HETATM    1  C3  UNL     1      23.231   0.905  52.629  1.00  0.00     0.035 A 
HETATM    2  C4  UNL     1      24.451   0.288  52.779  1.00  0.00     0.071 A 
HETATM    3  N2  UNL     1      24.522  -0.582  53.815  1.00  0.00    -0.067 NA
HETATM    4  C11 UNL     1      23.478  -0.819  54.630  1.00  0.00     0.722 A 
HETATM    5  N4  UNL     1      22.310  -0.183  54.431  1.00  0.00    -0.044 NA
HETATM    6  C12 UNL     1      22.124   0.711  53.422  1.00  0.00     0.159 A 
ENDROOT
BRANCH   6   7
HETATM    7  N5  UNL     1      20.918   1.384  53.202  1.00  0.00    -0.340 N 
HETATM    8  H14 UNL     1      20.985   2.394  53.523  1.00  0.00     0.167 HD
BRANCH   7   9
HETATM    9  C13 UNL     1      19.748   0.818  52.627  1.00  0.00     0.035 A 
HETATM   10  C14 UNL     1      19.174   1.496  51.596  1.00  0.00     0.031 A 
HETATM   11  C15 UNL     1      18.042   1.112  50.906  1.00  0.00     0.019 A 
HETATM   12  P1  UNL     1      17.318  -0.390  51.446  1.00  0.00    -0.015 P 
HETATM   13  C16 UNL     1      18.220  -1.086  52.779  1.00  0.00     0.026 A 
HETATM   14 BR1  UNL     1      17.698  -2.728  53.603  1.00  0.00    -0.050 Br
HETATM   15  C17 UNL     1      19.331  -0.370  53.192  1.00  0.00     0.050 A 
ENDBRANCH   7   9
ENDBRANCH   6   7
BRANCH   1  16
HETATM   16  C2  UNL     1      23.013   1.864  51.558  1.00  0.00     0.007 C 
HETATM   17  C1  UNL     1      22.688   1.650  50.305  1.00  0.00     0.012 C 
ENDBRANCH   1  16
BRANCH   2  18
HETATM   18  C5  UNL     1      25.594   0.534  51.902  1.00  0.00     0.096 C 
BRANCH  18  19
HETATM   19  C6  UNL     1      26.870   0.716  52.608  1.00  0.00    -0.056 C 
HETATM   20  C7  UNL     1      27.306   1.891  53.054  1.00  0.00     0.004 C 
HETATM   21  C8  UNL     1      28.496   2.413  53.777  1.00  0.00     0.204 C 
HETATM   22  O1  UNL     1      29.080   1.416  54.605  1.00  0.00    -0.341 OA
HETATM   23  C9  UNL     1      28.503   0.226  55.033  1.00  0.00     0.245 C 
HETATM   24  N1  UNL     1      27.889  -0.624  54.245  1.00  0.00    -0.274 NA
HETATM   25  C10 UNL     1      27.667  -0.541  52.799  1.00  0.00     0.184 C 
ENDBRANCH  18  19
ENDBRANCH   2  18
BRANCH   4  26
HETATM   26  N3  UNL     1      23.454  -1.705  55.735  1.00  0.00    -0.231 N 
HETATM   27  H12 UNL     1      22.831  -1.725  56.593  1.00  0.00     0.174 HD
HETATM   28  H13 UNL     1      24.065  -2.529  55.917  1.00  0.00     0.174 HD
ENDBRANCH   4  26
TORSDOF 6
ENDMDL
MODEL 3
REMARK VINA RESULT:      -7.8      1.745      2.024
REMARK  6 active torsions:
REMARK  status: ('A' for Active; 'I' for Inactive)
REMARK    1  A    between atoms: C2_2  and  C3_3 
REMARK    2  A    between atoms: C4_4  and  C5_5 
REMARK    3  A    between atoms: C5_5  and  C6_6 
REMARK    4  A    between atoms: C11_14  and  N3_15 
REMARK    5  A    between atoms: C12_17  and  N5_18 
REMARK    6  A    between atoms: N5_18  and  C13_19 
ROOT
HETATM    1  C3  UNL     1      23.431   0.298  53.139  1.00  0.00     0.035 A 
HETATM    2  C4  UNL     1      24.758   0.281  52.779  1.00  0.00     0.071 A 
HETATM    3  N2  UNL     1      25.214   1.437  52.239  1.00  0.00    -0.067 NA
HETATM    4  C11 UNL     1      24.425   2.514  52.070  1.00  0.00     0.722 A 
HETATM    5  N4  UNL     1      23.133   2.467  52.443  1.00  0.00    -0.044 NA
HETATM    6  C12 UNL     1      22.568   1.360  52.996  1.00  0.00     0.159 A 
ENDROOT
BRANCH   6   7
HETATM    7  N5  UNL     1      21.227   1.293  53.387  1.00  0.00    -0.340 N 
HETATM    8  H14 UNL     1      21.144   1.266  54.445  1.00  0.00     0.167 HD
BRANCH   7   9
HETATM    9  C13 UNL     1      20.110   1.264  52.509  1.00  0.00     0.035 A 
HETATM   10  C14 UNL     1      19.510   0.058  52.309  1.00  0.00     0.031 A 
HETATM   11  C15 UNL     1      18.417  -0.177  51.502  1.00  0.00     0.019 A 
HETATM   12  P1  UNL     1      17.782   1.236  50.684  1.00  0.00    -0.015 P 
HETATM   13  C16 UNL     1      18.705   2.671  51.087  1.00  0.00     0.026 A 
HETATM   14 BR1  UNL     1      18.273   4.385  50.363  1.00  0.00    -0.050 Br
HETATM   15  C17 UNL     1      19.761   2.480  51.961  1.00  0.00     0.050 A 
ENDBRANCH   7   9
ENDBRANCH   6   7
BRANCH   1  16
HETATM   16  C2  UNL     1      22.810  -0.875  53.731  1.00  0.00     0.007 C 
HETATM   17  C1  UNL     1      22.680  -1.198  54.996  1.00  0.00     0.012 C 
ENDBRANCH   1  16
BRANCH   2  18
HETATM   18  C5  UNL     1      25.629  -0.880  52.956  1.00  0.00     0.096 C 
BRANCH  18  19
HETATM   19  C6  UNL     1      26.929  -0.573  53.568  1.00  0.00    -0.056 C 
HETATM   20  C7  UNL     1      28.092  -0.999  53.082  1.00  0.00     0.004 C 
HETATM   21  C8  UNL     1      29.533  -0.881  53.432  1.00  0.00     0.204 C 
HETATM   22  O1  UNL     1      29.798   0.322  54.143  1.00  0.00    -0.341 OA
HETATM   23  C9  UNL     1      28.991   1.450  54.228  1.00  0.00     0.245 C 
HETATM   24  N1  UNL     1      27.713   1.426  54.517  1.00  0.00    -0.274 NA
HETATM   25  C10 UNL     1      26.857   0.271  54.806  1.00  0.00     0.184 C 
ENDBRANCH  18  19
ENDBRANCH   2  18
BRANCH   4  26
HETATM   26  N3  UNL     1      24.806   3.760  51.516  1.00  0.00    -0.231 N 
HETATM   27  H12 UNL     1      24.480   4.257  50.638  1.00  0.00     0.174 HD
HETATM   28  H13 UNL     1      25.501   4.445  51.881  1.00  0.00     0.174 HD
ENDBRANCH   4  26
TORSDOF 6
ENDMDL
MODEL 4
REMARK VINA RESULT:      -7.8      3.231      3.792
REMARK  6 active torsions:
REMARK  status: ('A' for Active; 'I' for Inactive)
REMARK    1  A    between atoms: C2_2  and  C3_3 
REMARK    2  A    between atoms: C4_4  and  C5_5 
REMARK    3  A    between atoms: C5_5  and  C6_6 
REMARK    4  A    between atoms: C11_14  and  N3_15 
REMARK    5  A    between atoms: C12_17  and  N5_18 
REMARK    6  A    between atoms: N5_18  and  C13_19 
ROOT
HETATM    1  C3  UNL     1      23.909   1.486  52.445  1.00  0.00     0.035 A 
HETATM    2  C4  UNL     1      25.136   0.895  52.258  1.00  0.00     0.071 A 
HETATM    3  N2  UNL     1      26.044   1.667  51.613  1.00  0.00    -0.067 NA
HETATM    4  C11 UNL     1      25.761   2.912  51.191  1.00  0.00     0.722 A 
HETATM    5  N4  UNL     1      24.540   3.435  51.404  1.00  0.00    -0.044 NA
HETATM    6  C12 UNL     1      23.551   2.752  52.041  1.00  0.00     0.159 A 
ENDROOT
BRANCH   6   7
HETATM    7  N5  UNL     1      22.275   3.277  52.269  1.00  0.00    -0.340 N 
HETATM    8  H14 UNL     1      22.015   3.204  53.296  1.00  0.00     0.167 HD
BRANCH   7   9
HETATM    9  C13 UNL     1      21.422   3.839  51.280  1.00  0.00     0.035 A 
HETATM   10  C14 UNL     1      20.615   2.980  50.599  1.00  0.00     0.031 A 
HETATM   11  C15 UNL     1      19.718   3.326  49.610  1.00  0.00     0.019 A 
HETATM   12  P1  UNL     1      19.652   5.037  49.235  1.00  0.00    -0.015 P 
HETATM   13  C16 UNL     1      20.772   5.948  50.229  1.00  0.00     0.026 A 
HETATM   14 BR1  UNL     1      20.948   7.844  50.073  1.00  0.00    -0.050 Br
HETATM   15  C17 UNL     1      21.516   5.207  51.131  1.00  0.00     0.050 A 
ENDBRANCH   7   9
ENDBRANCH   6   7
BRANCH   1  16
HETATM   16  C2  UNL     1      22.839   0.772  53.123  1.00  0.00     0.007 C 
HETATM   17  C1  UNL     1      21.982  -0.095  52.639  1.00  0.00     0.012 C 
ENDBRANCH   1  16
BRANCH   2  18
HETATM   18  C5  UNL     1      25.460  -0.456  52.711  1.00  0.00     0.096 C 
BRANCH  18  19
HETATM   19  C6  UNL     1      26.733  -0.562  53.438  1.00  0.00    -0.056 C 
HETATM   20  C7  UNL     1      27.806  -1.187  52.961  1.00  0.00     0.004 C 
HETATM   21  C8  UNL     1      29.195  -1.472  53.409  1.00  0.00     0.204 C 
HETATM   22  O1  UNL     1      29.664  -0.479  54.311  1.00  0.00    -0.341 OA
HETATM   23  C9  UNL     1      29.137   0.789  54.524  1.00  0.00     0.245 C 
HETATM   24  N1  UNL     1      27.866   1.038  54.730  1.00  0.00    -0.274 NA
HETATM   25  C10 UNL     1      26.743   0.097  54.786  1.00  0.00     0.184 C 
ENDBRANCH  18  19
ENDBRANCH   2  18
BRANCH   4  26
HETATM   26  N3  UNL     1      26.637   3.792  50.509  1.00  0.00    -0.231 N 
HETATM   27  H12 UNL     1      26.667   4.090  49.492  1.00  0.00     0.174 HD
HETATM   28  H13 UNL     1      27.444   4.329  50.894  1.00  0.00     0.174 HD
ENDBRANCH   4  26
TORSDOF 6
ENDMDL
MODEL 5
REMARK VINA RESULT:      -7.7      1.989      3.138
REMARK  6 active torsions:
REMARK  status: ('A' for Active; 'I' for Inactive)
REMARK    1  A    between atoms: C2_2  and  C3_3 
REMARK    2  A    between atoms: C4_4  and  C5_5 
REMARK    3  A    between atoms: C5_5  and  C6_6 
REMARK    4  A    between atoms: C11_14  and  N3_15 
REMARK    5  A    between atoms: C12_17  and  N5_18 
REMARK    6  A    between atoms: N5_18  and  C13_19 
ROOT
HETATM    1  C3  UNL     1      23.265   0.873  52.651  1.00  0.00     0.035 A 
HETATM    2  C4  UNL     1      24.487   0.261  52.805  1.00  0.00     0.071 A 
HETATM    3  N2  UNL     1      24.560  -0.607  53.843  1.00  0.00    -0.067 NA
HETATM    4  C11 UNL     1      23.516  -0.846  54.656  1.00  0.00     0.722 A 
HETATM    5  N4  UNL     1      22.345  -0.214  54.454  1.00  0.00    -0.044 NA
HETATM    6  C12 UNL     1      22.157   0.677  53.444  1.00  0.00     0.159 A 
ENDROOT
BRANCH   6   7
HETATM    7  N5  UNL     1      20.949   1.345  53.219  1.00  0.00    -0.340 N 
HETATM    8  H14 UNL     1      21.018   2.360  53.522  1.00  0.00     0.167 HD
BRANCH   7   9
HETATM    9  C13 UNL     1      19.776   0.767  52.664  1.00  0.00     0.035 A 
HETATM   10  C14 UNL     1      19.309  -0.371  53.247  1.00  0.00     0.031 A 
HETATM   11  C15 UNL     1      18.189  -1.077  52.860  1.00  0.00     0.019 A 
HETATM   12  P1  UNL     1      17.326  -0.407  51.490  1.00  0.00    -0.015 P 
HETATM   13  C16 UNL     1      18.102   1.052  50.904  1.00  0.00     0.026 A 
HETATM   14 BR1  UNL     1      17.412   2.035  49.418  1.00  0.00    -0.050 Br
HETATM   15  C17 UNL     1      19.241   1.443  51.586  1.00  0.00     0.050 A 
ENDBRANCH   7   9
ENDBRANCH   6   7
BRANCH   1  16
HETATM   16  C2  UNL     1      23.046   1.828  51.578  1.00  0.00     0.007 C 
HETATM   17  C1  UNL     1      22.691   1.613  50.333  1.00  0.00     0.012 C 
ENDBRANCH   1  16
BRANCH   2  18
HETATM   18  C5  UNL     1      25.631   0.509  51.929  1.00  0.00     0.096 C 
BRANCH  18  19
HETATM   19  C6  UNL     1      26.903   0.710  52.638  1.00  0.00    -0.056 C 
HETATM   20  C7  UNL     1      27.326   1.893  53.073  1.00  0.00     0.004 C 
HETATM   21  C8  UNL     1      28.509   2.434  53.795  1.00  0.00     0.204 C 
HETATM   22  O1  UNL     1      29.099   1.450  54.635  1.00  0.00    -0.341 OA
HETATM   23  C9  UNL     1      28.532   0.258  55.072  1.00  0.00     0.245 C 
HETATM   24  N1  UNL     1      27.929  -0.604  54.291  1.00  0.00    -0.274 NA
HETATM   25  C10 UNL     1      27.711  -0.537  52.842  1.00  0.00     0.184 C 
ENDBRANCH  18  19
ENDBRANCH   2  18
BRANCH   4  26
HETATM   26  N3  UNL     1      23.493  -1.729  55.763  1.00  0.00    -0.231 N 
HETATM   27  H12 UNL     1      22.691  -2.258  56.211  1.00  0.00     0.174 HD
HETATM   28  H13 UNL     1      24.287  -2.033  56.365  1.00  0.00     0.174 HD
ENDBRANCH   4  26
TORSDOF 6
ENDMDL
MODEL 6
REMARK VINA RESULT:      -7.7      2.247      2.675
REMARK  6 active torsions:
REMARK  status: ('A' for Active; 'I' for Inactive)
REMARK    1  A    between atoms: C2_2  and  C3_3 
REMARK    2  A    between atoms: C4_4  and  C5_5 
REMARK    3  A    between atoms: C5_5  and  C6_6 
REMARK    4  A    between atoms: C11_14  and  N3_15 
REMARK    5  A    between atoms: C12_17  and  N5_18 
REMARK    6  A    between atoms: N5_18  and  C13_19 
ROOT
HETATM    1  C3  UNL     1      23.352   0.437  53.334  1.00  0.00     0.035 A 
HETATM    2  C4  UNL     1      24.683   0.642  53.613  1.00  0.00     0.071 A 
HETATM    3  N2  UNL     1      25.185   1.812  53.148  1.00  0.00    -0.067 NA
HETATM    4  C11 UNL     1      24.437   2.698  52.468  1.00  0.00     0.722 A 
HETATM    5  N4  UNL     1      23.139   2.438  52.226  1.00  0.00    -0.044 NA
HETATM    6  C12 UNL     1      22.528   1.297  52.644  1.00  0.00     0.159 A 
ENDROOT
BRANCH   6   7
HETATM    7  N5  UNL     1      21.182   1.008  52.400  1.00  0.00    -0.340 N 
HETATM    8  H14 UNL     1      20.811   0.312  53.111  1.00  0.00     0.167 HD
BRANCH   7   9
HETATM    9  C13 UNL     1      20.395   1.559  51.353  1.00  0.00     0.035 A 
HETATM   10  C14 UNL     1      20.793   1.299  50.077  1.00  0.00     0.031 A 
HETATM   11  C15 UNL     1      20.165   1.736  48.929  1.00  0.00     0.019 A 
HETATM   12  P1  UNL     1      18.732   2.710  49.193  1.00  0.00    -0.015 P 
HETATM   13  C16 UNL     1      18.410   2.915  50.904  1.00  0.00     0.026 A 
HETATM   14 BR1  UNL     1      16.917   3.924  51.537  1.00  0.00    -0.050 Br
HETATM   15  C17 UNL     1      19.305   2.298  51.762  1.00  0.00     0.050 A 
ENDBRANCH   7   9
ENDBRANCH   6   7
BRANCH   1  16
HETATM   16  C2  UNL     1      22.683  -0.777  53.772  1.00  0.00     0.007 C 
HETATM   17  C1  UNL     1      22.179  -1.069  54.948  1.00  0.00     0.012 C 
ENDBRANCH   1  16
BRANCH   2  18
HETATM   18  C5  UNL     1      25.510  -0.310  54.352  1.00  0.00     0.096 C 
BRANCH  18  19
HETATM   19  C6  UNL     1      26.824  -0.567  53.746  1.00  0.00    -0.056 C 
HETATM   20  C7  UNL     1      27.958  -0.027  54.186  1.00  0.00     0.004 C 
HETATM   21  C8  UNL     1      29.400  -0.068  53.825  1.00  0.00     0.204 C 
HETATM   22  O1  UNL     1      29.745  -1.297  53.199  1.00  0.00    -0.341 OA
HETATM   23  C9  UNL     1      29.020  -2.483  53.205  1.00  0.00     0.245 C 
HETATM   24  N1  UNL     1      27.741  -2.570  52.932  1.00  0.00    -0.274 NA
HETATM   25  C10 UNL     1      26.803  -1.502  52.573  1.00  0.00     0.184 C 
ENDBRANCH  18  19
ENDBRANCH   2  18
BRANCH   4  26
HETATM   26  N3  UNL     1      24.868   3.940  51.942  1.00  0.00    -0.231 N 
HETATM   27  H12 UNL     1      25.680   4.177  51.302  1.00  0.00     0.174 HD
HETATM   28  H13 UNL     1      24.455   4.885  52.092  1.00  0.00     0.174 HD
ENDBRANCH   4  26
TORSDOF 6
ENDMDL
MODEL 7
REMARK VINA RESULT:      -7.6      2.177      3.155
REMARK  6 active torsions:
REMARK  status: ('A' for Active; 'I' for Inactive)
REMARK    1  A    between atoms: C2_2  and  C3_3 
REMARK    2  A    between atoms: C4_4  and  C5_5 
REMARK    3  A    between atoms: C5_5  and  C6_6 
REMARK    4  A    between atoms: C11_14  and  N3_15 
REMARK    5  A    between atoms: C12_17  and  N5_18 
REMARK    6  A    between atoms: N5_18  and  C13_19 
ROOT
HETATM    1  C3  UNL     1      23.613   0.994  52.134  1.00  0.00     0.035 A 
HETATM    2  C4  UNL     1      24.405   0.524  53.155  1.00  0.00     0.071 A 
HETATM    3  N2  UNL     1      23.808  -0.388  53.961  1.00  0.00    -0.067 NA
HETATM    4  C11 UNL     1      22.541  -0.797  53.772  1.00  0.00     0.722 A 
HETATM    5  N4  UNL     1      21.817  -0.298  52.753  1.00  0.00    -0.044 NA
HETATM    6  C12 UNL     1      22.313   0.622  51.882  1.00  0.00     0.159 A 
ENDROOT
BRANCH   6   7
HETATM    7  N5  UNL     1      21.575   1.153  50.819  1.00  0.00    -0.340 N 
HETATM    8  H14 UNL     1      22.139   1.130  49.920  1.00  0.00     0.167 HD
BRANCH   7   9
HETATM    9  C13 UNL     1      20.250   1.660  50.904  1.00  0.00     0.035 A 
HETATM   10  C14 UNL     1      20.097   2.910  51.419  1.00  0.00     0.031 A 
HETATM   11  C15 UNL     1      18.901   3.578  51.580  1.00  0.00     0.019 A 
HETATM   12  P1  UNL     1      17.481   2.692  51.060  1.00  0.00    -0.015 P 
HETATM   13  C16 UNL     1      17.914   1.112  50.434  1.00  0.00     0.026 A 
HETATM   14 BR1  UNL     1      16.598  -0.109  49.780  1.00  0.00    -0.050 Br
HETATM   15  C17 UNL     1      19.265   0.811  50.443  1.00  0.00     0.050 A 
ENDBRANCH   7   9
ENDBRANCH   6   7
BRANCH   1  16
HETATM   16  C2  UNL     1      24.125   1.977  51.193  1.00  0.00     0.007 C 
HETATM   17  C1  UNL     1      24.199   3.282  51.312  1.00  0.00     0.012 C 
ENDBRANCH   1  16
BRANCH   2  18
HETATM   18  C5  UNL     1      25.784   0.957  53.374  1.00  0.00     0.096 C 
BRANCH  18  19
HETATM   19  C6  UNL     1      26.735  -0.141  53.595  1.00  0.00    -0.056 C 
HETATM   20  C7  UNL     1      26.853  -1.189  52.784  1.00  0.00     0.004 C 
HETATM   21  C8  UNL     1      27.675  -2.427  52.710  1.00  0.00     0.204 C 
HETATM   22  O1  UNL     1      28.934  -2.253  53.346  1.00  0.00    -0.341 OA
HETATM   23  C9  UNL     1      29.552  -1.056  53.689  1.00  0.00     0.245 C 
HETATM   24  N1  UNL     1      28.964  -0.077  54.332  1.00  0.00    -0.274 NA
HETATM   25  C10 UNL     1      27.585   0.001  54.823  1.00  0.00     0.184 C 
ENDBRANCH  18  19
ENDBRANCH   2  18
BRANCH   4  26
HETATM   26  N3  UNL     1      21.832  -1.739  54.556  1.00  0.00    -0.231 N 
HETATM   27  H12 UNL     1      21.201  -1.604  55.398  1.00  0.00     0.174 HD
HETATM   28  H13 UNL     1      21.797  -2.775  54.450  1.00  0.00     0.174 HD
ENDBRANCH   4  26
TORSDOF 6
ENDMDL
MODEL 8
REMARK VINA RESULT:      -7.2      4.260      5.644
REMARK  6 active torsions:
REMARK  status: ('A' for Active; 'I' for Inactive)
REMARK    1  A    between atoms: C2_2  and  C3_3 
REMARK    2  A    between atoms: C4_4  and  C5_5 
REMARK    3  A    between atoms: C5_5  and  C6_6 
REMARK    4  A    between atoms: C11_14  and  N3_15 
REMARK    5  A    between atoms: C12_17  and  N5_18 
REMARK    6  A    between atoms: N5_18  and  C13_19 
ROOT
HETATM    1  C3  UNL     1      24.888   2.527  51.447  1.00  0.00     0.035 A 
HETATM    2  C4  UNL     1      25.265   1.799  52.551  1.00  0.00     0.071 A 
HETATM    3  N2  UNL     1      24.252   1.155  53.179  1.00  0.00    -0.067 NA
HETATM    4  C11 UNL     1      22.979   1.227  52.752  1.00  0.00     0.722 A 
HETATM    5  N4  UNL     1      22.673   1.957  51.664  1.00  0.00    -0.044 NA
HETATM    6  C12 UNL     1      23.609   2.645  50.955  1.00  0.00     0.159 A 
ENDROOT
BRANCH   6   7
HETATM    7  N5  UNL     1      23.310   3.411  49.824  1.00  0.00    -0.340 N 
HETATM    8  H14 UNL     1      23.309   2.808  48.950  1.00  0.00     0.167 HD
BRANCH   7   9
HETATM    9  C13 UNL     1      23.039   4.806  49.818  1.00  0.00     0.035 A 
HETATM   10  C14 UNL     1      22.223   5.283  50.797  1.00  0.00     0.031 A 
HETATM   11  C15 UNL     1      21.844   6.599  50.965  1.00  0.00     0.019 A 
HETATM   12  P1  UNL     1      22.502   7.716  49.784  1.00  0.00    -0.015 P 
HETATM   13  C16 UNL     1      23.521   6.885  48.624  1.00  0.00     0.026 A 
HETATM   14 BR1  UNL     1      24.396   7.814  47.203  1.00  0.00    -0.050 Br
HETATM   15  C17 UNL     1      23.650   5.519  48.807  1.00  0.00     0.050 A 
ENDBRANCH   7   9
ENDBRANCH   6   7
BRANCH   1  16
HETATM   16  C2  UNL     1      25.874   3.268  50.677  1.00  0.00     0.007 C 
HETATM   17  C1  UNL     1      26.534   2.905  49.603  1.00  0.00     0.012 C 
ENDBRANCH   1  16
BRANCH   2  18
HETATM   18  C5  UNL     1      26.645   1.710  53.028  1.00  0.00     0.096 C 
BRANCH  18  19
HETATM   19  C6  UNL     1      27.106   0.340  53.293  1.00  0.00    -0.056 C 
HETATM   20  C7  UNL     1      26.827  -0.697  52.508  1.00  0.00     0.004 C 
HETATM   21  C8  UNL     1      27.119  -2.155  52.479  1.00  0.00     0.204 C 
HETATM   22  O1  UNL     1      28.343  -2.454  53.138  1.00  0.00    -0.341 OA
HETATM   23  C9  UNL     1      29.364  -1.571  53.469  1.00  0.00     0.245 C 
HETATM   24  N1  UNL     1      29.183  -0.424  54.077  1.00  0.00    -0.274 NA
HETATM   25  C10 UNL     1      27.931   0.185  54.536  1.00  0.00     0.184 C 
ENDBRANCH  18  19
ENDBRANCH   2  18
BRANCH   4  26
HETATM   26  N3  UNL     1      21.855   0.595  53.338  1.00  0.00    -0.231 N 
HETATM   27  H12 UNL     1      21.793  -0.215  54.019  1.00  0.00     0.174 HD
HETATM   28  H13 UNL     1      20.845   0.816  53.204  1.00  0.00     0.174 HD
ENDBRANCH   4  26
TORSDOF 6
ENDMDL
MODEL 9
REMARK VINA RESULT:      -7.2      2.459      3.372
REMARK  6 active torsions:
REMARK  status: ('A' for Active; 'I' for Inactive)
REMARK    1  A    between atoms: C2_2  and  C3_3 
REMARK    2  A    between atoms: C4_4  and  C5_5 
REMARK    3  A    between atoms: C5_5  and  C6_6 
REMARK    4  A    between atoms: C11_14  and  N3_15 
REMARK    5  A    between atoms: C12_17  and  N5_18 
REMARK    6  A    between atoms: N5_18  and  C13_19 
ROOT
HETATM    1  C3  UNL     1      23.490   1.837  52.084  1.00  0.00     0.035 A 
HETATM    2  C4  UNL     1      24.394   0.841  52.372  1.00  0.00     0.071 A 
HETATM    3  N2  UNL     1      23.909  -0.158  53.147  1.00  0.00    -0.067 NA
HETATM    4  C11 UNL     1      22.642  -0.170  53.598  1.00  0.00     0.722 A 
HETATM    5  N4  UNL     1      21.805   0.834  53.282  1.00  0.00    -0.044 NA
HETATM    6  C12 UNL     1      22.183   1.889  52.510  1.00  0.00     0.159 A 
ENDROOT
BRANCH   6   7
HETATM    7  N5  UNL     1      21.328   2.943  52.173  1.00  0.00    -0.340 N 
HETATM    8  H14 UNL     1      21.624   3.839  52.660  1.00  0.00     0.167 HD
BRANCH   7   9
HETATM    9  C13 UNL     1      20.209   2.854  51.301  1.00  0.00     0.035 A 
HETATM   10  C14 UNL     1      20.409   2.252  50.097  1.00  0.00     0.031 A 
HETATM   11  C15 UNL     1      19.455   2.064  49.118  1.00  0.00     0.019 A 
HETATM   12  P1  UNL     1      17.860   2.676  49.511  1.00  0.00    -0.015 P 
HETATM   13  C16 UNL     1      17.836   3.409  51.104  1.00  0.00     0.026 A 
HETATM   14 BR1  UNL     1      16.247   4.173  51.839  1.00  0.00    -0.050 Br
HETATM   15  C17 UNL     1      19.038   3.395  51.790  1.00  0.00     0.050 A 
ENDBRANCH   7   9
ENDBRANCH   6   7
BRANCH   1  16
HETATM   16  C2  UNL     1      23.875   2.971  51.261  1.00  0.00     0.007 C 
HETATM   17  C1  UNL     1      24.085   3.026  49.967  1.00  0.00     0.012 C 
ENDBRANCH   1  16
BRANCH   2  18
HETATM   18  C5  UNL     1      25.774   0.839  51.889  1.00  0.00     0.096 C 
BRANCH  18  19
HETATM   19  C6  UNL     1      26.787   0.773  52.952  1.00  0.00    -0.056 C 
HETATM   20  C7  UNL     1      27.679  -0.208  53.061  1.00  0.00     0.004 C 
HETATM   21  C8  UNL     1      28.797  -0.573  53.972  1.00  0.00     0.204 C 
HETATM   22  O1  UNL     1      29.374   0.578  54.574  1.00  0.00    -0.341 OA
HETATM   23  C9  UNL     1      29.241   1.902  54.170  1.00  0.00     0.245 C 
HETATM   24  N1  UNL     1      28.099   2.479  53.890  1.00  0.00    -0.274 NA
HETATM   25  C10 UNL     1      26.748   1.911  53.928  1.00  0.00     0.184 C 
ENDBRANCH  18  19
ENDBRANCH   2  18
BRANCH   4  26
HETATM   26  N3  UNL     1      22.045  -1.164  54.412  1.00  0.00    -0.231 N 
HETATM   27  H12 UNL     1      21.188  -1.126  55.035  1.00  0.00     0.174 HD
HETATM   28  H13 UNL     1      22.347  -2.150  54.556  1.00  0.00     0.174 HD
ENDBRANCH   4  26
TORSDOF 6
ENDMDL
