MODEL 1
REMARK VINA RESULT:      -9.9      0.000      0.000
REMARK  1 active torsions:
REMARK  status: ('A' for Active; 'I' for Inactive)
REMARK    1  A    between atoms: C12_16  and  N4_17 
ROOT
HETATM    1  N1  UNL     1      18.363   3.179  51.827  1.00  0.00    -0.192 NA
HETATM    2  C1  UNL     1      19.338   3.452  51.269  1.00  0.00     0.097 C 
HETATM    3  C2  UNL     1      20.547   3.772  50.567  1.00  0.00     0.046 C 
HETATM    4  C3  UNL     1      21.403   4.697  51.080  1.00  0.00     0.007 C 
HETATM    5  C4  UNL     1      22.366   5.620  50.425  1.00  0.00     0.083 C 
HETATM    6  C5  UNL     1      22.084   5.354  48.892  1.00  0.00     0.054 C 
HETATM    7  C6  UNL     1      22.293   3.847  48.936  1.00  0.00    -0.035 C 
HETATM    8  C7  UNL     1      23.425   3.199  48.811  1.00  0.00     0.107 C 
HETATM    9  N2  UNL     1      24.230   3.897  49.810  1.00  0.00    -0.277 N 
HETATM   10  C8  UNL     1      23.744   5.000  50.624  1.00  0.00     0.113 C 
HETATM   11  N3  UNL     1      24.681   5.315  51.451  1.00  0.00    -0.286 NA
HETATM   12  C9  UNL     1      25.593   3.432  50.061  1.00  0.00     0.252 C 
HETATM   13  O1  UNL     1      25.985   4.337  49.293  1.00  0.00    -0.268 OA
HETATM   14  C10 UNL     1      26.487   2.472  50.758  1.00  0.00     0.073 C 
HETATM   15  C11 UNL     1      26.369   1.469  51.597  1.00  0.00     0.007 C 
HETATM   16  C12 UNL     1      25.551   0.570  52.426  1.00  0.00     0.140 C 
HETATM   17  C17 UNL     1      24.277   1.196  52.952  1.00  0.00     0.219 C 
HETATM   18  F1  UNL     1      24.448   2.377  53.605  1.00  0.00    -0.243 F 
HETATM   19  C18 UNL     1      23.133   1.132  52.047  1.00  0.00     0.010 C 
HETATM   20  C19 UNL     1      22.091   1.036  51.280  1.00  0.00    -0.009 C 
HETATM   21  C20 UNL     1      20.950   0.982  50.361  1.00  0.00     0.142 C 
HETATM   22  N5  UNL     1      21.032   1.771  49.203  1.00  0.00    -0.406 N 
HETATM   23  C21 UNL     1      20.979   3.165  49.259  1.00  0.00     0.151 C 
HETATM   24  H6  UNL     1      24.499   6.107  52.093  1.00  0.00     0.188 HD
HETATM   25  H23 UNL     1      20.708   1.286  48.366  1.00  0.00     0.154 HD
ENDROOT
BRANCH  16  26
HETATM   26  N4  UNL     1      26.323  -0.003  53.477  1.00  0.00    -0.398 N 
HETATM   27  C13 UNL     1      27.019   0.852  54.333  1.00  0.00     0.144 C 
HETATM   28  C14 UNL     1      28.511   0.673  54.372  1.00  0.00     0.187 C 
HETATM   29  O2  UNL     1      28.870  -0.679  54.392  1.00  0.00    -0.388 OA
HETATM   30  C15 UNL     1      28.469  -1.202  53.165  1.00  0.00     0.187 C 
HETATM   31  C16 UNL     1      26.981  -1.229  53.125  1.00  0.00     0.144 C 
ENDBRANCH  16  26
TORSDOF 1
ENDMDL
MODEL 2
REMARK VINA RESULT:      -8.7      2.132      3.959
REMARK  1 active torsions:
REMARK  status: ('A' for Active; 'I' for Inactive)
REMARK    1  A    between atoms: C12_16  and  N4_17 
ROOT
HETATM    1  N1  UNL     1      23.971   6.490  48.988  1.00  0.00    -0.192 NA
HETATM    2  C1  UNL     1      23.187   5.745  49.398  1.00  0.00     0.097 C 
HETATM    3  C2  UNL     1      22.215   4.832  49.925  1.00  0.00     0.046 C 
HETATM    4  C3  UNL     1      22.024   3.626  49.323  1.00  0.00     0.007 C 
HETATM    5  C4  UNL     1      20.830   2.745  49.237  1.00  0.00     0.083 C 
HETATM    6  C5  UNL     1      19.725   3.622  49.952  1.00  0.00     0.054 C 
HETATM    7  C6  UNL     1      20.489   3.842  51.250  1.00  0.00    -0.035 C 
HETATM    8  C7  UNL     1      20.509   3.061  52.301  1.00  0.00     0.107 C 
HETATM    9  N2  UNL     1      20.852   1.790  51.668  1.00  0.00    -0.277 N 
HETATM   10  C8  UNL     1      21.064   1.621  50.240  1.00  0.00     0.113 C 
HETATM   11  N3  UNL     1      21.433   0.401  50.043  1.00  0.00    -0.286 NA
HETATM   12  C9  UNL     1      21.054   0.616  52.517  1.00  0.00     0.252 C 
HETATM   13  O1  UNL     1      19.877   0.290  52.252  1.00  0.00    -0.268 OA
HETATM   14  C10 UNL     1      21.968  -0.160  53.393  1.00  0.00     0.073 C 
HETATM   15  C11 UNL     1      23.205  -0.075  53.824  1.00  0.00     0.007 C 
HETATM   16  C12 UNL     1      24.507   0.607  53.881  1.00  0.00     0.140 C 
HETATM   17  C17 UNL     1      24.862   1.377  52.627  1.00  0.00     0.219 C 
HETATM   18  F1  UNL     1      24.782   0.660  51.474  1.00  0.00    -0.243 F 
HETATM   19  C18 UNL     1      24.338   2.738  52.564  1.00  0.00     0.010 C 
HETATM   20  C19 UNL     1      23.928   3.968  52.514  1.00  0.00    -0.009 C 
HETATM   21  C20 UNL     1      23.386   5.329  52.449  1.00  0.00     0.142 C 
HETATM   22  N5  UNL     1      21.995   5.451  52.305  1.00  0.00    -0.406 N 
HETATM   23  C21 UNL     1      21.344   5.087  51.126  1.00  0.00     0.151 C 
HETATM   24  H6  UNL     1      21.604   0.111  49.064  1.00  0.00     0.188 HD
HETATM   25  H23 UNL     1      21.594   6.176  52.901  1.00  0.00     0.154 HD
ENDROOT
BRANCH  16  26
HETATM   26  N4  UNL     1      25.545  -0.297  54.249  1.00  0.00    -0.398 N 
HETATM   27  C13 UNL     1      26.638   0.202  54.961  1.00  0.00     0.144 C 
HETATM   28  C14 UNL     1      27.980   0.042  54.303  1.00  0.00     0.187 C 
HETATM   29  O2  UNL     1      28.123  -1.220  53.716  1.00  0.00    -0.388 OA
HETATM   30  C15 UNL     1      27.196  -1.270  52.677  1.00  0.00     0.187 C 
HETATM   31  C16 UNL     1      25.828  -1.302  53.265  1.00  0.00     0.144 C 
ENDBRANCH  16  26
TORSDOF 1
ENDMDL
MODEL 3
REMARK VINA RESULT:      -8.5      2.524      4.294
REMARK  1 active torsions:
REMARK  status: ('A' for Active; 'I' for Inactive)
REMARK    1  A    between atoms: C12_16  and  N4_17 
ROOT
HETATM    1  N1  UNL     1      25.674   7.401  50.357  1.00  0.00    -0.192 NA
HETATM    2  C1  UNL     1      24.744   6.786  50.051  1.00  0.00     0.097 C 
HETATM    3  C2  UNL     1      23.582   6.028  49.688  1.00  0.00     0.046 C 
HETATM    4  C3  UNL     1      23.679   5.048  48.748  1.00  0.00     0.007 C 
HETATM    5  C4  UNL     1      22.685   4.499  47.790  1.00  0.00     0.083 C 
HETATM    6  C5  UNL     1      21.436   5.436  48.041  1.00  0.00     0.054 C 
HETATM    7  C6  UNL     1      21.343   5.204  49.542  1.00  0.00    -0.035 C 
HETATM    8  C7  UNL     1      20.706   4.239  50.158  1.00  0.00     0.107 C 
HETATM    9  N2  UNL     1      21.254   3.082  49.454  1.00  0.00    -0.277 N 
HETATM   10  C8  UNL     1      22.226   3.168  48.376  1.00  0.00     0.113 C 
HETATM   11  N3  UNL     1      22.552   1.965  48.049  1.00  0.00    -0.286 NA
HETATM   12  C9  UNL     1      20.853   1.744  49.887  1.00  0.00     0.252 C 
HETATM   13  O1  UNL     1      20.014   1.755  48.960  1.00  0.00    -0.268 OA
HETATM   14  C10 UNL     1      21.049   0.616  50.833  1.00  0.00     0.073 C 
HETATM   15  C11 UNL     1      21.826   0.328  51.852  1.00  0.00     0.007 C 
HETATM   16  C12 UNL     1      22.911   0.670  52.784  1.00  0.00     0.140 C 
HETATM   17  C17 UNL     1      23.969   1.581  52.201  1.00  0.00     0.219 C 
HETATM   18  F1  UNL     1      24.505   1.155  51.025  1.00  0.00    -0.243 F 
HETATM   19  C18 UNL     1      23.674   3.009  52.281  1.00  0.00     0.010 C 
HETATM   20  C19 UNL     1      23.455   4.283  52.392  1.00  0.00    -0.009 C 
HETATM   21  C20 UNL     1      23.146   5.714  52.463  1.00  0.00     0.142 C 
HETATM   22  N5  UNL     1      22.095   6.175  51.654  1.00  0.00    -0.406 N 
HETATM   23  C21 UNL     1      22.205   6.221  50.264  1.00  0.00     0.151 C 
HETATM   24  H6  UNL     1      23.227   1.852  47.272  1.00  0.00     0.188 HD
HETATM   25  H23 UNL     1      21.481   6.833  52.135  1.00  0.00     0.154 HD
ENDROOT
BRANCH  16  26
HETATM   26  N4  UNL     1      23.488  -0.502  53.353  1.00  0.00    -0.398 N 
HETATM   27  C13 UNL     1      22.792  -1.159  54.369  1.00  0.00     0.144 C 
HETATM   28  C14 UNL     1      23.504  -1.274  55.688  1.00  0.00     0.187 C 
HETATM   29  O2  UNL     1      24.853  -1.605  55.521  1.00  0.00    -0.388 OA
HETATM   30  C15 UNL     1      25.441  -0.519  54.878  1.00  0.00     0.187 C 
HETATM   31  C16 UNL     1      24.915  -0.451  53.487  1.00  0.00     0.144 C 
ENDBRANCH  16  26
TORSDOF 1
ENDMDL
MODEL 4
REMARK VINA RESULT:      -8.4      2.070      3.953
REMARK  1 active torsions:
REMARK  status: ('A' for Active; 'I' for Inactive)
REMARK    1  A    between atoms: C12_16  and  N4_17 
ROOT
HETATM    1  N1  UNL     1      24.661   7.083  48.108  1.00  0.00    -0.192 NA
HETATM    2  C1  UNL     1      23.807   6.377  48.438  1.00  0.00     0.097 C 
HETATM    3  C2  UNL     1      22.746   5.511  48.865  1.00  0.00     0.046 C 
HETATM    4  C3  UNL     1      22.613   4.277  48.305  1.00  0.00     0.007 C 
HETATM    5  C4  UNL     1      21.423   3.414  48.092  1.00  0.00     0.083 C 
HETATM    6  C5  UNL     1      20.248   4.348  48.592  1.00  0.00     0.054 C 
HETATM    7  C6  UNL     1      20.822   4.627  49.973  1.00  0.00    -0.035 C 
HETATM    8  C7  UNL     1      20.670   3.904  51.056  1.00  0.00     0.107 C 
HETATM    9  N2  UNL     1      21.068   2.595  50.547  1.00  0.00    -0.277 N 
HETATM   10  C8  UNL     1      21.481   2.343  49.175  1.00  0.00     0.113 C 
HETATM   11  N3  UNL     1      21.843   1.108  49.098  1.00  0.00    -0.286 NA
HETATM   12  C9  UNL     1      21.115   1.466  51.476  1.00  0.00     0.252 C 
HETATM   13  O1  UNL     1      19.981   1.146  51.060  1.00  0.00    -0.268 OA
HETATM   14  C10 UNL     1      21.873   0.724  52.516  1.00  0.00     0.073 C 
HETATM   15  C11 UNL     1      23.036   0.811  53.117  1.00  0.00     0.007 C 
HETATM   16  C12 UNL     1      24.333   1.472  53.328  1.00  0.00     0.140 C 
HETATM   17  C17 UNL     1      24.885   2.165  52.100  1.00  0.00     0.219 C 
HETATM   18  F1  UNL     1      24.955   1.386  50.987  1.00  0.00    -0.243 F 
HETATM   19  C18 UNL     1      24.411   3.530  51.890  1.00  0.00     0.010 C 
HETATM   20  C19 UNL     1      24.044   4.762  51.717  1.00  0.00    -0.009 C 
HETATM   21  C20 UNL     1      23.552   6.127  51.503  1.00  0.00     0.142 C 
HETATM   22  N5  UNL     1      22.200   6.264  51.152  1.00  0.00    -0.406 N 
HETATM   23  C21 UNL     1      21.718   5.848  49.910  1.00  0.00     0.151 C 
HETATM   24  H6  UNL     1      22.146   0.761  48.172  1.00  0.00     0.188 HD
HETATM   25  H23 UNL     1      21.736   7.028  51.644  1.00  0.00     0.154 HD
ENDROOT
BRANCH  16  26
HETATM   26  N4  UNL     1      25.284   0.572  53.890  1.00  0.00    -0.398 N 
HETATM   27  C13 UNL     1      26.564   1.051  54.175  1.00  0.00     0.144 C 
HETATM   28  C14 UNL     1      27.698   0.365  53.464  1.00  0.00     0.187 C 
HETATM   29  O2  UNL     1      27.527  -1.024  53.438  1.00  0.00    -0.388 OA
HETATM   30  C15 UNL     1      26.403  -1.259  52.650  1.00  0.00     0.187 C 
HETATM   31  C16 UNL     1      25.202  -0.767  53.380  1.00  0.00     0.144 C 
ENDBRANCH  16  26
TORSDOF 1
ENDMDL
MODEL 5
REMARK VINA RESULT:      -8.2      7.248     10.428
REMARK  1 active torsions:
REMARK  status: ('A' for Active; 'I' for Inactive)
REMARK    1  A    between atoms: C12_16  and  N4_17 
ROOT
HETATM    1  N1  UNL     1      32.903   4.608  44.813  1.00  0.00    -0.192 NA
HETATM    2  C1  UNL     1      32.828   5.529  45.507  1.00  0.00     0.097 C 
HETATM    3  C2  UNL     1      32.734   6.660  46.384  1.00  0.00     0.046 C 
HETATM    4  C3  UNL     1      32.269   7.849  45.909  1.00  0.00     0.007 C 
HETATM    5  C4  UNL     1      32.544   9.250  46.320  1.00  0.00     0.083 C 
HETATM    6  C5  UNL     1      33.652   9.054  47.432  1.00  0.00     0.054 C 
HETATM    7  C6  UNL     1      32.859   8.086  48.299  1.00  0.00    -0.035 C 
HETATM    8  C7  UNL     1      32.003   8.386  49.244  1.00  0.00     0.107 C 
HETATM    9  N2  UNL     1      31.138   9.313  48.520  1.00  0.00    -0.277 N 
HETATM   10  C8  UNL     1      31.332   9.695  47.131  1.00  0.00     0.113 C 
HETATM   11  N3  UNL     1      30.345  10.452  46.793  1.00  0.00    -0.286 NA
HETATM   12  C9  UNL     1      29.965   9.856  49.204  1.00  0.00     0.252 C 
HETATM   13  O1  UNL     1      30.646  10.875  49.448  1.00  0.00    -0.268 OA
HETATM   14  C10 UNL     1      28.551   9.666  49.621  1.00  0.00     0.073 C 
HETATM   15  C11 UNL     1      27.619   8.750  49.503  1.00  0.00     0.007 C 
HETATM   16  C12 UNL     1      27.150   7.443  49.020  1.00  0.00     0.140 C 
HETATM   17  C17 UNL     1      27.804   6.982  47.735  1.00  0.00     0.219 C 
HETATM   18  F1  UNL     1      27.755   7.880  46.715  1.00  0.00    -0.243 F 
HETATM   19  C18 UNL     1      29.073   6.279  47.900  1.00  0.00     0.010 C 
HETATM   20  C19 UNL     1      30.174   5.605  48.030  1.00  0.00    -0.009 C 
HETATM   21  C20 UNL     1      31.456   4.914  48.201  1.00  0.00     0.142 C 
HETATM   22  N5  UNL     1      32.538   5.689  48.645  1.00  0.00    -0.406 N 
HETATM   23  C21 UNL     1      33.122   6.666  47.838  1.00  0.00     0.151 C 
HETATM   24  H6  UNL     1      30.346  10.831  45.830  1.00  0.00     0.188 HD
HETATM   25  H23 UNL     1      33.099   5.219  49.357  1.00  0.00     0.154 HD
ENDROOT
BRANCH  16  26
HETATM   26  N4  UNL     1      25.729   7.411  48.922  1.00  0.00    -0.398 N 
HETATM   27  C13 UNL     1      24.991   8.345  49.651  1.00  0.00     0.144 C 
HETATM   28  C14 UNL     1      24.023   7.783  50.654  1.00  0.00     0.187 C 
HETATM   29  O2  UNL     1      23.328   6.681  50.142  1.00  0.00    -0.388 OA
HETATM   30  C15 UNL     1      24.279   5.682  49.947  1.00  0.00     0.187 C 
HETATM   31  C16 UNL     1      25.174   6.091  48.830  1.00  0.00     0.144 C 
ENDBRANCH  16  26
TORSDOF 1
ENDMDL
MODEL 6
REMARK VINA RESULT:      -8.0      3.701      6.658
REMARK  1 active torsions:
REMARK  status: ('A' for Active; 'I' for Inactive)
REMARK    1  A    between atoms: C12_16  and  N4_17 
ROOT
HETATM    1  N1  UNL     1      26.888   2.494  50.914  1.00  0.00    -0.192 NA
HETATM    2  C1  UNL     1      25.951   3.146  50.728  1.00  0.00     0.097 C 
HETATM    3  C2  UNL     1      24.786   3.956  50.518  1.00  0.00     0.046 C 
HETATM    4  C3  UNL     1      24.157   3.936  49.311  1.00  0.00     0.007 C 
HETATM    5  C4  UNL     1      23.352   4.963  48.601  1.00  0.00     0.083 C 
HETATM    6  C5  UNL     1      23.484   6.208  49.568  1.00  0.00     0.054 C 
HETATM    7  C6  UNL     1      22.992   5.505  50.825  1.00  0.00    -0.035 C 
HETATM    8  C7  UNL     1      21.751   5.365  51.222  1.00  0.00     0.107 C 
HETATM    9  N2  UNL     1      21.158   4.807  50.009  1.00  0.00    -0.277 N 
HETATM   10  C8  UNL     1      21.894   4.554  48.782  1.00  0.00     0.113 C 
HETATM   11  N3  UNL     1      21.087   3.984  47.954  1.00  0.00    -0.286 NA
HETATM   12  C9  UNL     1      19.748   4.420  50.034  1.00  0.00     0.252 C 
HETATM   13  O1  UNL     1      19.492   5.522  49.504  1.00  0.00    -0.268 OA
HETATM   14  C10 UNL     1      18.730   3.397  50.388  1.00  0.00     0.073 C 
HETATM   15  C11 UNL     1      18.703   2.197  50.918  1.00  0.00     0.007 C 
HETATM   16  C12 UNL     1      19.381   1.029  51.501  1.00  0.00     0.140 C 
HETATM   17  C17 UNL     1      20.781   0.795  50.975  1.00  0.00     0.219 C 
HETATM   18  F1  UNL     1      20.881   0.742  49.619  1.00  0.00    -0.243 F 
HETATM   19  C18 UNL     1      21.835   1.540  51.658  1.00  0.00     0.010 C 
HETATM   20  C19 UNL     1      22.791   2.150  52.288  1.00  0.00    -0.009 C 
HETATM   21  C20 UNL     1      23.842   2.912  52.969  1.00  0.00     0.142 C 
HETATM   22  N5  UNL     1      23.844   4.302  52.774  1.00  0.00    -0.406 N 
HETATM   23  C21 UNL     1      24.167   4.870  51.541  1.00  0.00     0.151 C 
HETATM   24  H6  UNL     1      21.457   3.756  47.014  1.00  0.00     0.188 HD
HETATM   25  H23 UNL     1      24.018   4.825  53.633  1.00  0.00     0.154 HD
ENDROOT
BRANCH  16  26
HETATM   26  N4  UNL     1      18.578  -0.142  51.384  1.00  0.00    -0.398 N 
HETATM   27  C13 UNL     1      17.512  -0.130  50.483  1.00  0.00     0.144 C 
HETATM   28  C14 UNL     1      16.148  -0.360  51.074  1.00  0.00     0.187 C 
HETATM   29  O2  UNL     1      16.164  -1.382  52.030  1.00  0.00    -0.388 OA
HETATM   30  C15 UNL     1      16.947  -0.913  53.083  1.00  0.00     0.187 C 
HETATM   31  C16 UNL     1      18.360  -0.833  52.623  1.00  0.00     0.144 C 
ENDBRANCH  16  26
TORSDOF 1
ENDMDL
MODEL 7
REMARK VINA RESULT:      -7.9      6.677      9.180
REMARK  1 active torsions:
REMARK  status: ('A' for Active; 'I' for Inactive)
REMARK    1  A    between atoms: C12_16  and  N4_17 
ROOT
HETATM    1  N1  UNL     1      26.893  14.211  48.565  1.00  0.00    -0.192 NA
HETATM    2  C1  UNL     1      27.594  13.337  48.276  1.00  0.00     0.097 C 
HETATM    3  C2  UNL     1      28.452  12.251  47.901  1.00  0.00     0.046 C 
HETATM    4  C3  UNL     1      29.245  11.660  48.837  1.00  0.00     0.007 C 
HETATM    5  C4  UNL     1      30.553  10.966  48.725  1.00  0.00     0.083 C 
HETATM    6  C5  UNL     1      30.902  11.170  47.195  1.00  0.00     0.054 C 
HETATM    7  C6  UNL     1      29.611  10.582  46.643  1.00  0.00    -0.035 C 
HETATM    8  C7  UNL     1      29.359   9.322  46.388  1.00  0.00     0.107 C 
HETATM    9  N2  UNL     1      29.735   8.723  47.666  1.00  0.00    -0.277 N 
HETATM   10  C8  UNL     1      30.246   9.475  48.801  1.00  0.00     0.113 C 
HETATM   11  N3  UNL     1      30.390   8.650  49.781  1.00  0.00    -0.286 NA
HETATM   12  C9  UNL     1      29.538   7.286  47.851  1.00  0.00     0.252 C 
HETATM   13  O1  UNL     1      30.746   7.138  47.567  1.00  0.00    -0.268 OA
HETATM   14  C10 UNL     1      28.610   6.176  48.188  1.00  0.00     0.073 C 
HETATM   15  C11 UNL     1      27.349   6.033  48.526  1.00  0.00     0.007 C 
HETATM   16  C12 UNL     1      26.022   6.594  48.822  1.00  0.00     0.140 C 
HETATM   17  C17 UNL     1      26.052   7.986  49.416  1.00  0.00     0.219 C 
HETATM   18  F1  UNL     1      26.851   8.124  50.508  1.00  0.00    -0.243 F 
HETATM   19  C18 UNL     1      26.113   9.075  48.445  1.00  0.00     0.010 C 
HETATM   20  C19 UNL     1      26.112  10.058  47.598  1.00  0.00    -0.009 C 
HETATM   21  C20 UNL     1      26.188  11.147  46.619  1.00  0.00     0.142 C 
HETATM   22  N5  UNL     1      27.387  11.270  45.901  1.00  0.00    -0.406 N 
HETATM   23  C21 UNL     1      28.572  11.678  46.515  1.00  0.00     0.151 C 
HETATM   24  H6  UNL     1      30.770   9.029  50.666  1.00  0.00     0.188 HD
HETATM   25  H23 UNL     1      27.240  11.458  44.909  1.00  0.00     0.154 HD
ENDROOT
BRANCH  16  26
HETATM   26  N4  UNL     1      25.255   5.702  49.624  1.00  0.00    -0.398 N 
HETATM   27  C13 UNL     1      25.828   4.485  50.000  1.00  0.00     0.144 C 
HETATM   28  C14 UNL     1      25.105   3.248  49.546  1.00  0.00     0.187 C 
HETATM   29  O2  UNL     1      23.720   3.373  49.697  1.00  0.00    -0.388 OA
HETATM   30  C15 UNL     1      23.325   4.375  48.813  1.00  0.00     0.187 C 
HETATM   31  C16 UNL     1      23.856   5.676  49.305  1.00  0.00     0.144 C 
ENDBRANCH  16  26
TORSDOF 1
ENDMDL
MODEL 8
REMARK VINA RESULT:      -7.9      3.668      6.847
REMARK  1 active torsions:
REMARK  status: ('A' for Active; 'I' for Inactive)
REMARK    1  A    between atoms: C12_16  and  N4_17 
ROOT
HETATM    1  N1  UNL     1      26.046   2.353  54.033  1.00  0.00    -0.192 NA
HETATM    2  C1  UNL     1      25.183   2.718  53.356  1.00  0.00     0.097 C 
HETATM    3  C2  UNL     1      24.119   3.159  52.500  1.00  0.00     0.046 C 
HETATM    4  C3  UNL     1      23.460   4.317  52.781  1.00  0.00     0.007 C 
HETATM    5  C4  UNL     1      22.071   4.756  52.491  1.00  0.00     0.083 C 
HETATM    6  C5  UNL     1      21.447   3.457  51.837  1.00  0.00     0.054 C 
HETATM    7  C6  UNL     1      22.498   3.288  50.749  1.00  0.00    -0.035 C 
HETATM    8  C7  UNL     1      22.508   3.846  49.563  1.00  0.00     0.107 C 
HETATM    9  N2  UNL     1      22.322   5.245  49.938  1.00  0.00    -0.277 N 
HETATM   10  C8  UNL     1      22.170   5.711  51.307  1.00  0.00     0.113 C 
HETATM   11  N3  UNL     1      22.115   6.998  51.277  1.00  0.00    -0.286 NA
HETATM   12  C9  UNL     1      22.345   6.261  48.886  1.00  0.00     0.252 C 
HETATM   13  O1  UNL     1      21.096   6.221  48.895  1.00  0.00    -0.268 OA
HETATM   14  C10 UNL     1      23.154   7.138  48.001  1.00  0.00     0.073 C 
HETATM   15  C11 UNL     1      24.423   7.395  47.787  1.00  0.00     0.007 C 
HETATM   16  C12 UNL     1      25.849   7.181  48.076  1.00  0.00     0.140 C 
HETATM   17  C17 UNL     1      26.143   6.792  49.509  1.00  0.00     0.219 C 
HETATM   18  F1  UNL     1      25.615   7.624  50.447  1.00  0.00    -0.243 F 
HETATM   19  C18 UNL     1      26.040   5.364  49.799  1.00  0.00     0.010 C 
HETATM   20  C19 UNL     1      26.007   4.094  50.064  1.00  0.00    -0.009 C 
HETATM   21  C20 UNL     1      25.887   2.662  50.353  1.00  0.00     0.142 C 
HETATM   22  N5  UNL     1      24.596   2.115  50.315  1.00  0.00    -0.406 N 
HETATM   23  C21 UNL     1      23.634   2.434  51.274  1.00  0.00     0.151 C 
HETATM   24  H6  UNL     1      21.984   7.488  52.179  1.00  0.00     0.188 HD
HETATM   25  H23 UNL     1      24.560   1.209  49.845  1.00  0.00     0.154 HD
ENDROOT
BRANCH  16  26
HETATM   26  N4  UNL     1      26.630   8.302  47.671  1.00  0.00    -0.398 N 
HETATM   27  C13 UNL     1      27.949   8.390  48.120  1.00  0.00     0.144 C 
HETATM   28  C14 UNL     1      28.287   9.606  48.937  1.00  0.00     0.187 C 
HETATM   29  O2  UNL     1      27.717  10.765  48.399  1.00  0.00    -0.388 OA
HETATM   30  C15 UNL     1      26.338  10.611  48.522  1.00  0.00     0.187 C 
HETATM   31  C16 UNL     1      25.898   9.533  47.594  1.00  0.00     0.144 C 
ENDBRANCH  16  26
TORSDOF 1
ENDMDL
MODEL 9
REMARK VINA RESULT:      -7.8      7.781     10.578
REMARK  1 active torsions:
REMARK  status: ('A' for Active; 'I' for Inactive)
REMARK    1  A    between atoms: C12_16  and  N4_17 
ROOT
HETATM    1  N1  UNL     1      28.124  15.276  47.038  1.00  0.00    -0.192 NA
HETATM    2  C1  UNL     1      28.739  14.303  47.140  1.00  0.00     0.097 C 
HETATM    3  C2  UNL     1      29.497  13.090  47.248  1.00  0.00     0.046 C 
HETATM    4  C3  UNL     1      29.813  12.596  48.477  1.00  0.00     0.007 C 
HETATM    5  C4  UNL     1      30.957  11.770  48.943  1.00  0.00     0.083 C 
HETATM    6  C5  UNL     1      31.844  11.673  47.638  1.00  0.00     0.054 C 
HETATM    7  C6  UNL     1      30.755  11.125  46.727  1.00  0.00    -0.035 C 
HETATM    8  C7  UNL     1      30.418   9.870  46.558  1.00  0.00     0.107 C 
HETATM    9  N2  UNL     1      30.228   9.467  47.949  1.00  0.00    -0.277 N 
HETATM   10  C8  UNL     1      30.418  10.351  49.088  1.00  0.00     0.113 C 
HETATM   11  N3  UNL     1      30.083   9.698  50.147  1.00  0.00    -0.286 NA
HETATM   12  C9  UNL     1      29.762   8.110  48.228  1.00  0.00     0.252 C 
HETATM   13  O1  UNL     1      30.956   7.800  48.430  1.00  0.00    -0.268 OA
HETATM   14  C10 UNL     1      28.617   7.170  48.335  1.00  0.00     0.073 C 
HETATM   15  C11 UNL     1      27.312   7.210  48.199  1.00  0.00     0.007 C 
HETATM   16  C12 UNL     1      26.067   7.939  47.912  1.00  0.00     0.140 C 
HETATM   17  C17 UNL     1      26.100   9.403  48.295  1.00  0.00     0.219 C 
HETATM   18  F1  UNL     1      26.477   9.649  49.578  1.00  0.00    -0.243 F 
HETATM   19  C18 UNL     1      26.661  10.297  47.286  1.00  0.00     0.010 C 
HETATM   20  C19 UNL     1      27.105  11.114  46.382  1.00  0.00    -0.009 C 
HETATM   21  C20 UNL     1      27.684  12.006  45.372  1.00  0.00     0.142 C 
HETATM   22  N5  UNL     1      29.063  11.886  45.137  1.00  0.00    -0.406 N 
HETATM   23  C21 UNL     1      30.006  12.278  46.088  1.00  0.00     0.151 C 
HETATM   24  H6  UNL     1      30.183  10.185  51.055  1.00  0.00     0.188 HD
HETATM   25  H23 UNL     1      29.302  11.914  44.145  1.00  0.00     0.154 HD
ENDROOT
BRANCH  16  26
HETATM   26  N4  UNL     1      24.941   7.276  48.480  1.00  0.00    -0.398 N 
HETATM   27  C13 UNL     1      23.715   7.944  48.494  1.00  0.00     0.144 C 
HETATM   28  C14 UNL     1      23.109   8.181  49.849  1.00  0.00     0.187 C 
HETATM   29  O2  UNL     1      23.233   7.059  50.675  1.00  0.00    -0.388 OA
HETATM   30  C15 UNL     1      24.598   6.898  50.905  1.00  0.00     0.187 C 
HETATM   31  C16 UNL     1      25.246   6.478  49.632  1.00  0.00     0.144 C 
ENDBRANCH  16  26
TORSDOF 1
ENDMDL
