MODEL 1
REMARK VINA RESULT:      -7.6      0.000      0.000
REMARK  0 active torsions:
REMARK  status: ('A' for Active; 'I' for Inactive)
ROOT
HETATM    1  C1  UNL     1      20.401   3.898  51.930  1.00  0.00     0.152 C 
HETATM    2  N1  UNL     1      20.815   2.545  51.631  1.00  0.00    -0.359 N 
HETATM    3  C2  UNL     1      21.860   1.790  51.045  1.00  0.00     0.049 C 
HETATM    4  C3  UNL     1      21.347   0.742  50.365  1.00  0.00     0.114 C 
HETATM    5  N2  UNL     1      19.962   0.745  50.650  1.00  0.00    -0.373 N 
HETATM    6  C4  UNL     1      19.989   1.393  51.972  1.00  0.00     0.207 C 
HETATM    7  C5  UNL     1      20.560   0.554  53.022  1.00  0.00     0.019 C 
HETATM    8  C6  UNL     1      20.915  -0.205  54.008  1.00  0.00    -0.001 C 
HETATM    9  C7  UNL     1      21.634  -0.997  54.961  1.00  0.00    -0.004 C 
HETATM   10  C8  UNL     1      22.929  -1.254  55.045  1.00  0.00    -0.019 C 
HETATM   11  C9  UNL     1      23.643  -0.562  53.929  1.00  0.00     0.092 C 
HETATM   12  C10 UNL     1      24.983  -0.594  53.695  1.00  0.00     0.070 C 
HETATM   13  N3  UNL     1      25.430   0.134  52.579  1.00  0.00    -0.397 N 
HETATM   14  C11 UNL     1      26.070   1.175  51.946  1.00  0.00     0.096 C 
HETATM   15  C12 UNL     1      25.690   2.180  51.244  1.00  0.00     0.008 A 
HETATM   16  C13 UNL     1      26.624   3.126  50.695  1.00  0.00     0.049 A 
HETATM   17  P1  UNL     1      25.565   4.365  49.705  1.00  0.00     0.061 P 
HETATM   18  N4  UNL     1      24.039   3.466  50.150  1.00  0.00    -0.356 N 
HETATM   19  C14 UNL     1      24.432   2.427  50.924  1.00  0.00     0.045 A 
HETATM   20  C15 UNL     1      23.247   1.995  51.078  1.00  0.00     0.061 C 
HETATM   21  H5  UNL     1      19.144   0.393  50.091  1.00  0.00     0.161 HD
HETATM   22  H13 UNL     1      25.156  -0.360  51.660  1.00  0.00     0.158 HD
HETATM   23  H16 UNL     1      23.144   3.872  49.761  1.00  0.00     0.165 HD
ENDROOT
TORSDOF 0
ENDMDL
MODEL 2
REMARK VINA RESULT:      -7.6      2.615      5.146
REMARK  0 active torsions:
REMARK  status: ('A' for Active; 'I' for Inactive)
ROOT
HETATM    1  C1  UNL     1      20.294   3.477  49.986  1.00  0.00     0.152 C 
HETATM    2  N1  UNL     1      21.412   3.976  50.756  1.00  0.00    -0.359 N 
HETATM    3  C2  UNL     1      22.222   3.689  51.882  1.00  0.00     0.049 C 
HETATM    4  C3  UNL     1      22.521   4.831  52.538  1.00  0.00     0.114 C 
HETATM    5  N2  UNL     1      22.019   5.877  51.728  1.00  0.00    -0.373 N 
HETATM    6  C4  UNL     1      22.091   5.220  50.413  1.00  0.00     0.207 C 
HETATM    7  C5  UNL     1      23.456   5.027  49.930  1.00  0.00     0.019 C 
HETATM    8  C6  UNL     1      24.633   4.976  49.396  1.00  0.00    -0.001 C 
HETATM    9  C7  UNL     1      25.985   4.658  49.045  1.00  0.00    -0.004 C 
HETATM   10  C8  UNL     1      26.804   3.754  49.557  1.00  0.00    -0.019 C 
HETATM   11  C9  UNL     1      26.104   3.018  50.653  1.00  0.00     0.092 C 
HETATM   12  C10 UNL     1      26.629   2.014  51.406  1.00  0.00     0.070 C 
HETATM   13  N3  UNL     1      25.780   1.470  52.385  1.00  0.00    -0.397 N 
HETATM   14  C11 UNL     1      24.980   0.497  52.939  1.00  0.00     0.096 C 
HETATM   15  C12 UNL     1      23.720   0.372  53.151  1.00  0.00     0.008 A 
HETATM   16  C13 UNL     1      23.163  -0.800  53.772  1.00  0.00     0.049 A 
HETATM   17  P1  UNL     1      21.291  -0.458  53.906  1.00  0.00     0.061 P 
HETATM   18  N4  UNL     1      21.502   1.181  53.126  1.00  0.00    -0.356 N 
HETATM   19  C14 UNL     1      22.825   1.300  52.864  1.00  0.00     0.045 A 
HETATM   20  C15 UNL     1      22.698   2.459  52.360  1.00  0.00     0.061 C 
HETATM   21  H5  UNL     1      21.688   6.843  51.979  1.00  0.00     0.161 HD
HETATM   22  H13 UNL     1      25.651   2.156  53.208  1.00  0.00     0.158 HD
HETATM   23  H16 UNL     1      20.615   1.743  53.006  1.00  0.00     0.165 HD
ENDROOT
TORSDOF 0
ENDMDL
MODEL 3
REMARK VINA RESULT:      -7.5      2.880      5.285
REMARK  0 active torsions:
REMARK  status: ('A' for Active; 'I' for Inactive)
ROOT
HETATM    1  C1  UNL     1      21.915   1.648  48.514  1.00  0.00     0.152 C 
HETATM    2  N1  UNL     1      21.850   2.005  49.914  1.00  0.00    -0.359 N 
HETATM    3  C2  UNL     1      20.975   2.046  51.027  1.00  0.00     0.049 C 
HETATM    4  C3  UNL     1      21.216   3.153  51.762  1.00  0.00     0.114 C 
HETATM    5  N2  UNL     1      22.365   3.746  51.191  1.00  0.00    -0.373 N 
HETATM    6  C4  UNL     1      23.002   2.545  50.627  1.00  0.00     0.207 C 
HETATM    7  C5  UNL     1      23.541   1.640  51.638  1.00  0.00     0.019 C 
HETATM    8  C6  UNL     1      24.165   0.888  52.486  1.00  0.00    -0.001 C 
HETATM    9  C7  UNL     1      24.525  -0.043  53.513  1.00  0.00    -0.004 C 
HETATM   10  C8  UNL     1      23.755  -0.795  54.283  1.00  0.00    -0.019 C 
HETATM   11  C9  UNL     1      22.322  -0.553  53.936  1.00  0.00     0.092 C 
HETATM   12  C10 UNL     1      21.246  -1.151  54.515  1.00  0.00     0.070 C 
HETATM   13  N3  UNL     1      19.988  -0.762  54.024  1.00  0.00    -0.397 N 
HETATM   14  C11 UNL     1      18.811  -0.939  53.334  1.00  0.00     0.096 C 
HETATM   15  C12 UNL     1      18.312  -0.456  52.254  1.00  0.00     0.008 A 
HETATM   16  C13 UNL     1      17.013  -0.845  51.772  1.00  0.00     0.049 A 
HETATM   17  P1  UNL     1      16.729   0.190  50.196  1.00  0.00     0.061 P 
HETATM   18  N4  UNL     1      18.359   0.992  50.390  1.00  0.00    -0.356 N 
HETATM   19  C14 UNL     1      18.906   0.456  51.507  1.00  0.00     0.045 A 
HETATM   20  C15 UNL     1      19.965   1.152  51.413  1.00  0.00     0.061 C 
HETATM   21  H5  UNL     1      22.683   4.748  51.169  1.00  0.00     0.161 HD
HETATM   22  H13 UNL     1      19.737   0.235  54.352  1.00  0.00     0.158 HD
HETATM   23  H16 UNL     1      18.607   1.702  49.647  1.00  0.00     0.165 HD
ENDROOT
TORSDOF 0
ENDMDL
MODEL 4
REMARK VINA RESULT:      -7.4      2.232      4.892
REMARK  0 active torsions:
REMARK  status: ('A' for Active; 'I' for Inactive)
ROOT
HETATM    1  C1  UNL     1      23.259   2.874  48.882  1.00  0.00     0.152 C 
HETATM    2  N1  UNL     1      23.623   2.980  50.277  1.00  0.00    -0.359 N 
HETATM    3  C2  UNL     1      23.122   2.801  51.589  1.00  0.00     0.049 C 
HETATM    4  C3  UNL     1      23.599   3.770  52.401  1.00  0.00     0.114 C 
HETATM    5  N2  UNL     1      24.540   4.486  51.626  1.00  0.00    -0.373 N 
HETATM    6  C4  UNL     1      24.949   3.420  50.697  1.00  0.00     0.207 C 
HETATM    7  C5  UNL     1      25.742   2.368  51.327  1.00  0.00     0.019 C 
HETATM    8  C6  UNL     1      26.572   1.499  51.806  1.00  0.00    -0.001 C 
HETATM    9  C7  UNL     1      27.198   0.414  52.501  1.00  0.00    -0.004 C 
HETATM   10  C8  UNL     1      26.674  -0.483  53.320  1.00  0.00    -0.019 C 
HETATM   11  C9  UNL     1      25.210  -0.224  53.464  1.00  0.00     0.092 C 
HETATM   12  C10 UNL     1      24.340  -0.944  54.224  1.00  0.00     0.070 C 
HETATM   13  N3  UNL     1      23.003  -0.512  54.206  1.00  0.00    -0.397 N 
HETATM   14  C11 UNL     1      21.670  -0.600  53.878  1.00  0.00     0.096 C 
HETATM   15  C12 UNL     1      20.884   0.049  53.098  1.00  0.00     0.008 A 
HETATM   16  C13 UNL     1      19.491  -0.287  52.964  1.00  0.00     0.049 A 
HETATM   17  P1  UNL     1      18.776   0.998  51.751  1.00  0.00     0.061 P 
HETATM   18  N4  UNL     1      20.409   1.801  51.587  1.00  0.00    -0.356 N 
HETATM   19  C14 UNL     1      21.251   1.094  52.379  1.00  0.00     0.045 A 
HETATM   20  C15 UNL     1      22.251   1.825  52.096  1.00  0.00     0.061 C 
HETATM   21  H5  UNL     1      24.861   5.485  51.685  1.00  0.00     0.161 HD
HETATM   22  H13 UNL     1      22.887   0.405  54.763  1.00  0.00     0.158 HD
HETATM   23  H16 UNL     1      20.442   2.635  50.940  1.00  0.00     0.165 HD
ENDROOT
TORSDOF 0
ENDMDL
MODEL 5
REMARK VINA RESULT:      -7.4      2.033      3.057
REMARK  0 active torsions:
REMARK  status: ('A' for Active; 'I' for Inactive)
ROOT
HETATM    1  C1  UNL     1      23.693   5.159  52.404  1.00  0.00     0.152 C 
HETATM    2  N1  UNL     1      23.440   3.821  51.916  1.00  0.00    -0.359 N 
HETATM    3  C2  UNL     1      24.046   2.554  51.738  1.00  0.00     0.049 C 
HETATM    4  C3  UNL     1      23.630   2.003  50.577  1.00  0.00     0.114 C 
HETATM    5  N2  UNL     1      22.625   2.867  50.085  1.00  0.00    -0.373 N 
HETATM    6  C4  UNL     1      22.150   3.435  51.358  1.00  0.00     0.207 C 
HETATM    7  C5  UNL     1      21.416   2.481  52.185  1.00  0.00     0.019 C 
HETATM    8  C6  UNL     1      20.633   1.720  52.878  1.00  0.00    -0.001 C 
HETATM    9  C7  UNL     1      20.071   0.708  53.722  1.00  0.00    -0.004 C 
HETATM   10  C8  UNL     1      20.664  -0.282  54.369  1.00  0.00    -0.019 C 
HETATM   11  C9  UNL     1      22.134  -0.234  54.105  1.00  0.00     0.092 C 
HETATM   12  C10 UNL     1      23.066  -1.091  54.604  1.00  0.00     0.070 C 
HETATM   13  N3  UNL     1      24.394  -0.851  54.213  1.00  0.00    -0.397 N 
HETATM   14  C11 UNL     1      25.698  -0.455  54.408  1.00  0.00     0.096 C 
HETATM   15  C12 UNL     1      26.415   0.532  54.010  1.00  0.00     0.008 A 
HETATM   16  C13 UNL     1      27.795   0.677  54.391  1.00  0.00     0.049 A 
HETATM   17  P1  UNL     1      28.402   2.248  53.496  1.00  0.00     0.061 P 
HETATM   18  N4  UNL     1      26.756   2.496  52.744  1.00  0.00    -0.356 N 
HETATM   19  C14 UNL     1      25.985   1.478  53.194  1.00  0.00     0.045 A 
HETATM   20  C15 UNL     1      24.961   1.870  52.552  1.00  0.00     0.061 C 
HETATM   21  H5  UNL     1      22.303   3.058  49.103  1.00  0.00     0.161 HD
HETATM   22  H13 UNL     1      24.549  -1.125  53.181  1.00  0.00     0.158 HD
HETATM   23  H16 UNL     1      26.667   3.342  52.116  1.00  0.00     0.165 HD
ENDROOT
TORSDOF 0
ENDMDL
MODEL 6
REMARK VINA RESULT:      -7.4      1.618      4.433
REMARK  0 active torsions:
REMARK  status: ('A' for Active; 'I' for Inactive)
ROOT
HETATM    1  C1  UNL     1      27.116  -0.748  51.994  1.00  0.00     0.152 C 
HETATM    2  N1  UNL     1      26.343   0.076  52.897  1.00  0.00    -0.359 N 
HETATM    3  C2  UNL     1      25.830   1.384  53.068  1.00  0.00     0.049 C 
HETATM    4  C3  UNL     1      25.908   1.744  54.367  1.00  0.00     0.114 C 
HETATM    5  N2  UNL     1      26.337   0.587  55.057  1.00  0.00    -0.373 N 
HETATM    6  C4  UNL     1      25.808  -0.445  54.150  1.00  0.00     0.207 C 
HETATM    7  C5  UNL     1      24.351  -0.547  54.166  1.00  0.00     0.019 C 
HETATM    8  C6  UNL     1      23.082  -0.777  54.262  1.00  0.00    -0.001 C 
HETATM    9  C7  UNL     1      21.652  -0.723  54.188  1.00  0.00    -0.004 C 
HETATM   10  C8  UNL     1      20.866   0.186  53.635  1.00  0.00    -0.019 C 
HETATM   11  C9  UNL     1      21.705   1.264  53.031  1.00  0.00     0.092 C 
HETATM   12  C10 UNL     1      21.246   2.363  52.373  1.00  0.00     0.070 C 
HETATM   13  N3  UNL     1      22.227   3.246  51.890  1.00  0.00    -0.397 N 
HETATM   14  C11 UNL     1      22.977   3.862  50.915  1.00  0.00     0.096 C 
HETATM   15  C12 UNL     1      24.210   3.822  50.559  1.00  0.00     0.008 A 
HETATM   16  C13 UNL     1      24.716   4.609  49.466  1.00  0.00     0.049 A 
HETATM   17  P1  UNL     1      26.584   4.232  49.396  1.00  0.00     0.061 P 
HETATM   18  N4  UNL     1      26.441   3.091  50.816  1.00  0.00    -0.356 N 
HETATM   19  C14 UNL     1      25.133   3.101  51.168  1.00  0.00     0.045 A 
HETATM   20  C15 UNL     1      25.307   2.278  52.122  1.00  0.00     0.061 C 
HETATM   21  H5  UNL     1      26.875   0.480  55.954  1.00  0.00     0.161 HD
HETATM   22  H13 UNL     1      22.682   3.797  52.699  1.00  0.00     0.158 HD
HETATM   23  H16 UNL     1      27.342   2.630  51.119  1.00  0.00     0.165 HD
ENDROOT
TORSDOF 0
ENDMDL
MODEL 7
REMARK VINA RESULT:      -7.3      1.627      2.277
REMARK  0 active torsions:
REMARK  status: ('A' for Active; 'I' for Inactive)
ROOT
HETATM    1  C1  UNL     1      20.517   3.819  51.778  1.00  0.00     0.152 C 
HETATM    2  N1  UNL     1      21.286   2.757  51.167  1.00  0.00    -0.359 N 
HETATM    3  C2  UNL     1      22.335   2.511  50.249  1.00  0.00     0.049 C 
HETATM    4  C3  UNL     1      22.063   1.404  49.525  1.00  0.00     0.114 C 
HETATM    5  N2  UNL     1      20.894   0.852  50.098  1.00  0.00    -0.373 N 
HETATM    6  C4  UNL     1      21.040   1.353  51.474  1.00  0.00     0.207 C 
HETATM    7  C5  UNL     1      22.127   0.718  52.215  1.00  0.00     0.019 C 
HETATM    8  C6  UNL     1      22.973   0.078  52.955  1.00  0.00    -0.001 C 
HETATM    9  C7  UNL     1      24.150  -0.449  53.580  1.00  0.00    -0.004 C 
HETATM   10  C8  UNL     1      25.425  -0.195  53.337  1.00  0.00    -0.019 C 
HETATM   11  C9  UNL     1      25.527   0.804  52.230  1.00  0.00     0.092 C 
HETATM   12  C10 UNL     1      26.679   1.308  51.711  1.00  0.00     0.070 C 
HETATM   13  N3  UNL     1      26.529   2.238  50.668  1.00  0.00    -0.397 N 
HETATM   14  C11 UNL     1      26.569   3.491  50.101  1.00  0.00     0.096 C 
HETATM   15  C12 UNL     1      25.688   4.325  49.681  1.00  0.00     0.008 A 
HETATM   16  C13 UNL     1      26.049   5.598  49.116  1.00  0.00     0.049 A 
HETATM   17  P1  UNL     1      24.400   6.409  48.607  1.00  0.00     0.061 P 
HETATM   18  N4  UNL     1      23.464   4.960  49.208  1.00  0.00    -0.356 N 
HETATM   19  C14 UNL     1      24.388   4.095  49.688  1.00  0.00     0.045 A 
HETATM   20  C15 UNL     1      23.517   3.230  50.017  1.00  0.00     0.061 C 
HETATM   21  H5  UNL     1      20.136   0.258  49.676  1.00  0.00     0.161 HD
HETATM   22  H13 UNL     1      26.214   1.750  49.758  1.00  0.00     0.158 HD
HETATM   23  H16 UNL     1      22.415   5.020  49.097  1.00  0.00     0.165 HD
ENDROOT
TORSDOF 0
ENDMDL
MODEL 8
REMARK VINA RESULT:      -6.9      2.455      5.095
REMARK  0 active torsions:
REMARK  status: ('A' for Active; 'I' for Inactive)
ROOT
HETATM    1  C1  UNL     1      23.045   4.736  48.541  1.00  0.00     0.152 C 
HETATM    2  N1  UNL     1      23.446   4.579  49.922  1.00  0.00    -0.359 N 
HETATM    3  C2  UNL     1      22.955   4.240  51.206  1.00  0.00     0.049 C 
HETATM    4  C3  UNL     1      23.543   5.013  52.144  1.00  0.00     0.114 C 
HETATM    5  N2  UNL     1      24.537   5.752  51.459  1.00  0.00    -0.373 N 
HETATM    6  C4  UNL     1      24.817   4.816  50.358  1.00  0.00     0.207 C 
HETATM    7  C5  UNL     1      25.513   3.605  50.784  1.00  0.00     0.019 C 
HETATM    8  C6  UNL     1      26.261   2.594  51.088  1.00  0.00    -0.001 C 
HETATM    9  C7  UNL     1      26.788   1.356  51.578  1.00  0.00    -0.004 C 
HETATM   10  C8  UNL     1      26.194   0.393  52.263  1.00  0.00    -0.019 C 
HETATM   11  C9  UNL     1      24.765   0.764  52.499  1.00  0.00     0.092 C 
HETATM   12  C10 UNL     1      23.843   0.017  53.165  1.00  0.00     0.070 C 
HETATM   13  N3  UNL     1      22.557   0.573  53.264  1.00  0.00    -0.397 N 
HETATM   14  C11 UNL     1      21.215   0.668  52.974  1.00  0.00     0.096 C 
HETATM   15  C12 UNL     1      20.483   1.507  52.336  1.00  0.00     0.008 A 
HETATM   16  C13 UNL     1      19.061   1.332  52.201  1.00  0.00     0.049 A 
HETATM   17  P1  UNL     1      18.455   2.860  51.234  1.00  0.00     0.061 P 
HETATM   18  N4  UNL     1      20.157   3.518  51.141  1.00  0.00    -0.356 N 
HETATM   19  C14 UNL     1      20.938   2.615  51.780  1.00  0.00     0.045 A 
HETATM   20  C15 UNL     1      22.001   3.283  51.582  1.00  0.00     0.061 C 
HETATM   21  H5  UNL     1      24.958   6.693  51.665  1.00  0.00     0.161 HD
HETATM   22  H13 UNL     1      22.544   1.395  53.964  1.00  0.00     0.158 HD
HETATM   23  H16 UNL     1      20.260   4.439  50.635  1.00  0.00     0.165 HD
ENDROOT
TORSDOF 0
ENDMDL
MODEL 9
REMARK VINA RESULT:      -6.8      2.595      6.270
REMARK  0 active torsions:
REMARK  status: ('A' for Active; 'I' for Inactive)
ROOT
HETATM    1  C1  UNL     1      26.343   0.932  55.252  1.00  0.00     0.152 C 
HETATM    2  N1  UNL     1      26.262   0.578  53.852  1.00  0.00    -0.359 N 
HETATM    3  C2  UNL     1      25.426  -0.045  52.894  1.00  0.00     0.049 C 
HETATM    4  C3  UNL     1      26.172  -0.759  52.025  1.00  0.00     0.114 C 
HETATM    5  N2  UNL     1      27.517  -0.461  52.345  1.00  0.00    -0.373 N 
HETATM    6  C4  UNL     1      27.337   0.883  52.916  1.00  0.00     0.207 C 
HETATM    7  C5  UNL     1      26.981   1.896  51.925  1.00  0.00     0.019 C 
HETATM    8  C6  UNL     1      26.817   2.849  51.067  1.00  0.00    -0.001 C 
HETATM    9  C7  UNL     1      26.306   3.765  50.091  1.00  0.00    -0.004 C 
HETATM   10  C8  UNL     1      25.109   3.828  49.531  1.00  0.00    -0.019 C 
HETATM   11  C9  UNL     1      24.251   2.732  50.076  1.00  0.00     0.092 C 
HETATM   12  C10 UNL     1      22.957   2.485  49.737  1.00  0.00     0.070 C 
HETATM   13  N3  UNL     1      22.350   1.393  50.381  1.00  0.00    -0.397 N 
HETATM   14  C11 UNL     1      21.482   0.793  51.264  1.00  0.00     0.096 C 
HETATM   15  C12 UNL     1      21.612   0.133  52.357  1.00  0.00     0.008 A 
HETATM   16  C13 UNL     1      20.480  -0.388  53.075  1.00  0.00     0.049 A 
HETATM   17  P1  UNL     1      21.215  -1.321  54.567  1.00  0.00     0.061 P 
HETATM   18  N4  UNL     1      22.911  -0.897  54.039  1.00  0.00    -0.356 N 
HETATM   19  C14 UNL     1      22.775  -0.166  52.907  1.00  0.00     0.045 A 
HETATM   20  C15 UNL     1      24.029  -0.017  52.763  1.00  0.00     0.061 C 
HETATM   21  H5  UNL     1      28.395  -1.026  52.219  1.00  0.00     0.161 HD
HETATM   22  H13 UNL     1      22.733   0.459  50.001  1.00  0.00     0.158 HD
HETATM   23  H16 UNL     1      23.684  -1.262  54.660  1.00  0.00     0.165 HD
ENDROOT
TORSDOF 0
ENDMDL
