MODEL 1
REMARK VINA RESULT:      -7.6      0.000      0.000
REMARK  2 active torsions:
REMARK  status: ('A' for Active; 'I' for Inactive)
REMARK    1  A    between atoms: C2_2  and  C3_3 
REMARK    2  A    between atoms: C12_15  and  O2_16 
ROOT
HETATM    1  C3  UNL     1      23.019   0.325  53.338  1.00  0.00    -0.044 C 
HETATM    2  C4  UNL     1      24.107  -0.441  53.404  1.00  0.00     0.008 C 
HETATM    3  C5  UNL     1      25.492  -0.778  53.353  1.00  0.00     0.026 C 
HETATM    4  C6  UNL     1      26.588  -0.119  53.093  1.00  0.00     0.024 C 
HETATM    5  C7  UNL     1      27.925  -0.742  53.116  1.00  0.00     0.070 C 
HETATM    6  N1  UNL     1      27.065   1.162  52.713  1.00  0.00    -0.301 N 
HETATM    7  C8  UNL     1      27.708   2.225  53.439  1.00  0.00     0.177 C 
HETATM    8  N2  UNL     1      27.025   1.685  51.418  1.00  0.00    -0.299 N 
HETATM    9  C9  UNL     1      25.953   2.490  50.994  1.00  0.00     0.071 C 
HETATM   10  C10 UNL     1      26.014   3.620  50.211  1.00  0.00     0.170 C 
HETATM   11  O1  UNL     1      24.768   4.284  49.896  1.00  0.00    -0.330 OA
HETATM   12  C11 UNL     1      23.771   3.557  49.178  1.00  0.00     0.173 C 
HETATM   13  C12 UNL     1      22.605   2.874  49.185  1.00  0.00     0.072 C 
HETATM   14  C13 UNL     1      22.128   2.884  50.601  1.00  0.00     0.147 C 
HETATM   15  C14 UNL     1      22.450   1.686  51.368  1.00  0.00     0.166 C 
HETATM   16  O3  UNL     1      22.266   0.698  50.624  1.00  0.00    -0.294 OA
HETATM   17  C15 UNL     1      22.975   2.023  53.011  1.00  0.00     0.220 C 
HETATM   18  O4  UNL     1      24.262   2.020  52.792  1.00  0.00    -0.368 OA
HETATM   19  C16 UNL     1      24.621   2.169  51.553  1.00  0.00     0.229 C 
HETATM   20  H14 UNL     1      27.725   1.569  50.684  1.00  0.00     0.187 HD
ENDROOT
BRANCH   1  21
HETATM   21  C2  UNL     1      21.608  -0.132  53.552  1.00  0.00     0.033 C 
HETATM   22  C1  UNL     1      21.524  -1.271  54.508  1.00  0.00     0.010 C 
ENDBRANCH   1  21
BRANCH  13  23
HETATM   23  O2  UNL     1      21.996   2.294  48.083  1.00  0.00    -0.363 OA
HETATM   24  H17 UNL     1      20.998   2.502  47.957  1.00  0.00     0.217 HD
ENDBRANCH  13  23
TORSDOF 2
ENDMDL
MODEL 2
REMARK VINA RESULT:      -7.5      2.843      4.863
REMARK  2 active torsions:
REMARK  status: ('A' for Active; 'I' for Inactive)
REMARK    1  A    between atoms: C2_2  and  C3_3 
REMARK    2  A    between atoms: C12_15  and  O2_16 
ROOT
HETATM    1  C3  UNL     1      24.493   0.709  52.268  1.00  0.00    -0.044 C 
HETATM    2  C4  UNL     1      23.648   0.085  53.088  1.00  0.00     0.008 C 
HETATM    3  C5  UNL     1      22.397  -0.327  53.634  1.00  0.00     0.026 C 
HETATM    4  C6  UNL     1      21.147  -0.080  53.350  1.00  0.00     0.024 C 
HETATM    5  C7  UNL     1      20.022  -0.664  54.106  1.00  0.00     0.070 C 
HETATM    6  N1  UNL     1      20.320   0.671  52.476  1.00  0.00    -0.301 N 
HETATM    7  C8  UNL     1      19.538   0.318  51.321  1.00  0.00     0.177 C 
HETATM    8  N2  UNL     1      20.053   2.037  52.594  1.00  0.00    -0.299 N 
HETATM    9  C9  UNL     1      20.824   2.988  51.903  1.00  0.00     0.071 C 
HETATM   10  C10 UNL     1      20.379   4.129  51.275  1.00  0.00     0.170 C 
HETATM   11  O1  UNL     1      21.368   4.967  50.630  1.00  0.00    -0.330 OA
HETATM   12  C11 UNL     1      22.407   5.532  51.430  1.00  0.00     0.173 C 
HETATM   13  C12 UNL     1      23.696   5.515  51.835  1.00  0.00     0.072 C 
HETATM   14  C13 UNL     1      24.342   4.379  51.110  1.00  0.00     0.147 C 
HETATM   15  C14 UNL     1      24.435   3.137  51.868  1.00  0.00     0.166 C 
HETATM   16  O3  UNL     1      24.755   3.430  53.041  1.00  0.00    -0.294 OA
HETATM   17  C15 UNL     1      24.070   1.704  50.919  1.00  0.00     0.220 C 
HETATM   18  O4  UNL     1      22.807   1.599  51.229  1.00  0.00    -0.368 OA
HETATM   19  C16 UNL     1      22.258   2.671  51.715  1.00  0.00     0.229 C 
HETATM   20  H14 UNL     1      19.311   2.476  53.141  1.00  0.00     0.187 HD
ENDROOT
BRANCH   1  21
HETATM   21  C2  UNL     1      25.989   0.658  52.342  1.00  0.00     0.033 C 
HETATM   22  C1  UNL     1      26.497  -0.731  52.521  1.00  0.00     0.010 C 
ENDBRANCH   1  21
BRANCH  13  23
HETATM   23  O2  UNL     1      24.275   6.390  52.741  1.00  0.00    -0.363 OA
HETATM   24  H17 UNL     1      25.286   6.285  52.887  1.00  0.00     0.217 HD
ENDBRANCH  13  23
TORSDOF 2
ENDMDL
MODEL 3
REMARK VINA RESULT:      -7.3      2.562      5.978
REMARK  2 active torsions:
REMARK  status: ('A' for Active; 'I' for Inactive)
REMARK    1  A    between atoms: C2_2  and  C3_3 
REMARK    2  A    between atoms: C12_15  and  O2_16 
ROOT
HETATM    1  C3  UNL     1      24.661   3.075  51.061  1.00  0.00    -0.044 C 
HETATM    2  C4  UNL     1      23.730   2.748  50.166  1.00  0.00     0.008 C 
HETATM    3  C5  UNL     1      22.504   2.218  49.667  1.00  0.00     0.026 C 
HETATM    4  C6  UNL     1      21.480   1.613  50.204  1.00  0.00     0.024 C 
HETATM    5  C7  UNL     1      20.312   1.163  49.422  1.00  0.00     0.070 C 
HETATM    6  N1  UNL     1      20.988   1.120  51.440  1.00  0.00    -0.301 N 
HETATM    7  C8  UNL     1      19.999   1.604  52.365  1.00  0.00     0.177 C 
HETATM    8  N2  UNL     1      21.389  -0.071  52.049  1.00  0.00    -0.299 N 
HETATM    9  C9  UNL     1      22.420  -0.085  53.006  1.00  0.00     0.071 C 
HETATM   10  C10 UNL     1      22.472  -0.818  54.169  1.00  0.00     0.170 C 
HETATM   11  O1  UNL     1      23.648  -0.672  55.000  1.00  0.00    -0.330 OA
HETATM   12  C11 UNL     1      24.918  -1.021  54.448  1.00  0.00     0.173 C 
HETATM   13  C12 UNL     1      26.096  -0.629  53.914  1.00  0.00     0.072 C 
HETATM   14  C13 UNL     1      26.062   0.864  53.887  1.00  0.00     0.147 C 
HETATM   15  C14 UNL     1      25.668   1.449  52.610  1.00  0.00     0.166 C 
HETATM   16  O3  UNL     1      26.226   0.791  51.703  1.00  0.00    -0.294 OA
HETATM   17  C15 UNL     1      24.580   2.819  52.769  1.00  0.00     0.220 C 
HETATM   18  O4  UNL     1      23.455   2.173  52.625  1.00  0.00    -0.368 OA
HETATM   19  C16 UNL     1      23.517   0.890  52.812  1.00  0.00     0.229 C 
HETATM   20  H14 UNL     1      21.000  -1.003  51.898  1.00  0.00     0.187 HD
ENDROOT
BRANCH   1  21
HETATM   21  C2  UNL     1      25.967   3.750  50.766  1.00  0.00     0.033 C 
HETATM   22  C1  UNL     1      26.496   3.387  49.421  1.00  0.00     0.010 C 
ENDBRANCH   1  21
BRANCH  13  23
HETATM   23  O2  UNL     1      27.114  -1.468  53.488  1.00  0.00    -0.363 OA
HETATM   24  H17 UNL     1      26.982  -1.909  52.570  1.00  0.00     0.217 HD
ENDBRANCH  13  23
TORSDOF 2
ENDMDL
MODEL 4
REMARK VINA RESULT:      -7.1      2.440      4.324
REMARK  2 active torsions:
REMARK  status: ('A' for Active; 'I' for Inactive)
REMARK    1  A    between atoms: C2_2  and  C3_3 
REMARK    2  A    between atoms: C12_15  and  O2_16 
ROOT
HETATM    1  C3  UNL     1      25.499   2.031  52.171  1.00  0.00    -0.044 C 
HETATM    2  C4  UNL     1      26.198   2.528  51.152  1.00  0.00     0.008 C 
HETATM    3  C5  UNL     1      26.585   3.458  50.143  1.00  0.00     0.026 C 
HETATM    4  C6  UNL     1      26.145   4.622  49.751  1.00  0.00     0.024 C 
HETATM    5  C7  UNL     1      26.760   5.384  48.647  1.00  0.00     0.070 C 
HETATM    6  N1  UNL     1      25.128   5.580  49.997  1.00  0.00    -0.301 N 
HETATM    7  C8  UNL     1      25.118   6.849  50.674  1.00  0.00     0.177 C 
HETATM    8  N2  UNL     1      23.804   5.480  49.561  1.00  0.00    -0.299 N 
HETATM    9  C9  UNL     1      22.810   4.923  50.384  1.00  0.00     0.071 C 
HETATM   10  C10 UNL     1      21.513   5.358  50.542  1.00  0.00     0.170 C 
HETATM   11  O1  UNL     1      20.663   4.614  51.447  1.00  0.00    -0.330 OA
HETATM   12  C11 UNL     1      20.414   3.236  51.168  1.00  0.00     0.173 C 
HETATM   13  C12 UNL     1      20.664   1.936  51.438  1.00  0.00     0.072 C 
HETATM   14  C13 UNL     1      21.666   1.929  52.545  1.00  0.00     0.147 C 
HETATM   15  C14 UNL     1      23.052   1.764  52.122  1.00  0.00     0.166 C 
HETATM   16  O3  UNL     1      23.072   0.900  51.218  1.00  0.00    -0.294 OA
HETATM   17  C15 UNL     1      24.180   2.799  52.985  1.00  0.00     0.220 C 
HETATM   18  O4  UNL     1      24.215   3.782  52.127  1.00  0.00    -0.368 OA
HETATM   19  C16 UNL     1      23.230   3.823  51.281  1.00  0.00     0.229 C 
HETATM   20  H14 UNL     1      23.424   5.792  48.666  1.00  0.00     0.187 HD
ENDROOT
BRANCH   1  21
HETATM   21  C2  UNL     1      25.728   0.705  52.832  1.00  0.00     0.033 C 
HETATM   22  C1  UNL     1      26.625  -0.175  52.032  1.00  0.00     0.010 C 
ENDBRANCH   1  21
BRANCH  13  23
HETATM   23  O2  UNL     1      20.089   0.848  50.800  1.00  0.00    -0.363 OA
HETATM   24  H17 UNL     1      19.913   0.956  49.794  1.00  0.00     0.217 HD
ENDBRANCH  13  23
TORSDOF 2
ENDMDL
MODEL 5
REMARK VINA RESULT:      -7.1      2.591      5.084
REMARK  2 active torsions:
REMARK  status: ('A' for Active; 'I' for Inactive)
REMARK    1  A    between atoms: C2_2  and  C3_3 
REMARK    2  A    between atoms: C12_15  and  O2_16 
ROOT
HETATM    1  C3  UNL     1      20.375   1.271  51.883  1.00  0.00    -0.044 C 
HETATM    2  C4  UNL     1      20.451   2.595  51.999  1.00  0.00     0.008 C 
HETATM    3  C5  UNL     1      21.053   3.888  52.021  1.00  0.00     0.026 C 
HETATM    4  C6  UNL     1      22.269   4.337  51.869  1.00  0.00     0.024 C 
HETATM    5  C7  UNL     1      22.611   5.770  51.941  1.00  0.00     0.070 C 
HETATM    6  N1  UNL     1      23.605   3.911  51.654  1.00  0.00    -0.301 N 
HETATM    7  C8  UNL     1      24.461   3.914  50.498  1.00  0.00     0.177 C 
HETATM    8  N2  UNL     1      24.447   3.376  52.632  1.00  0.00    -0.299 N 
HETATM    9  C9  UNL     1      24.545   1.986  52.823  1.00  0.00     0.071 C 
HETATM   10  C10 UNL     1      25.682   1.255  53.083  1.00  0.00     0.170 C 
HETATM   11  O1  UNL     1      25.534  -0.175  53.251  1.00  0.00    -0.330 OA
HETATM   12  C11 UNL     1      24.703  -0.653  54.308  1.00  0.00     0.173 C 
HETATM   13  C12 UNL     1      23.525  -1.184  54.706  1.00  0.00     0.072 C 
HETATM   14  C13 UNL     1      22.708  -1.353  53.467  1.00  0.00     0.147 C 
HETATM   15  C14 UNL     1      21.756  -0.280  53.205  1.00  0.00     0.166 C 
HETATM   16  O3  UNL     1      21.231   0.038  54.295  1.00  0.00    -0.294 OA
HETATM   17  C15 UNL     1      21.677   0.193  51.514  1.00  0.00     0.220 C 
HETATM   18  O4  UNL     1      22.521   1.187  51.566  1.00  0.00    -0.368 OA
HETATM   19  C16 UNL     1      23.314   1.197  52.594  1.00  0.00     0.229 C 
HETATM   20  H14 UNL     1      25.061   3.890  53.266  1.00  0.00     0.187 HD
ENDROOT
BRANCH   1  21
HETATM   21  C2  UNL     1      19.133   0.445  52.031  1.00  0.00     0.033 C 
HETATM   22  C1  UNL     1      18.074   0.843  51.062  1.00  0.00     0.010 C 
ENDBRANCH   1  21
BRANCH  13  23
HETATM   23  O2  UNL     1      23.175  -1.499  56.010  1.00  0.00    -0.363 OA
HETATM   24  H17 UNL     1      23.785  -2.170  56.491  1.00  0.00     0.217 HD
ENDBRANCH  13  23
TORSDOF 2
ENDMDL
MODEL 6
REMARK VINA RESULT:      -6.9      8.378     10.814
REMARK  2 active torsions:
REMARK  status: ('A' for Active; 'I' for Inactive)
REMARK    1  A    between atoms: C2_2  and  C3_3 
REMARK    2  A    between atoms: C12_15  and  O2_16 
ROOT
HETATM    1  C3  UNL     1      30.267   6.094  48.110  1.00  0.00    -0.044 C 
HETATM    2  C4  UNL     1      30.940   5.008  47.733  1.00  0.00     0.008 C 
HETATM    3  C5  UNL     1      32.068   4.175  47.471  1.00  0.00     0.026 C 
HETATM    4  C6  UNL     1      33.361   4.327  47.566  1.00  0.00     0.024 C 
HETATM    5  C7  UNL     1      34.321   3.262  47.219  1.00  0.00     0.070 C 
HETATM    6  N1  UNL     1      34.359   5.277  47.900  1.00  0.00    -0.301 N 
HETATM    7  C8  UNL     1      35.196   5.454  49.057  1.00  0.00     0.177 C 
HETATM    8  N2  UNL     1      34.790   6.318  47.075  1.00  0.00    -0.299 N 
HETATM    9  C9  UNL     1      34.221   7.600  47.168  1.00  0.00     0.071 C 
HETATM   10  C10 UNL     1      34.870   8.812  47.092  1.00  0.00     0.170 C 
HETATM   11  O1  UNL     1      34.067  10.010  47.210  1.00  0.00    -0.330 OA
HETATM   12  C11 UNL     1      33.038  10.236  46.245  1.00  0.00     0.173 C 
HETATM   13  C12 UNL     1      31.725  10.220  45.927  1.00  0.00     0.072 C 
HETATM   14  C13 UNL     1      31.009   9.750  47.150  1.00  0.00     0.147 C 
HETATM   15  C14 UNL     1      30.681   8.329  47.165  1.00  0.00     0.166 C 
HETATM   16  O3  UNL     1      30.290   8.017  46.018  1.00  0.00    -0.294 OA
HETATM   17  C15 UNL     1      30.945   7.562  48.724  1.00  0.00     0.220 C 
HETATM   18  O4  UNL     1      32.148   7.107  48.499  1.00  0.00    -0.368 OA
HETATM   19  C16 UNL     1      32.783   7.664  47.513  1.00  0.00     0.229 C 
HETATM   20  H14 UNL     1      35.527   6.281  46.369  1.00  0.00     0.187 HD
ENDROOT
BRANCH   1  21
HETATM   21  C2  UNL     1      28.777   6.256  48.093  1.00  0.00     0.033 C 
HETATM   22  C1  UNL     1      28.071   5.010  48.504  1.00  0.00     0.010 C 
ENDBRANCH   1  21
BRANCH  13  23
HETATM   23  O2  UNL     1      31.181  10.577  44.703  1.00  0.00    -0.363 OA
HETATM   24  H17 UNL     1      31.823  10.558  43.901  1.00  0.00     0.217 HD
ENDBRANCH  13  23
TORSDOF 2
ENDMDL
MODEL 7
REMARK VINA RESULT:      -6.5      2.049      2.619
REMARK  2 active torsions:
REMARK  status: ('A' for Active; 'I' for Inactive)
REMARK    1  A    between atoms: C2_2  and  C3_3 
REMARK    2  A    between atoms: C12_15  and  O2_16 
ROOT
HETATM    1  C3  UNL     1      20.393   0.415  52.787  1.00  0.00    -0.044 C 
HETATM    2  C4  UNL     1      21.523  -0.271  52.953  1.00  0.00     0.008 C 
HETATM    3  C5  UNL     1      22.927  -0.504  53.042  1.00  0.00     0.026 C 
HETATM    4  C6  UNL     1      23.990   0.242  52.916  1.00  0.00     0.024 C 
HETATM    5  C7  UNL     1      25.361  -0.282  53.068  1.00  0.00     0.070 C 
HETATM    6  N1  UNL     1      24.406   1.565  52.617  1.00  0.00    -0.301 N 
HETATM    7  C8  UNL     1      24.886   2.650  53.431  1.00  0.00     0.177 C 
HETATM    8  N2  UNL     1      24.462   2.122  51.337  1.00  0.00    -0.299 N 
HETATM    9  C9  UNL     1      23.383   2.859  50.819  1.00  0.00     0.071 C 
HETATM   10  C10 UNL     1      23.440   4.013  50.071  1.00  0.00     0.170 C 
HETATM   11  O1  UNL     1      22.186   4.593  49.640  1.00  0.00    -0.330 OA
HETATM   12  C11 UNL     1      21.329   3.815  48.803  1.00  0.00     0.173 C 
HETATM   13  C12 UNL     1      20.223   3.049  48.670  1.00  0.00     0.072 C 
HETATM   14  C13 UNL     1      19.602   2.982  50.027  1.00  0.00     0.147 C 
HETATM   15  C14 UNL     1      19.931   1.789  50.798  1.00  0.00     0.166 C 
HETATM   16  O3  UNL     1      19.902   0.812  50.017  1.00  0.00    -0.294 OA
HETATM   17  C15 UNL     1      20.253   2.114  52.494  1.00  0.00     0.220 C 
HETATM   18  O4  UNL     1      21.553   2.212  52.415  1.00  0.00    -0.368 OA
HETATM   19  C16 UNL     1      22.027   2.424  51.225  1.00  0.00     0.229 C 
HETATM   20  H14 UNL     1      25.242   2.079  50.680  1.00  0.00     0.187 HD
ENDROOT
BRANCH   1  21
HETATM   21  C2  UNL     1      19.005  -0.151  52.839  1.00  0.00     0.033 C 
HETATM   22  C1  UNL     1      18.960  -1.468  53.532  1.00  0.00     0.010 C 
ENDBRANCH   1  21
BRANCH  13  23
HETATM   23  O2  UNL     1      19.779   2.460  47.497  1.00  0.00    -0.363 OA
HETATM   24  H17 UNL     1      19.057   1.737  47.600  1.00  0.00     0.217 HD
ENDBRANCH  13  23
TORSDOF 2
ENDMDL
MODEL 8
REMARK VINA RESULT:      -6.5      9.020     11.295
REMARK  2 active torsions:
REMARK  status: ('A' for Active; 'I' for Inactive)
REMARK    1  A    between atoms: C2_2  and  C3_3 
REMARK    2  A    between atoms: C12_15  and  O2_16 
ROOT
HETATM    1  C3  UNL     1      33.301   4.143  46.684  1.00  0.00    -0.044 C 
HETATM    2  C4  UNL     1      33.272   4.095  45.353  1.00  0.00     0.008 C 
HETATM    3  C5  UNL     1      33.247   4.580  44.012  1.00  0.00     0.026 C 
HETATM    4  C6  UNL     1      33.226   5.765  43.466  1.00  0.00     0.024 C 
HETATM    5  C7  UNL     1      33.205   5.975  42.006  1.00  0.00     0.070 C 
HETATM    6  N1  UNL     1      33.182   7.147  43.782  1.00  0.00    -0.301 N 
HETATM    7  C8  UNL     1      34.175   8.188  43.772  1.00  0.00     0.177 C 
HETATM    8  N2  UNL     1      32.040   7.847  44.179  1.00  0.00    -0.299 N 
HETATM    9  C9  UNL     1      31.732   8.019  45.540  1.00  0.00     0.071 C 
HETATM   10  C10 UNL     1      31.231   9.147  46.149  1.00  0.00     0.170 C 
HETATM   11  O1  UNL     1      30.985   9.086  47.573  1.00  0.00    -0.330 OA
HETATM   12  C11 UNL     1      30.048   8.124  48.061  1.00  0.00     0.173 C 
HETATM   13  C12 UNL     1      29.815   6.940  48.670  1.00  0.00     0.072 C 
HETATM   14  C13 UNL     1      31.157   6.366  48.986  1.00  0.00     0.147 C 
HETATM   15  C14 UNL     1      31.654   5.393  48.021  1.00  0.00     0.166 C 
HETATM   16  O3  UNL     1      30.694   4.664  47.687  1.00  0.00    -0.294 OA
HETATM   17  C15 UNL     1      33.364   5.570  47.660  1.00  0.00     0.220 C 
HETATM   18  O4  UNL     1      33.247   6.312  46.592  1.00  0.00    -0.368 OA
HETATM   19  C16 UNL     1      32.104   6.912  46.449  1.00  0.00     0.229 C 
HETATM   20  H14 UNL     1      31.352   8.299  43.575  1.00  0.00     0.187 HD
ENDROOT
BRANCH   1  21
HETATM   21  C2  UNL     1      33.301   2.963  47.608  1.00  0.00     0.033 C 
HETATM   22  C1  UNL     1      32.643   1.773  47.000  1.00  0.00     0.010 C 
ENDBRANCH   1  21
BRANCH  13  23
HETATM   23  O2  UNL     1      28.568   6.396  48.936  1.00  0.00    -0.363 OA
HETATM   24  H17 UNL     1      27.918   6.992  49.462  1.00  0.00     0.217 HD
ENDBRANCH  13  23
TORSDOF 2
ENDMDL
MODEL 9
REMARK VINA RESULT:      -6.4      3.458      5.537
REMARK  2 active torsions:
REMARK  status: ('A' for Active; 'I' for Inactive)
REMARK    1  A    between atoms: C2_2  and  C3_3 
REMARK    2  A    between atoms: C12_15  and  O2_16 
ROOT
HETATM    1  C3  UNL     1      22.720   1.261  51.921  1.00  0.00    -0.044 C 
HETATM    2  C4  UNL     1      21.451   1.065  52.276  1.00  0.00     0.008 C 
HETATM    3  C5  UNL     1      20.031   1.171  52.217  1.00  0.00     0.026 C 
HETATM    4  C6  UNL     1      19.189   1.791  51.435  1.00  0.00     0.024 C 
HETATM    5  C7  UNL     1      17.726   1.719  51.613  1.00  0.00     0.070 C 
HETATM    6  N1  UNL     1      19.126   2.666  50.320  1.00  0.00    -0.301 N 
HETATM    7  C8  UNL     1      18.821   2.462  48.929  1.00  0.00     0.177 C 
HETATM    8  N2  UNL     1      19.343   4.045  50.365  1.00  0.00    -0.299 N 
HETATM    9  C9  UNL     1      20.614   4.588  50.108  1.00  0.00     0.071 C 
HETATM   10  C10 UNL     1      20.909   5.727  49.394  1.00  0.00     0.170 C 
HETATM   11  O1  UNL     1      22.303   6.095  49.268  1.00  0.00    -0.330 OA
HETATM   12  C11 UNL     1      23.046   6.367  50.456  1.00  0.00     0.173 C 
HETATM   13  C12 UNL     1      23.953   5.962  51.374  1.00  0.00     0.072 C 
HETATM   14  C13 UNL     1      24.386   4.596  50.952  1.00  0.00     0.147 C 
HETATM   15  C14 UNL     1      23.706   3.498  51.628  1.00  0.00     0.166 C 
HETATM   16  O3  UNL     1      23.596   3.805  52.836  1.00  0.00    -0.294 OA
HETATM   17  C15 UNL     1      23.280   2.170  50.560  1.00  0.00     0.220 C 
HETATM   18  O4  UNL     1      22.055   2.538  50.295  1.00  0.00    -0.368 OA
HETATM   19  C16 UNL     1      21.779   3.783  50.540  1.00  0.00     0.229 C 
HETATM   20  H14 UNL     1      18.653   4.773  50.558  1.00  0.00     0.187 HD
ENDROOT
BRANCH   1  21
HETATM   21  C2  UNL     1      23.925   0.715  52.627  1.00  0.00     0.033 C 
HETATM   22  C1  UNL     1      23.564  -0.311  53.643  1.00  0.00     0.010 C 
ENDBRANCH   1  21
BRANCH  13  23
HETATM   23  O2  UNL     1      24.377   6.692  52.473  1.00  0.00    -0.363 OA
HETATM   24  H17 UNL     1      23.715   7.388  52.836  1.00  0.00     0.217 HD
ENDBRANCH  13  23
TORSDOF 2
ENDMDL
