MODEL 1
REMARK VINA RESULT:      -8.6      0.000      0.000
REMARK  4 active torsions:
REMARK  status: ('A' for Active; 'I' for Inactive)
REMARK    1  A    between atoms: C3_3  and  C4_4 
REMARK    2  A    between atoms: N4_18  and  C14_19 
REMARK    3  A    between atoms: C18_23  and  O2_24 
REMARK    4  A    between atoms: O2_24  and  C19_25 
ROOT
HETATM    1  C4  UNL     1      22.196  -0.243  53.832  1.00  0.00     0.015 C 
HETATM    2  C5  UNL     1      22.766  -0.960  54.778  1.00  0.00     0.089 C 
HETATM    3  C6  UNL     1      24.234  -1.050  54.993  1.00  0.00     0.246 C 
HETATM    4  O1  UNL     1      25.158  -1.479  55.656  1.00  0.00    -0.268 OA
HETATM    5  N1  UNL     1      25.243  -0.458  54.194  1.00  0.00    -0.328 N 
HETATM    6  C7  UNL     1      26.279   0.151  53.374  1.00  0.00     0.012 C 
HETATM    7  C8  UNL     1      27.430   0.111  53.980  1.00  0.00    -0.006 C 
HETATM    8  C9  UNL     1      28.713   0.620  53.482  1.00  0.00     0.038 C 
HETATM    9  C10 UNL     1      25.933   0.675  52.012  1.00  0.00     0.106 C 
HETATM   10  C11 UNL     1      24.899   1.629  51.853  1.00  0.00     0.221 C 
HETATM   11  N2  UNL     1      24.747   2.740  52.842  1.00  0.00    -0.256 NA
HETATM   12  C12 UNL     1      23.403   2.925  53.035  1.00  0.00     0.231 C 
HETATM   13  N3  UNL     1      22.377   1.893  53.048  1.00  0.00    -0.224 NA
HETATM   14  C13 UNL     1      22.765   0.647  52.852  1.00  0.00     0.143 C 
HETATM   15  N4  UNL     1      23.464   1.220  51.788  1.00  0.00    -0.307 N 
HETATM   16  H7  UNL     1      24.624  -0.019  53.559  1.00  0.00     0.169 HD
ENDROOT
BRANCH  15  17
HETATM   17  C14 UNL     1      22.849   1.593  50.570  1.00  0.00     0.041 A 
HETATM   18  C15 UNL     1      21.822   0.734  50.289  1.00  0.00     0.030 A 
HETATM   19  C16 UNL     1      21.171   1.043  49.092  1.00  0.00     0.005 A 
HETATM   20  C17 UNL     1      21.464   2.074  48.237  1.00  0.00     0.037 A 
HETATM   21  C18 UNL     1      22.503   2.904  48.571  1.00  0.00     0.071 A 
HETATM   22  C20 UNL     1      23.190   2.638  49.761  1.00  0.00     0.066 A 
BRANCH  21  23
HETATM   23  O2  UNL     1      22.902   3.980  47.795  1.00  0.00    -0.341 OA
BRANCH  23  24
HETATM   24  C19 UNL     1      22.819   5.294  48.232  1.00  0.00     0.260 C 
HETATM   25 BR1  UNL     1      24.540   6.055  48.632  1.00  0.00    -0.067 Br
ENDBRANCH  23  24
ENDBRANCH  21  23
ENDBRANCH  15  17
BRANCH   1  26
HETATM   26  C3  UNL     1      20.755  -0.340  53.845  1.00  0.00     0.011 C 
HETATM   27  C2  UNL     1      19.766  -0.715  53.110  1.00  0.00    -0.030 C 
HETATM   28  C1  UNL     1      18.287  -0.835  53.074  1.00  0.00     0.036 C 
ENDBRANCH   1  26
TORSDOF 4
ENDMDL
MODEL 2
REMARK VINA RESULT:      -8.2      2.673      6.037
REMARK  4 active torsions:
REMARK  status: ('A' for Active; 'I' for Inactive)
REMARK    1  A    between atoms: C3_3  and  C4_4 
REMARK    2  A    between atoms: N4_18  and  C14_19 
REMARK    3  A    between atoms: C18_23  and  O2_24 
REMARK    4  A    between atoms: O2_24  and  C19_25 
ROOT
HETATM    1  C4  UNL     1      19.040   1.139  51.882  1.00  0.00     0.015 C 
HETATM    2  C5  UNL     1      18.206   2.073  51.474  1.00  0.00     0.089 C 
HETATM    3  C6  UNL     1      18.600   3.473  51.164  1.00  0.00     0.246 C 
HETATM    4  O1  UNL     1      18.276   4.574  50.766  1.00  0.00    -0.268 OA
HETATM    5  N1  UNL     1      19.887   4.043  51.321  1.00  0.00    -0.328 N 
HETATM    6  C7  UNL     1      21.210   4.628  51.482  1.00  0.00     0.012 C 
HETATM    7  C8  UNL     1      21.284   5.775  50.872  1.00  0.00    -0.006 C 
HETATM    8  C9  UNL     1      22.445   6.670  50.801  1.00  0.00     0.038 C 
HETATM    9  C10 UNL     1      22.239   3.915  52.305  1.00  0.00     0.106 C 
HETATM   10  C11 UNL     1      22.596   2.577  52.006  1.00  0.00     0.221 C 
HETATM   11  N2  UNL     1      22.741   2.142  50.583  1.00  0.00    -0.256 NA
HETATM   12  C12 UNL     1      22.224   0.875  50.496  1.00  0.00     0.231 C 
HETATM   13  N3  UNL     1      21.080   0.352  51.228  1.00  0.00    -0.224 NA
HETATM   14  C13 UNL     1      20.469   1.168  52.066  1.00  0.00     0.143 C 
HETATM   15  N4  UNL     1      21.774   1.426  52.487  1.00  0.00    -0.307 N 
HETATM   16  H7  UNL     1      20.323   3.218  51.650  1.00  0.00     0.169 HD
ENDROOT
BRANCH  15  17
HETATM   17  C14 UNL     1      22.508   0.548  53.319  1.00  0.00     0.041 A 
HETATM   18  C15 UNL     1      21.657  -0.085  54.185  1.00  0.00     0.030 A 
HETATM   19  C16 UNL     1      22.318  -0.966  55.043  1.00  0.00     0.005 A 
HETATM   20  C17 UNL     1      23.663  -1.229  55.080  1.00  0.00     0.037 A 
HETATM   21  C18 UNL     1      24.467  -0.566  54.188  1.00  0.00     0.071 A 
HETATM   22  C20 UNL     1      23.854   0.330  53.305  1.00  0.00     0.066 A 
BRANCH  21  23
HETATM   23  O2  UNL     1      25.839  -0.739  54.120  1.00  0.00    -0.341 OA
BRANCH  23  24
HETATM   24  C19 UNL     1      26.740   0.197  54.607  1.00  0.00     0.260 C 
HETATM   25 BR1  UNL     1      27.616   1.183  53.206  1.00  0.00    -0.067 Br
ENDBRANCH  23  24
ENDBRANCH  21  23
ENDBRANCH  15  17
BRANCH   1  26
HETATM   26  C3  UNL     1      18.391  -0.130  52.117  1.00  0.00     0.011 C 
HETATM   27  C2  UNL     1      18.238  -1.027  53.029  1.00  0.00    -0.030 C 
HETATM   28  C1  UNL     1      17.592  -2.330  53.319  1.00  0.00     0.036 C 
ENDBRANCH   1  26
TORSDOF 4
ENDMDL
MODEL 3
REMARK VINA RESULT:      -8.1      3.343      4.575
REMARK  4 active torsions:
REMARK  status: ('A' for Active; 'I' for Inactive)
REMARK    1  A    between atoms: C3_3  and  C4_4 
REMARK    2  A    between atoms: N4_18  and  C14_19 
REMARK    3  A    between atoms: C18_23  and  O2_24 
REMARK    4  A    between atoms: O2_24  and  C19_25 
ROOT
HETATM    1  C4  UNL     1      24.239   0.894  52.728  1.00  0.00     0.015 C 
HETATM    2  C5  UNL     1      25.546   0.862  52.884  1.00  0.00     0.089 C 
HETATM    3  C6  UNL     1      26.505   1.692  52.108  1.00  0.00     0.246 C 
HETATM    4  O1  UNL     1      27.654   2.033  51.912  1.00  0.00    -0.268 OA
HETATM    5  N1  UNL     1      26.190   2.577  51.048  1.00  0.00    -0.328 N 
HETATM    6  C7  UNL     1      25.867   3.487  49.959  1.00  0.00     0.012 C 
HETATM    7  C8  UNL     1      26.881   4.253  49.682  1.00  0.00    -0.006 C 
HETATM    8  C9  UNL     1      26.950   5.297  48.652  1.00  0.00     0.038 C 
HETATM    9  C10 UNL     1      24.519   3.410  49.306  1.00  0.00     0.106 C 
HETATM   10  C11 UNL     1      23.339   3.523  50.081  1.00  0.00     0.221 C 
HETATM   11  N2  UNL     1      23.270   4.514  51.199  1.00  0.00    -0.256 NA
HETATM   12  C12 UNL     1      22.584   3.916  52.224  1.00  0.00     0.231 C 
HETATM   13  N3  UNL     1      22.634   2.511  52.598  1.00  0.00    -0.224 NA
HETATM   14  C13 UNL     1      23.411   1.718  51.885  1.00  0.00     0.143 C 
HETATM   15  N4  UNL     1      22.775   2.351  50.816  1.00  0.00    -0.307 N 
HETATM   16  H7  UNL     1      25.212   2.427  51.079  1.00  0.00     0.169 HD
ENDROOT
BRANCH  15  17
HETATM   17  C14 UNL     1      21.462   2.031  50.396  1.00  0.00     0.041 A 
HETATM   18  C15 UNL     1      21.173   2.698  49.237  1.00  0.00     0.030 A 
HETATM   19  C16 UNL     1      19.885   2.430  48.767  1.00  0.00     0.005 A 
HETATM   20  C17 UNL     1      18.954   1.603  49.339  1.00  0.00     0.037 A 
HETATM   21  C18 UNL     1      19.300   0.959  50.500  1.00  0.00     0.071 A 
HETATM   22  C20 UNL     1      20.580   1.194  51.014  1.00  0.00     0.066 A 
BRANCH  21  23
HETATM   23  O2  UNL     1      18.454   0.099  51.179  1.00  0.00    -0.341 OA
BRANCH  23  24
HETATM   24  C19 UNL     1      18.739  -0.395  52.444  1.00  0.00     0.260 C 
HETATM   25 BR1  UNL     1      17.418  -1.647  53.067  1.00  0.00    -0.067 Br
ENDBRANCH  23  24
ENDBRANCH  21  23
ENDBRANCH  15  17
BRANCH   1  26
HETATM   26  C3  UNL     1      23.546  -0.020  53.606  1.00  0.00     0.011 C 
HETATM   27  C2  UNL     1      22.519  -0.797  53.641  1.00  0.00    -0.030 C 
HETATM   28  C1  UNL     1      21.772  -1.744  54.505  1.00  0.00     0.036 C 
ENDBRANCH   1  26
TORSDOF 4
ENDMDL
MODEL 4
REMARK VINA RESULT:      -8.0      3.074      6.506
REMARK  4 active torsions:
REMARK  status: ('A' for Active; 'I' for Inactive)
REMARK    1  A    between atoms: C3_3  and  C4_4 
REMARK    2  A    between atoms: N4_18  and  C14_19 
REMARK    3  A    between atoms: C18_23  and  O2_24 
REMARK    4  A    between atoms: O2_24  and  C19_25 
ROOT
HETATM    1  C4  UNL     1      26.158   2.247  51.715  1.00  0.00     0.015 C 
HETATM    2  C5  UNL     1      26.888   2.888  50.825  1.00  0.00     0.089 C 
HETATM    3  C6  UNL     1      26.332   3.735  49.737  1.00  0.00     0.246 C 
HETATM    4  O1  UNL     1      26.537   4.479  48.799  1.00  0.00    -0.268 OA
HETATM    5  N1  UNL     1      24.962   3.929  49.434  1.00  0.00    -0.328 N 
HETATM    6  C7  UNL     1      23.555   4.130  49.123  1.00  0.00     0.012 C 
HETATM    7  C8  UNL     1      23.401   5.128  48.302  1.00  0.00    -0.006 C 
HETATM    8  C9  UNL     1      22.140   5.641  47.754  1.00  0.00     0.038 C 
HETATM    9  C10 UNL     1      22.528   3.207  49.709  1.00  0.00     0.106 C 
HETATM   10  C11 UNL     1      22.448   3.021  51.110  1.00  0.00     0.221 C 
HETATM   11  N2  UNL     1      22.619   4.187  52.031  1.00  0.00    -0.256 NA
HETATM   12  C12 UNL     1      23.340   3.744  53.110  1.00  0.00     0.231 C 
HETATM   13  N3  UNL     1      24.413   2.761  53.093  1.00  0.00    -0.224 NA
HETATM   14  C13 UNL     1      24.733   2.230  51.928  1.00  0.00     0.143 C 
HETATM   15  N4  UNL     1      23.351   2.067  51.823  1.00  0.00    -0.307 N 
HETATM   16  H7  UNL     1      24.615   3.362  50.167  1.00  0.00     0.169 HD
ENDROOT
BRANCH  15  17
HETATM   17  C14 UNL     1      22.638   1.045  52.492  1.00  0.00     0.041 A 
HETATM   18  C15 UNL     1      23.509   0.082  52.923  1.00  0.00     0.030 A 
HETATM   19  C16 UNL     1      22.870  -0.965  53.591  1.00  0.00     0.005 A 
HETATM   20  C17 UNL     1      21.526  -1.089  53.833  1.00  0.00     0.037 A 
HETATM   21  C18 UNL     1      20.701  -0.092  53.380  1.00  0.00     0.071 A 
HETATM   22  C20 UNL     1      21.292   0.980  52.702  1.00  0.00     0.066 A 
BRANCH  21  23
HETATM   23  O2  UNL     1      19.327  -0.096  53.557  1.00  0.00    -0.341 OA
BRANCH  23  24
HETATM   24  C19 UNL     1      18.466  -0.824  52.749  1.00  0.00     0.260 C 
HETATM   25 BR1  UNL     1      17.850  -2.443  53.587  1.00  0.00    -0.067 Br
ENDBRANCH  23  24
ENDBRANCH  21  23
ENDBRANCH  15  17
BRANCH   1  26
HETATM   26  C3  UNL     1      26.954   1.493  52.656  1.00  0.00     0.011 C 
HETATM   27  C2  UNL     1      27.492   0.334  52.815  1.00  0.00    -0.030 C 
HETATM   28  C1  UNL     1      28.307  -0.481  53.749  1.00  0.00     0.036 C 
ENDBRANCH   1  26
TORSDOF 4
ENDMDL
MODEL 5
REMARK VINA RESULT:      -8.0      3.225      6.122
REMARK  4 active torsions:
REMARK  status: ('A' for Active; 'I' for Inactive)
REMARK    1  A    between atoms: C3_3  and  C4_4 
REMARK    2  A    between atoms: N4_18  and  C14_19 
REMARK    3  A    between atoms: C18_23  and  O2_24 
REMARK    4  A    between atoms: O2_24  and  C19_25 
ROOT
HETATM    1  C4  UNL     1      25.494   2.238  51.272  1.00  0.00     0.015 C 
HETATM    2  C5  UNL     1      26.596   2.527  50.612  1.00  0.00     0.089 C 
HETATM    3  C6  UNL     1      26.745   3.688  49.695  1.00  0.00     0.246 C 
HETATM    4  O1  UNL     1      27.463   4.344  48.966  1.00  0.00    -0.268 OA
HETATM    5  N1  UNL     1      25.734   4.609  49.326  1.00  0.00    -0.328 N 
HETATM    6  C7  UNL     1      24.696   5.555  48.948  1.00  0.00     0.012 C 
HETATM    7  C8  UNL     1      25.211   6.594  48.358  1.00  0.00    -0.006 C 
HETATM    8  C9  UNL     1      24.495   7.762  47.832  1.00  0.00     0.038 C 
HETATM    9  C10 UNL     1      23.259   5.227  49.224  1.00  0.00     0.106 C 
HETATM   10  C11 UNL     1      22.836   4.908  50.538  1.00  0.00     0.221 C 
HETATM   11  N2  UNL     1      23.383   5.665  51.705  1.00  0.00    -0.256 NA
HETATM   12  C12 UNL     1      23.575   4.760  52.717  1.00  0.00     0.231 C 
HETATM   13  N3  UNL     1      24.006   3.377  52.574  1.00  0.00    -0.224 NA
HETATM   14  C13 UNL     1      24.235   2.934  51.352  1.00  0.00     0.143 C 
HETATM   15  N4  UNL     1      23.000   3.532  51.096  1.00  0.00    -0.307 N 
HETATM   16  H7  UNL     1      25.023   4.205  49.883  1.00  0.00     0.169 HD
ENDROOT
BRANCH  15  17
HETATM   17  C14 UNL     1      21.765   2.945  51.459  1.00  0.00     0.041 A 
HETATM   18  C15 UNL     1      20.738   3.622  50.859  1.00  0.00     0.030 A 
HETATM   19  C16 UNL     1      19.485   3.097  51.180  1.00  0.00     0.005 A 
HETATM   20  C17 UNL     1      19.223   2.025  51.993  1.00  0.00     0.037 A 
HETATM   21  C18 UNL     1      20.291   1.383  52.566  1.00  0.00     0.071 A 
HETATM   22  C20 UNL     1      21.571   1.871  52.277  1.00  0.00     0.066 A 
BRANCH  21  23
HETATM   23  O2  UNL     1      20.166   0.290  53.406  1.00  0.00    -0.341 OA
BRANCH  23  24
HETATM   24  C19 UNL     1      20.863   0.175  54.600  1.00  0.00     0.260 C 
HETATM   25 BR1  UNL     1      22.184  -1.224  54.559  1.00  0.00    -0.067 Br
ENDBRANCH  23  24
ENDBRANCH  21  23
ENDBRANCH  15  17
BRANCH   1  26
HETATM   26  C3  UNL     1      25.622   1.052  52.087  1.00  0.00     0.011 C 
HETATM   27  C2  UNL     1      26.343  -0.007  52.213  1.00  0.00    -0.030 C 
HETATM   28  C1  UNL     1      26.515  -1.240  53.021  1.00  0.00     0.036 C 
ENDBRANCH   1  26
TORSDOF 4
ENDMDL
MODEL 6
REMARK VINA RESULT:      -7.9      8.369     11.224
REMARK  4 active torsions:
REMARK  status: ('A' for Active; 'I' for Inactive)
REMARK    1  A    between atoms: C3_3  and  C4_4 
REMARK    2  A    between atoms: N4_18  and  C14_19 
REMARK    3  A    between atoms: C18_23  and  O2_24 
REMARK    4  A    between atoms: O2_24  and  C19_25 
ROOT
HETATM    1  C4  UNL     1      32.192   4.930  46.483  1.00  0.00     0.015 C 
HETATM    2  C5  UNL     1      33.239   5.290  45.769  1.00  0.00     0.089 C 
HETATM    3  C6  UNL     1      33.702   6.694  45.610  1.00  0.00     0.246 C 
HETATM    4  O1  UNL     1      34.523   7.466  45.156  1.00  0.00    -0.268 OA
HETATM    5  N1  UNL     1      33.072   7.855  46.121  1.00  0.00    -0.328 N 
HETATM    6  C7  UNL     1      32.426   9.048  46.647  1.00  0.00     0.012 C 
HETATM    7  C8  UNL     1      33.219  10.076  46.567  1.00  0.00    -0.006 C 
HETATM    8  C9  UNL     1      32.935  11.452  46.991  1.00  0.00     0.038 C 
HETATM    9  C10 UNL     1      31.013   8.967  47.142  1.00  0.00     0.106 C 
HETATM   10  C11 UNL     1      30.657   8.031  48.144  1.00  0.00     0.221 C 
HETATM   11  N2  UNL     1      31.579   7.778  49.294  1.00  0.00    -0.256 NA
HETATM   12  C12 UNL     1      31.536   6.433  49.555  1.00  0.00     0.231 C 
HETATM   13  N3  UNL     1      31.399   5.362  48.579  1.00  0.00    -0.224 NA
HETATM   14  C13 UNL     1      31.303   5.706  47.308  1.00  0.00     0.143 C 
HETATM   15  N4  UNL     1      30.359   6.606  47.808  1.00  0.00    -0.307 N 
HETATM   16  H7  UNL     1      32.331   7.378  46.570  1.00  0.00     0.169 HD
ENDROOT
BRANCH  15  17
HETATM   17  C14 UNL     1      29.046   6.227  48.172  1.00  0.00     0.041 A 
HETATM   18  C15 UNL     1      28.219   7.317  48.115  1.00  0.00     0.030 A 
HETATM   19  C16 UNL     1      26.903   7.014  48.469  1.00  0.00     0.005 A 
HETATM   20  C17 UNL     1      26.409   5.791  48.842  1.00  0.00     0.037 A 
HETATM   21  C18 UNL     1      27.283   4.735  48.880  1.00  0.00     0.071 A 
HETATM   22  C20 UNL     1      28.616   4.984  48.534  1.00  0.00     0.066 A 
BRANCH  21  23
HETATM   23  O2  UNL     1      26.914   3.449  49.239  1.00  0.00    -0.341 OA
BRANCH  23  24
HETATM   24  C19 UNL     1      25.963   3.184  50.213  1.00  0.00     0.260 C 
HETATM   25 BR1  UNL     1      26.579   1.925  51.531  1.00  0.00    -0.067 Br
ENDBRANCH  23  24
ENDBRANCH  21  23
ENDBRANCH  15  17
BRANCH   1  26
HETATM   26  C3  UNL     1      31.963   3.504  46.462  1.00  0.00     0.011 C 
HETATM   27  C2  UNL     1      32.501   2.393  46.831  1.00  0.00    -0.030 C 
HETATM   28  C1  UNL     1      32.311   0.922  46.833  1.00  0.00     0.036 C 
ENDBRANCH   1  26
TORSDOF 4
ENDMDL
MODEL 7
REMARK VINA RESULT:      -7.9      2.871      5.393
REMARK  4 active torsions:
REMARK  status: ('A' for Active; 'I' for Inactive)
REMARK    1  A    between atoms: C3_3  and  C4_4 
REMARK    2  A    between atoms: N4_18  and  C14_19 
REMARK    3  A    between atoms: C18_23  and  O2_24 
REMARK    4  A    between atoms: O2_24  and  C19_25 
ROOT
HETATM    1  C4  UNL     1      25.825   2.494  50.876  1.00  0.00     0.015 C 
HETATM    2  C5  UNL     1      26.388   1.448  51.444  1.00  0.00     0.089 C 
HETATM    3  C6  UNL     1      25.674   0.483  52.320  1.00  0.00     0.246 C 
HETATM    4  O1  UNL     1      25.708  -0.539  52.977  1.00  0.00    -0.268 OA
HETATM    5  N1  UNL     1      24.324   0.563  52.742  1.00  0.00    -0.328 N 
HETATM    6  C7  UNL     1      22.936   0.646  53.174  1.00  0.00     0.012 C 
HETATM    7  C8  UNL     1      22.549  -0.480  53.698  1.00  0.00    -0.006 C 
HETATM    8  C9  UNL     1      21.226  -0.794  54.249  1.00  0.00     0.038 C 
HETATM    9  C10 UNL     1      22.187   1.934  53.013  1.00  0.00     0.106 C 
HETATM   10  C11 UNL     1      22.087   2.552  51.743  1.00  0.00     0.221 C 
HETATM   11  N2  UNL     1      21.867   1.720  50.521  1.00  0.00    -0.256 NA
HETATM   12  C12 UNL     1      22.625   2.270  49.519  1.00  0.00     0.231 C 
HETATM   13  N3  UNL     1      23.934   2.891  49.662  1.00  0.00    -0.224 NA
HETATM   14  C13 UNL     1      24.455   2.941  50.873  1.00  0.00     0.143 C 
HETATM   15  N4  UNL     1      23.185   3.412  51.207  1.00  0.00    -0.307 N 
HETATM   16  H7  UNL     1      24.114   1.396  52.249  1.00  0.00     0.169 HD
ENDROOT
BRANCH  15  17
HETATM   17  C14 UNL     1      22.758   4.737  50.951  1.00  0.00     0.041 A 
HETATM   18  C15 UNL     1      23.796   5.604  51.164  1.00  0.00     0.030 A 
HETATM   19  C16 UNL     1      23.442   6.936  50.934  1.00  0.00     0.005 A 
HETATM   20  C17 UNL     1      22.217   7.406  50.536  1.00  0.00     0.037 A 
HETATM   21  C18 UNL     1      21.216   6.491  50.337  1.00  0.00     0.071 A 
HETATM   22  C20 UNL     1      21.518   5.142  50.555  1.00  0.00     0.066 A 
BRANCH  21  23
HETATM   23  O2  UNL     1      19.935   6.833  49.937  1.00  0.00    -0.341 OA
BRANCH  23  24
HETATM   24  C19 UNL     1      19.672   7.893  49.081  1.00  0.00     0.260 C 
HETATM   25 BR1  UNL     1      19.262   9.522  50.019  1.00  0.00    -0.067 Br
ENDBRANCH  23  24
ENDBRANCH  21  23
ENDBRANCH  15  17
BRANCH   1  26
HETATM   26  C3  UNL     1      26.751   3.268  50.082  1.00  0.00     0.011 C 
HETATM   27  C2  UNL     1      26.805   4.322  49.344  1.00  0.00    -0.030 C 
HETATM   28  C1  UNL     1      27.716   5.150  48.516  1.00  0.00     0.036 C 
ENDBRANCH   1  26
TORSDOF 4
ENDMDL
MODEL 8
REMARK VINA RESULT:      -7.8      2.344      5.097
REMARK  4 active torsions:
REMARK  status: ('A' for Active; 'I' for Inactive)
REMARK    1  A    between atoms: C3_3  and  C4_4 
REMARK    2  A    between atoms: N4_18  and  C14_19 
REMARK    3  A    between atoms: C18_23  and  O2_24 
REMARK    4  A    between atoms: O2_24  and  C19_25 
ROOT
HETATM    1  C4  UNL     1      24.092   0.848  52.938  1.00  0.00     0.015 C 
HETATM    2  C5  UNL     1      23.827  -0.272  53.578  1.00  0.00     0.089 C 
HETATM    3  C6  UNL     1      22.467  -0.856  53.719  1.00  0.00     0.246 C 
HETATM    4  O1  UNL     1      21.769  -1.766  54.121  1.00  0.00    -0.268 OA
HETATM    5  N1  UNL     1      21.252  -0.286  53.266  1.00  0.00    -0.328 N 
HETATM    6  C7  UNL     1      20.003   0.298  52.800  1.00  0.00     0.012 C 
HETATM    7  C8  UNL     1      19.043  -0.578  52.833  1.00  0.00    -0.006 C 
HETATM    8  C9  UNL     1      17.642  -0.375  52.444  1.00  0.00     0.038 C 
HETATM    9  C10 UNL     1      19.965   1.744  52.406  1.00  0.00     0.106 C 
HETATM   10  C11 UNL     1      20.854   2.244  51.423  1.00  0.00     0.221 C 
HETATM   11  N2  UNL     1      21.160   1.428  50.208  1.00  0.00    -0.256 NA
HETATM   12  C12 UNL     1      22.493   1.597  49.936  1.00  0.00     0.231 C 
HETATM   13  N3  UNL     1      23.565   1.750  50.909  1.00  0.00    -0.224 NA
HETATM   14  C13 UNL     1      23.235   1.728  52.186  1.00  0.00     0.143 C 
HETATM   15  N4  UNL     1      22.256   2.630  51.765  1.00  0.00    -0.307 N 
HETATM   16  H7  UNL     1      21.662   0.520  52.866  1.00  0.00     0.169 HD
ENDROOT
BRANCH  15  17
HETATM   17  C14 UNL     1      22.524   3.992  51.492  1.00  0.00     0.041 A 
HETATM   18  C15 UNL     1      21.348   4.687  51.414  1.00  0.00     0.030 A 
HETATM   19  C16 UNL     1      21.538   6.043  51.140  1.00  0.00     0.005 A 
HETATM   20  C17 UNL     1      22.735   6.687  50.958  1.00  0.00     0.037 A 
HETATM   21  C18 UNL     1      23.881   5.940  51.049  1.00  0.00     0.071 A 
HETATM   22  C20 UNL     1      23.746   4.574  51.321  1.00  0.00     0.066 A 
BRANCH  21  23
HETATM   23  O2  UNL     1      25.152   6.466  50.885  1.00  0.00    -0.341 OA
BRANCH  23  24
HETATM   24  C19 UNL     1      25.559   7.102  49.721  1.00  0.00     0.260 C 
HETATM   25 BR1  UNL     1      26.739   6.018  48.656  1.00  0.00    -0.067 Br
ENDBRANCH  23  24
ENDBRANCH  21  23
ENDBRANCH  15  17
BRANCH   1  26
HETATM   26  C3  UNL     1      25.496   1.188  52.961  1.00  0.00     0.011 C 
HETATM   27  C2  UNL     1      26.349   1.889  53.623  1.00  0.00    -0.030 C 
HETATM   28  C1  UNL     1      27.782   2.270  53.689  1.00  0.00     0.036 C 
ENDBRANCH   1  26
TORSDOF 4
ENDMDL
MODEL 9
REMARK VINA RESULT:      -7.7      3.058      3.998
REMARK  4 active torsions:
REMARK  status: ('A' for Active; 'I' for Inactive)
REMARK    1  A    between atoms: C3_3  and  C4_4 
REMARK    2  A    between atoms: N4_18  and  C14_19 
REMARK    3  A    between atoms: C18_23  and  O2_24 
REMARK    4  A    between atoms: O2_24  and  C19_25 
ROOT
HETATM    1  C4  UNL     1      24.084   0.897  52.718  1.00  0.00     0.015 C 
HETATM    2  C5  UNL     1      25.388   0.790  52.865  1.00  0.00     0.089 C 
HETATM    3  C6  UNL     1      26.387   1.572  52.089  1.00  0.00     0.246 C 
HETATM    4  O1  UNL     1      27.552   1.849  51.888  1.00  0.00    -0.268 OA
HETATM    5  N1  UNL     1      26.115   2.483  51.039  1.00  0.00    -0.328 N 
HETATM    6  C7  UNL     1      25.837   3.420  49.962  1.00  0.00     0.012 C 
HETATM    7  C8  UNL     1      26.891   4.131  49.684  1.00  0.00    -0.006 C 
HETATM    8  C9  UNL     1      27.012   5.178  48.663  1.00  0.00     0.038 C 
HETATM    9  C10 UNL     1      24.483   3.426  49.318  1.00  0.00     0.106 C 
HETATM   10  C11 UNL     1      23.317   3.598  50.102  1.00  0.00     0.221 C 
HETATM   11  N2  UNL     1      23.311   4.581  51.229  1.00  0.00    -0.256 NA
HETATM   12  C12 UNL     1      22.599   4.013  52.254  1.00  0.00     0.231 C 
HETATM   13  N3  UNL     1      22.571   2.603  52.615  1.00  0.00    -0.224 NA
HETATM   14  C13 UNL     1      23.298   1.775  51.888  1.00  0.00     0.143 C 
HETATM   15  N4  UNL     1      22.691   2.453  50.830  1.00  0.00    -0.307 N 
HETATM   16  H7  UNL     1      25.131   2.389  51.076  1.00  0.00     0.169 HD
ENDROOT
BRANCH  15  17
HETATM   17  C14 UNL     1      21.360   2.211  50.417  1.00  0.00     0.041 A 
HETATM   18  C15 UNL     1      20.996   0.936  50.757  1.00  0.00     0.030 A 
HETATM   19  C16 UNL     1      19.690   0.627  50.373  1.00  0.00     0.005 A 
HETATM   20  C17 UNL     1      18.804   1.449  49.725  1.00  0.00     0.037 A 
HETATM   21  C18 UNL     1      19.224   2.716  49.410  1.00  0.00     0.071 A 
HETATM   22  C20 UNL     1      20.527   3.077  49.773  1.00  0.00     0.066 A 
BRANCH  21  23
HETATM   23  O2  UNL     1      18.430   3.644  48.757  1.00  0.00    -0.341 OA
BRANCH  23  24
HETATM   24  C19 UNL     1      17.669   4.589  49.429  1.00  0.00     0.260 C 
HETATM   25 BR1  UNL     1      15.789   4.180  49.409  1.00  0.00    -0.067 Br
ENDBRANCH  23  24
ENDBRANCH  21  23
ENDBRANCH  15  17
BRANCH   1  26
HETATM   26  C3  UNL     1      23.346   0.015  53.593  1.00  0.00     0.011 C 
HETATM   27  C2  UNL     1      22.402  -0.861  53.574  1.00  0.00    -0.030 C 
HETATM   28  C1  UNL     1      21.616  -1.783  54.431  1.00  0.00     0.036 C 
ENDBRANCH   1  26
TORSDOF 4
ENDMDL
