MODEL 1
REMARK VINA RESULT:      -8.6      0.000      0.000
REMARK  3 active torsions:
REMARK  status: ('A' for Active; 'I' for Inactive)
REMARK    1  A    between atoms: C7_7  and  N1_8 
REMARK    2  A    between atoms: N1_8  and  C8_9 
REMARK    3  A    between atoms: C15_21  and  O3_22 
ROOT
HETATM    1  C1  UNL     1      30.222   5.821  47.862  1.00  0.00     0.018 C 
HETATM    2  C2  UNL     1      29.078   5.662  48.170  1.00  0.00    -0.078 C 
HETATM    3  C3  UNL     1      27.712   5.487  48.558  1.00  0.00     0.019 A 
HETATM    4  C4  UNL     1      26.853   6.563  48.515  1.00  0.00     0.021 A 
HETATM    5  C5  UNL     1      25.528   6.413  48.891  1.00  0.00     0.004 A 
HETATM    6  C6  UNL     1      24.996   5.218  49.318  1.00  0.00     0.029 A 
HETATM    7  C7  UNL     1      25.899   4.174  49.340  1.00  0.00     0.035 A 
HETATM    8  C18 UNL     1      27.224   4.275  48.977  1.00  0.00     0.050 A 
ENDROOT
BRANCH   7   9
HETATM    9  N1  UNL     1      25.456   2.896  49.778  1.00  0.00    -0.340 N 
HETATM   10  H5  UNL     1      25.835   1.999  49.354  1.00  0.00     0.167 HD
BRANCH   9  11
HETATM   11  C8  UNL     1      24.535   2.394  50.739  1.00  0.00     0.144 A 
HETATM   12  N2  UNL     1      23.252   2.812  50.529  1.00  0.00    -0.223 NA
HETATM   13  C9  UNL     1      22.226   2.457  51.315  1.00  0.00     0.236 A 
HETATM   14  N3  UNL     1      22.476   1.641  52.374  1.00  0.00    -0.241 NA
HETATM   15  C10 UNL     1      23.738   1.219  52.594  1.00  0.00     0.077 A 
HETATM   16  C11 UNL     1      24.795   1.584  51.786  1.00  0.00     0.068 A 
HETATM   17  C17 UNL     1      23.884   0.435  53.650  1.00  0.00     0.072 A 
HETATM   18  P1  UNL     1      26.330   1.108  51.980  1.00  0.00     0.062 P 
HETATM   19  O1  UNL     1      27.407   2.330  52.307  1.00  0.00    -0.359 OA
HETATM   20  C14 UNL     1      26.278   0.079  53.445  1.00  0.00     0.128 A 
HETATM   21  H7  UNL     1      26.715   0.300  50.892  1.00  0.00     0.093 HD
HETATM   22  C12 UNL     1      28.262   2.010  53.330  1.00  0.00     0.199 C 
HETATM   23  C13 UNL     1      28.681   0.577  53.417  1.00  0.00     0.202 C 
HETATM   24  O2  UNL     1      27.572  -0.313  53.623  1.00  0.00    -0.344 OA
HETATM   25  C15 UNL     1      25.157  -0.123  54.058  1.00  0.00     0.106 A 
BRANCH  25  26
HETATM   26  O3  UNL     1      25.298  -0.937  55.160  1.00  0.00    -0.353 OA
HETATM   27  C16 UNL     1      24.300  -1.459  55.970  1.00  0.00     0.210 C 
ENDBRANCH  25  26
ENDBRANCH   9  11
ENDBRANCH   7   9
TORSDOF 3
ENDMDL
MODEL 2
REMARK VINA RESULT:      -8.4      3.864      6.206
REMARK  3 active torsions:
REMARK  status: ('A' for Active; 'I' for Inactive)
REMARK    1  A    between atoms: C7_7  and  N1_8 
REMARK    2  A    between atoms: N1_8  and  C8_9 
REMARK    3  A    between atoms: C15_21  and  O3_22 
ROOT
HETATM    1  C1  UNL     1      29.777  -2.327  53.491  1.00  0.00     0.018 C 
HETATM    2  C2  UNL     1      29.148  -1.318  53.357  1.00  0.00    -0.078 C 
HETATM    3  C3  UNL     1      28.395  -0.111  53.220  1.00  0.00     0.019 A 
HETATM    4  C4  UNL     1      28.957   1.085  53.608  1.00  0.00     0.021 A 
HETATM    5  C5  UNL     1      28.241   2.265  53.487  1.00  0.00     0.004 A 
HETATM    6  C6  UNL     1      26.960   2.322  52.987  1.00  0.00     0.029 A 
HETATM    7  C7  UNL     1      26.445   1.097  52.613  1.00  0.00     0.035 A 
HETATM    8  C18 UNL     1      27.118  -0.102  52.715  1.00  0.00     0.050 A 
ENDROOT
BRANCH   7   9
HETATM    9  N1  UNL     1      25.123   1.040  52.094  1.00  0.00    -0.340 N 
HETATM   10  H5  UNL     1      24.916   1.239  51.071  1.00  0.00     0.167 HD
BRANCH   9  11
HETATM   11  C8  UNL     1      23.824   0.761  52.602  1.00  0.00     0.144 A 
HETATM   12  N2  UNL     1      23.756  -0.411  53.298  1.00  0.00    -0.223 NA
HETATM   13  C9  UNL     1      22.628  -0.866  53.863  1.00  0.00     0.236 A 
HETATM   14  N3  UNL     1      21.497  -0.122  53.735  1.00  0.00    -0.241 NA
HETATM   15  C10 UNL     1      21.548   1.038  53.050  1.00  0.00     0.077 A 
HETATM   16  C11 UNL     1      22.708   1.507  52.468  1.00  0.00     0.068 A 
HETATM   17  C17 UNL     1      20.398   1.689  52.974  1.00  0.00     0.072 A 
HETATM   18  P1  UNL     1      22.849   2.893  51.645  1.00  0.00     0.062 P 
HETATM   19  O1  UNL     1      23.253   2.719  50.043  1.00  0.00    -0.359 OA
HETATM   20  C14 UNL     1      21.194   3.579  51.673  1.00  0.00     0.128 A 
HETATM   21  H7  UNL     1      23.698   3.774  52.344  1.00  0.00     0.093 HD
HETATM   22  C12 UNL     1      22.489   3.511  49.224  1.00  0.00     0.199 C 
HETATM   23  C13 UNL     1      22.096   4.845  49.774  1.00  0.00     0.202 C 
HETATM   24  O2  UNL     1      21.302   4.741  50.968  1.00  0.00    -0.344 OA
HETATM   25  C15 UNL     1      20.241   2.952  52.284  1.00  0.00     0.106 A 
BRANCH  25  26
HETATM   26  O3  UNL     1      19.038   3.619  52.208  1.00  0.00    -0.353 OA
HETATM   27  C16 UNL     1      17.985   3.385  51.336  1.00  0.00     0.210 C 
ENDBRANCH  25  26
ENDBRANCH   9  11
ENDBRANCH   7   9
TORSDOF 3
ENDMDL
MODEL 3
REMARK VINA RESULT:      -8.3      2.488      3.807
REMARK  3 active torsions:
REMARK  status: ('A' for Active; 'I' for Inactive)
REMARK    1  A    between atoms: C7_7  and  N1_8 
REMARK    2  A    between atoms: N1_8  and  C8_9 
REMARK    3  A    between atoms: C15_21  and  O3_22 
ROOT
HETATM    1  C1  UNL     1      30.533   5.515  47.825  1.00  0.00     0.018 C 
HETATM    2  C2  UNL     1      29.372   5.585  48.102  1.00  0.00    -0.078 C 
HETATM    3  C3  UNL     1      27.989   5.682  48.453  1.00  0.00     0.019 A 
HETATM    4  C4  UNL     1      27.350   6.898  48.353  1.00  0.00     0.021 A 
HETATM    5  C5  UNL     1      26.012   7.012  48.693  1.00  0.00     0.004 A 
HETATM    6  C6  UNL     1      25.253   5.953  49.137  1.00  0.00     0.029 A 
HETATM    7  C7  UNL     1      25.942   4.760  49.217  1.00  0.00     0.035 A 
HETATM    8  C18 UNL     1      27.271   4.598  48.891  1.00  0.00     0.050 A 
ENDROOT
BRANCH   7   9
HETATM    9  N1  UNL     1      25.255   3.604  49.677  1.00  0.00    -0.340 N 
HETATM   10  H5  UNL     1      24.395   3.230  49.177  1.00  0.00     0.167 HD
BRANCH   9  11
HETATM   11  C8  UNL     1      25.393   2.676  50.747  1.00  0.00     0.144 A 
HETATM   12  N2  UNL     1      26.683   2.515  51.161  1.00  0.00    -0.223 NA
HETATM   13  C9  UNL     1      27.039   1.691  52.156  1.00  0.00     0.236 A 
HETATM   14  N3  UNL     1      26.064   0.978  52.783  1.00  0.00    -0.241 NA
HETATM   15  C10 UNL     1      24.784   1.127  52.385  1.00  0.00     0.077 A 
HETATM   16  C11 UNL     1      24.417   1.975  51.361  1.00  0.00     0.068 A 
HETATM   17  C17 UNL     1      23.909   0.389  53.049  1.00  0.00     0.072 A 
HETATM   18  P1  UNL     1      22.904   2.214  50.839  1.00  0.00     0.062 P 
HETATM   19  O1  UNL     1      22.623   1.752  49.268  1.00  0.00    -0.359 OA
HETATM   20  C14 UNL     1      21.919   1.126  51.867  1.00  0.00     0.128 A 
HETATM   21  H7  UNL     1      22.515   3.541  51.110  1.00  0.00     0.093 HD
HETATM   22  C12 UNL     1      21.457   1.042  49.136  1.00  0.00     0.199 C 
HETATM   23  C13 UNL     1      20.328   1.452  50.027  1.00  0.00     0.202 C 
HETATM   24  O2  UNL     1      20.644   1.311  51.422  1.00  0.00    -0.344 OA
HETATM   25  C15 UNL     1      22.486   0.402  52.776  1.00  0.00     0.106 A 
BRANCH  25  26
HETATM   26  O3  UNL     1      21.584  -0.372  53.472  1.00  0.00    -0.353 OA
HETATM   27  C16 UNL     1      21.684  -0.838  54.775  1.00  0.00     0.210 C 
ENDBRANCH  25  26
ENDBRANCH   9  11
ENDBRANCH   7   9
TORSDOF 3
ENDMDL
MODEL 4
REMARK VINA RESULT:      -8.3      4.416      6.642
REMARK  3 active torsions:
REMARK  status: ('A' for Active; 'I' for Inactive)
REMARK    1  A    between atoms: C7_7  and  N1_8 
REMARK    2  A    between atoms: N1_8  and  C8_9 
REMARK    3  A    between atoms: C15_21  and  O3_22 
ROOT
HETATM    1  C1  UNL     1      29.000  -2.442  53.084  1.00  0.00     0.018 C 
HETATM    2  C2  UNL     1      28.341  -1.445  53.130  1.00  0.00    -0.078 C 
HETATM    3  C3  UNL     1      27.558  -0.251  53.210  1.00  0.00     0.019 A 
HETATM    4  C4  UNL     1      28.178   0.948  53.479  1.00  0.00     0.021 A 
HETATM    5  C5  UNL     1      27.434   2.114  53.565  1.00  0.00     0.004 A 
HETATM    6  C6  UNL     1      26.070   2.153  53.390  1.00  0.00     0.029 A 
HETATM    7  C7  UNL     1      25.500   0.925  53.121  1.00  0.00     0.035 A 
HETATM    8  C18 UNL     1      26.197  -0.260  53.028  1.00  0.00     0.050 A 
ENDROOT
BRANCH   7   9
HETATM    9  N1  UNL     1      24.093   0.850  52.936  1.00  0.00    -0.340 N 
HETATM   10  H5  UNL     1      23.584   1.496  52.263  1.00  0.00     0.167 HD
BRANCH   9  11
HETATM   11  C8  UNL     1      23.022   0.068  53.451  1.00  0.00     0.144 A 
HETATM   12  N2  UNL     1      23.398  -0.762  54.467  1.00  0.00    -0.223 NA
HETATM   13  C9  UNL     1      22.548  -1.585  55.096  1.00  0.00     0.236 A 
HETATM   14  N3  UNL     1      21.247  -1.595  54.701  1.00  0.00    -0.241 NA
HETATM   15  C10 UNL     1      20.860  -0.781  53.698  1.00  0.00     0.077 A 
HETATM   16  C11 UNL     1      21.734   0.067  53.049  1.00  0.00     0.068 A 
HETATM   17  C17 UNL     1      19.578  -0.865  53.379  1.00  0.00     0.072 A 
HETATM   18  P1  UNL     1      21.340   1.079  51.850  1.00  0.00     0.062 P 
HETATM   19  O1  UNL     1      22.078   0.763  50.395  1.00  0.00    -0.359 OA
HETATM   20  C14 UNL     1      19.591   0.788  51.599  1.00  0.00     0.128 A 
HETATM   21  H7  UNL     1      21.503   2.410  52.282  1.00  0.00     0.093 HD
HETATM   22  C12 UNL     1      21.199   0.818  49.343  1.00  0.00     0.199 C 
HETATM   23  C13 UNL     1      20.111   1.839  49.443  1.00  0.00     0.202 C 
HETATM   24  O2  UNL     1      19.255   1.627  50.578  1.00  0.00    -0.344 OA
HETATM   25  C15 UNL     1      18.964  -0.076  52.331  1.00  0.00     0.106 A 
BRANCH  25  26
HETATM   26  O3  UNL     1      17.629  -0.173  52.006  1.00  0.00    -0.353 OA
HETATM   27  C16 UNL     1      16.595  -0.670  52.785  1.00  0.00     0.210 C 
ENDBRANCH  25  26
ENDBRANCH   9  11
ENDBRANCH   7   9
TORSDOF 3
ENDMDL
MODEL 5
REMARK VINA RESULT:      -8.2      2.582      6.125
REMARK  3 active torsions:
REMARK  status: ('A' for Active; 'I' for Inactive)
REMARK    1  A    between atoms: C7_7  and  N1_8 
REMARK    2  A    between atoms: N1_8  and  C8_9 
REMARK    3  A    between atoms: C15_21  and  O3_22 
ROOT
HETATM    1  C1  UNL     1      29.024  -2.766  53.100  1.00  0.00     0.018 C 
HETATM    2  C2  UNL     1      28.715  -1.619  53.235  1.00  0.00    -0.078 C 
HETATM    3  C3  UNL     1      28.352  -0.248  53.421  1.00  0.00     0.019 A 
HETATM    4  C4  UNL     1      29.332   0.680  53.697  1.00  0.00     0.021 A 
HETATM    5  C5  UNL     1      28.998   2.011  53.885  1.00  0.00     0.004 A 
HETATM    6  C6  UNL     1      27.708   2.484  53.810  1.00  0.00     0.029 A 
HETATM    7  C7  UNL     1      26.767   1.513  53.530  1.00  0.00     0.035 A 
HETATM    8  C18 UNL     1      27.051   0.178  53.337  1.00  0.00     0.050 A 
ENDROOT
BRANCH   7   9
HETATM    9  N1  UNL     1      25.400   1.891  53.442  1.00  0.00    -0.340 N 
HETATM   10  H5  UNL     1      24.973   2.599  54.109  1.00  0.00     0.167 HD
BRANCH   9  11
HETATM   11  C8  UNL     1      24.287   1.562  52.619  1.00  0.00     0.144 A 
HETATM   12  N2  UNL     1      23.562   0.505  53.088  1.00  0.00    -0.223 NA
HETATM   13  C9  UNL     1      22.473   0.029  52.469  1.00  0.00     0.236 A 
HETATM   14  N3  UNL     1      22.071   0.629  51.316  1.00  0.00    -0.241 NA
HETATM   15  C10 UNL     1      22.777   1.674  50.840  1.00  0.00     0.077 A 
HETATM   16  C11 UNL     1      23.899   2.165  51.476  1.00  0.00     0.068 A 
HETATM   17  C17 UNL     1      22.315   2.188  49.712  1.00  0.00     0.072 A 
HETATM   18  P1  UNL     1      24.786   3.422  50.974  1.00  0.00     0.062 P 
HETATM   19  O1  UNL     1      26.355   3.054  50.567  1.00  0.00    -0.359 OA
HETATM   20  C14 UNL     1      23.982   3.936  49.458  1.00  0.00     0.128 A 
HETATM   21  H7  UNL     1      24.682   4.476  51.903  1.00  0.00     0.093 HD
HETATM   22  C12 UNL     1      26.736   3.636  49.385  1.00  0.00     0.199 C 
HETATM   23  C13 UNL     1      26.170   4.991  49.102  1.00  0.00     0.202 C 
HETATM   24  O2  UNL     1      24.735   4.985  49.020  1.00  0.00    -0.344 OA
HETATM   25  C15 UNL     1      22.929   3.314  49.038  1.00  0.00     0.106 A 
BRANCH  25  26
HETATM   26  O3  UNL     1      22.440   3.839  47.862  1.00  0.00    -0.353 OA
HETATM   27  C16 UNL     1      21.304   4.615  47.680  1.00  0.00     0.210 C 
ENDBRANCH  25  26
ENDBRANCH   9  11
ENDBRANCH   7   9
TORSDOF 3
ENDMDL
MODEL 6
REMARK VINA RESULT:      -7.9      3.134      7.872
REMARK  3 active torsions:
REMARK  status: ('A' for Active; 'I' for Inactive)
REMARK    1  A    between atoms: C7_7  and  N1_8 
REMARK    2  A    between atoms: N1_8  and  C8_9 
REMARK    3  A    between atoms: C15_21  and  O3_22 
ROOT
HETATM    1  C1  UNL     1      17.567  -0.613  52.268  1.00  0.00     0.018 C 
HETATM    2  C2  UNL     1      18.684  -0.594  52.696  1.00  0.00    -0.078 C 
HETATM    3  C3  UNL     1      20.010  -0.567  53.230  1.00  0.00     0.019 A 
HETATM    4  C4  UNL     1      20.413  -1.564  54.091  1.00  0.00     0.021 A 
HETATM    5  C5  UNL     1      21.692  -1.552  54.622  1.00  0.00     0.004 A 
HETATM    6  C6  UNL     1      22.619  -0.576  54.334  1.00  0.00     0.029 A 
HETATM    7  C7  UNL     1      22.164   0.397  53.467  1.00  0.00     0.035 A 
HETATM    8  C18 UNL     1      20.902   0.427  52.915  1.00  0.00     0.050 A 
ENDROOT
BRANCH   7   9
HETATM    9  N1  UNL     1      23.038   1.460  53.112  1.00  0.00    -0.340 N 
HETATM   10  H5  UNL     1      22.758   2.477  53.235  1.00  0.00     0.167 HD
BRANCH   9  11
HETATM   11  C8  UNL     1      24.348   1.585  52.572  1.00  0.00     0.144 A 
HETATM   12  N2  UNL     1      25.250   0.727  53.133  1.00  0.00    -0.223 NA
HETATM   13  C9  UNL     1      26.539   0.676  52.771  1.00  0.00     0.236 A 
HETATM   14  N3  UNL     1      26.970   1.522  51.798  1.00  0.00    -0.241 NA
HETATM   15  C10 UNL     1      26.092   2.376  51.233  1.00  0.00     0.077 A 
HETATM   16  C11 UNL     1      24.765   2.430  51.605  1.00  0.00     0.068 A 
HETATM   17  C17 UNL     1      26.604   3.163  50.301  1.00  0.00     0.072 A 
HETATM   18  P1  UNL     1      23.652   3.415  50.965  1.00  0.00     0.062 P 
HETATM   19  O1  UNL     1      22.998   4.516  52.024  1.00  0.00    -0.359 OA
HETATM   20  C14 UNL     1      24.566   4.366  49.754  1.00  0.00     0.128 A 
HETATM   21  H7  UNL     1      22.683   2.654  50.281  1.00  0.00     0.093 HD
HETATM   22  C12 UNL     1      22.928   5.776  51.488  1.00  0.00     0.199 C 
HETATM   23  C13 UNL     1      22.634   5.856  50.024  1.00  0.00     0.202 C 
HETATM   24  O2  UNL     1      23.637   5.210  49.222  1.00  0.00    -0.344 OA
HETATM   25  C15 UNL     1      25.829   4.148  49.576  1.00  0.00     0.106 A 
BRANCH  25  26
HETATM   26  O3  UNL     1      26.373   4.964  48.609  1.00  0.00    -0.353 OA
HETATM   27  C16 UNL     1      27.033   6.172  48.783  1.00  0.00     0.210 C 
ENDBRANCH  25  26
ENDBRANCH   9  11
ENDBRANCH   7   9
TORSDOF 3
ENDMDL
MODEL 7
REMARK VINA RESULT:      -7.8      3.524      6.473
REMARK  3 active torsions:
REMARK  status: ('A' for Active; 'I' for Inactive)
REMARK    1  A    between atoms: C7_7  and  N1_8 
REMARK    2  A    between atoms: N1_8  and  C8_9 
REMARK    3  A    between atoms: C15_21  and  O3_22 
ROOT
HETATM    1  C1  UNL     1      28.313  -2.775  52.851  1.00  0.00     0.018 C 
HETATM    2  C2  UNL     1      27.769  -1.722  53.007  1.00  0.00    -0.078 C 
HETATM    3  C3  UNL     1      27.105  -0.472  53.213  1.00  0.00     0.019 A 
HETATM    4  C4  UNL     1      27.362   0.250  54.357  1.00  0.00     0.021 A 
HETATM    5  C5  UNL     1      26.725   1.461  54.576  1.00  0.00     0.004 A 
HETATM    6  C6  UNL     1      25.822   2.009  53.693  1.00  0.00     0.029 A 
HETATM    7  C7  UNL     1      25.603   1.246  52.564  1.00  0.00     0.035 A 
HETATM    8  C18 UNL     1      26.212   0.036  52.304  1.00  0.00     0.050 A 
ENDROOT
BRANCH   7   9
HETATM    9  N1  UNL     1      24.679   1.714  51.591  1.00  0.00    -0.340 N 
HETATM   10  H5  UNL     1      24.509   1.187  50.684  1.00  0.00     0.167 HD
BRANCH   9  11
HETATM   11  C8  UNL     1      23.798   2.822  51.451  1.00  0.00     0.144 A 
HETATM   12  N2  UNL     1      24.435   3.980  51.111  1.00  0.00    -0.223 NA
HETATM   13  C9  UNL     1      23.797   5.144  50.927  1.00  0.00     0.236 A 
HETATM   14  N3  UNL     1      22.446   5.171  51.088  1.00  0.00    -0.241 NA
HETATM   15  C10 UNL     1      21.802   4.036  51.423  1.00  0.00     0.077 A 
HETATM   16  C11 UNL     1      22.458   2.837  51.613  1.00  0.00     0.068 A 
HETATM   17  C17 UNL     1      20.492   4.161  51.564  1.00  0.00     0.072 A 
HETATM   18  P1  UNL     1      21.753   1.434  52.003  1.00  0.00     0.062 P 
HETATM   19  O1  UNL     1      22.198   0.810  53.477  1.00  0.00    -0.359 OA
HETATM   20  C14 UNL     1      20.016   1.850  52.138  1.00  0.00     0.128 A 
HETATM   21  H7  UNL     1      21.901   0.519  50.941  1.00  0.00     0.093 HD
HETATM   22  C12 UNL     1      21.122   0.368  54.202  1.00  0.00     0.199 C 
HETATM   23  C13 UNL     1      20.004  -0.244  53.419  1.00  0.00     0.202 C 
HETATM   24  O2  UNL     1      19.417   0.675  52.482  1.00  0.00    -0.344 OA
HETATM   25  C15 UNL     1      19.619   3.062  51.920  1.00  0.00     0.106 A 
BRANCH  25  26
HETATM   26  O3  UNL     1      18.257   3.205  52.066  1.00  0.00    -0.353 OA
HETATM   27  C16 UNL     1      17.300   3.329  51.070  1.00  0.00     0.210 C 
ENDBRANCH  25  26
ENDBRANCH   9  11
ENDBRANCH   7   9
TORSDOF 3
ENDMDL
MODEL 8
REMARK VINA RESULT:      -7.8      7.079      9.566
REMARK  3 active torsions:
REMARK  status: ('A' for Active; 'I' for Inactive)
REMARK    1  A    between atoms: C7_7  and  N1_8 
REMARK    2  A    between atoms: N1_8  and  C8_9 
REMARK    3  A    between atoms: C15_21  and  O3_22 
ROOT
HETATM    1  C1  UNL     1      32.051   0.504  46.690  1.00  0.00     0.018 C 
HETATM    2  C2  UNL     1      32.479   1.572  47.016  1.00  0.00    -0.078 C 
HETATM    3  C3  UNL     1      32.996   2.840  47.429  1.00  0.00     0.019 A 
HETATM    4  C4  UNL     1      34.339   2.966  47.705  1.00  0.00     0.021 A 
HETATM    5  C5  UNL     1      34.857   4.185  48.111  1.00  0.00     0.004 A 
HETATM    6  C6  UNL     1      34.090   5.319  48.259  1.00  0.00     0.029 A 
HETATM    7  C7  UNL     1      32.753   5.137  47.969  1.00  0.00     0.035 A 
HETATM    8  C18 UNL     1      32.193   3.945  47.564  1.00  0.00     0.050 A 
ENDROOT
BRANCH   7   9
HETATM    9  N1  UNL     1      31.869   6.242  48.102  1.00  0.00    -0.340 N 
HETATM   10  H5  UNL     1      32.221   7.244  48.084  1.00  0.00     0.167 HD
BRANCH   9  11
HETATM   11  C8  UNL     1      30.469   6.431  48.275  1.00  0.00     0.144 A 
HETATM   12  N2  UNL     1      29.753   5.272  48.196  1.00  0.00    -0.223 NA
HETATM   13  C9  UNL     1      28.420   5.221  48.331  1.00  0.00     0.236 A 
HETATM   14  N3  UNL     1      27.750   6.383  48.557  1.00  0.00    -0.241 NA
HETATM   15  C10 UNL     1      28.443   7.536  48.638  1.00  0.00     0.077 A 
HETATM   16  C11 UNL     1      29.815   7.590  48.499  1.00  0.00     0.068 A 
HETATM   17  C17 UNL     1      27.706   8.613  48.854  1.00  0.00     0.072 A 
HETATM   18  P1  UNL     1      30.715   8.931  48.597  1.00  0.00     0.062 P 
HETATM   19  O1  UNL     1      31.520   9.339  47.202  1.00  0.00    -0.359 OA
HETATM   20  C14 UNL     1      29.517  10.231  48.884  1.00  0.00     0.128 A 
HETATM   21  H7  UNL     1      31.555   8.855  49.726  1.00  0.00     0.093 HD
HETATM   22  C12 UNL     1      31.410  10.674  46.909  1.00  0.00     0.199 C 
HETATM   23  C13 UNL     1      31.383  11.607  48.078  1.00  0.00     0.202 C 
HETATM   24  O2  UNL     1      30.267  11.368  48.952  1.00  0.00    -0.344 OA
HETATM   25  C15 UNL     1      28.258   9.947  48.973  1.00  0.00     0.106 A 
BRANCH  25  26
HETATM   26  O3  UNL     1      27.480  11.062  49.195  1.00  0.00    -0.353 OA
HETATM   27  C16 UNL     1      26.620  11.694  48.309  1.00  0.00     0.210 C 
ENDBRANCH  25  26
ENDBRANCH   9  11
ENDBRANCH   7   9
TORSDOF 3
ENDMDL
MODEL 9
REMARK VINA RESULT:      -7.8      1.971      2.665
REMARK  3 active torsions:
REMARK  status: ('A' for Active; 'I' for Inactive)
REMARK    1  A    between atoms: C7_7  and  N1_8 
REMARK    2  A    between atoms: N1_8  and  C8_9 
REMARK    3  A    between atoms: C15_21  and  O3_22 
ROOT
HETATM    1  C1  UNL     1      28.127   5.774  48.224  1.00  0.00     0.018 C 
HETATM    2  C2  UNL     1      27.086   5.832  48.810  1.00  0.00    -0.078 C 
HETATM    3  C3  UNL     1      25.854   5.900  49.532  1.00  0.00     0.019 A 
HETATM    4  C4  UNL     1      25.567   7.022  50.277  1.00  0.00     0.021 A 
HETATM    5  C5  UNL     1      24.380   7.104  50.987  1.00  0.00     0.004 A 
HETATM    6  C6  UNL     1      23.435   6.104  50.995  1.00  0.00     0.029 A 
HETATM    7  C7  UNL     1      23.772   5.004  50.232  1.00  0.00     0.035 A 
HETATM    8  C18 UNL     1      24.939   4.877  49.511  1.00  0.00     0.050 A 
ENDROOT
BRANCH   7   9
HETATM    9  N1  UNL     1      22.871   3.906  50.181  1.00  0.00    -0.340 N 
HETATM   10  H5  UNL     1      22.806   3.277  49.327  1.00  0.00     0.167 HD
BRANCH   9  11
HETATM   11  C8  UNL     1      21.903   3.322  51.044  1.00  0.00     0.144 A 
HETATM   12  N2  UNL     1      20.698   3.963  51.019  1.00  0.00    -0.223 NA
HETATM   13  C9  UNL     1      19.646   3.578  51.755  1.00  0.00     0.236 A 
HETATM   14  N3  UNL     1      19.786   2.497  52.567  1.00  0.00    -0.241 NA
HETATM   15  C10 UNL     1      20.970   1.852  52.602  1.00  0.00     0.077 A 
HETATM   16  C11 UNL     1      22.054   2.247  51.846  1.00  0.00     0.068 A 
HETATM   17  C17 UNL     1      21.013   0.817  53.425  1.00  0.00     0.072 A 
HETATM   18  P1  UNL     1      23.498   1.517  51.827  1.00  0.00     0.062 P 
HETATM   19  O1  UNL     1      24.761   2.447  52.377  1.00  0.00    -0.359 OA
HETATM   20  C14 UNL     1      23.316   0.174  52.998  1.00  0.00     0.128 A 
HETATM   21  H7  UNL     1      23.728   0.958  50.554  1.00  0.00     0.093 HD
HETATM   22  C12 UNL     1      25.577   1.759  53.238  1.00  0.00     0.199 C 
HETATM   23  C13 UNL     1      25.767   0.304  52.950  1.00  0.00     0.202 C 
HETATM   24  O2  UNL     1      24.535  -0.436  52.998  1.00  0.00    -0.344 OA
HETATM   25  C15 UNL     1      22.191  -0.007  53.609  1.00  0.00     0.106 A 
BRANCH  25  26
HETATM   26  O3  UNL     1      22.225  -1.081  54.470  1.00  0.00    -0.353 OA
HETATM   27  C16 UNL     1      23.101  -1.304  55.523  1.00  0.00     0.210 C 
ENDBRANCH  25  26
ENDBRANCH   9  11
ENDBRANCH   7   9
TORSDOF 3
ENDMDL
