MODEL 1
REMARK VINA RESULT:      -7.3      0.000      0.000
REMARK  4 active torsions:
REMARK  status: ('A' for Active; 'I' for Inactive)
REMARK    1  A    between atoms: C2_2  and  P1_3 
REMARK    2  A    between atoms: P1_3  and  C3_4 
REMARK    3  A    between atoms: C9_13  and  N3_14 
REMARK    4  A    between atoms: N3_14  and  C10_15 
ROOT
HETATM    1  P1  UNL     1      27.031  -0.181  53.302  1.00  0.00    -0.069 P 
HETATM    2  C4  UNL     1      25.608  -0.639  54.260  1.00  0.00     0.007 A 
HETATM    3  C5  UNL     1      24.445  -0.135  53.980  1.00  0.00     0.018 A 
HETATM    4  C6  UNL     1      24.306   0.812  52.874  1.00  0.00     0.035 A 
HETATM    5  C7  UNL     1      25.285   1.261  52.054  1.00  0.00     0.054 A 
HETATM    6  N1  UNL     1      24.978   2.145  51.088  1.00  0.00    -0.245 NA
HETATM    7  C8  UNL     1      23.772   2.642  50.845  1.00  0.00     0.235 A 
HETATM    8  N2  UNL     1      22.779   2.213  51.645  1.00  0.00    -0.224 NA
HETATM    9  C9  UNL     1      23.050   1.329  52.622  1.00  0.00     0.141 A 
HETATM   10  C15 UNL     1      26.741   0.924  52.029  1.00  0.00     0.097 A 
HETATM   11  H4  UNL     1      27.067   0.743  54.165  1.00  0.00     0.064 HD
ENDROOT
BRANCH   9  12
HETATM   12  N3  UNL     1      21.923   0.952  53.399  1.00  0.00    -0.339 N 
HETATM   13  H9  UNL     1      21.622   0.959  54.394  1.00  0.00     0.167 HD
BRANCH  12  14
HETATM   14  C10 UNL     1      20.734   0.369  52.884  1.00  0.00     0.046 C 
HETATM   15  C11 UNL     1      20.101  -0.618  53.495  1.00  0.00     0.004 C 
HETATM   16  C12 UNL     1      18.853  -0.759  53.081  1.00  0.00     0.033 C 
HETATM   17  C13 UNL     1      18.775  -0.054  51.783  1.00  0.00     0.014 C 
HETATM   18 BR1  UNL     1      17.405  -0.015  50.430  1.00  0.00    -0.051 Br
HETATM   19  C14 UNL     1      19.934   0.619  51.697  1.00  0.00     0.049 C 
ENDBRANCH  12  14
ENDBRANCH   9  12
BRANCH   1  20
HETATM   20  C2  UNL     1      28.595  -0.502  53.922  1.00  0.00    -0.004 C 
HETATM   21  C1  UNL     1      29.748  -0.062  53.535  1.00  0.00     0.012 C 
ENDBRANCH   1  20
BRANCH   1  22
HETATM   22  C3  UNL     1      26.951  -1.645  52.588  1.00  0.00     0.258 C 
HETATM   23  O1  UNL     1      27.408  -2.753  52.857  1.00  0.00    -0.302 OA
ENDBRANCH   1  22
TORSDOF 4
ENDMDL
MODEL 2
REMARK VINA RESULT:      -7.2      2.799      4.532
REMARK  4 active torsions:
REMARK  status: ('A' for Active; 'I' for Inactive)
REMARK    1  A    between atoms: C2_2  and  P1_3 
REMARK    2  A    between atoms: P1_3  and  C3_4 
REMARK    3  A    between atoms: C9_13  and  N3_14 
REMARK    4  A    between atoms: N3_14  and  C10_15 
ROOT
HETATM    1  P1  UNL     1      27.622  -0.244  53.349  1.00  0.00    -0.069 P 
HETATM    2  C4  UNL     1      27.773   1.457  52.866  1.00  0.00     0.007 A 
HETATM    3  C5  UNL     1      26.710   2.184  52.699  1.00  0.00     0.018 A 
HETATM    4  C6  UNL     1      25.385   1.600  52.909  1.00  0.00     0.035 A 
HETATM    5  C7  UNL     1      25.101   0.328  53.274  1.00  0.00     0.054 A 
HETATM    6  N1  UNL     1      23.816  -0.043  53.413  1.00  0.00    -0.245 NA
HETATM    7  C8  UNL     1      22.758   0.734  53.221  1.00  0.00     0.235 A 
HETATM    8  N2  UNL     1      23.011   2.004  52.857  1.00  0.00    -0.224 NA
HETATM    9  C9  UNL     1      24.285   2.410  52.708  1.00  0.00     0.141 A 
HETATM   10  C15 UNL     1      26.024  -0.810  53.575  1.00  0.00     0.097 A 
HETATM   11  H4  UNL     1      27.550  -0.387  52.093  1.00  0.00     0.064 HD
ENDROOT
BRANCH   9  12
HETATM   12  N3  UNL     1      24.424   3.769  52.321  1.00  0.00    -0.339 N 
HETATM   13  H9  UNL     1      24.652   4.686  52.756  1.00  0.00     0.167 HD
BRANCH  12  14
HETATM   14  C10 UNL     1      24.248   4.266  51.002  1.00  0.00     0.046 C 
HETATM   15  C11 UNL     1      25.229   4.821  50.312  1.00  0.00     0.004 C 
HETATM   16  C12 UNL     1      24.979   4.866  49.013  1.00  0.00     0.033 C 
HETATM   17  C13 UNL     1      23.516   4.688  48.876  1.00  0.00     0.014 C 
HETATM   18 BR1  UNL     1      22.339   4.891  47.366  1.00  0.00    -0.051 Br
HETATM   19  C14 UNL     1      23.107   4.323  50.103  1.00  0.00     0.049 C 
ENDBRANCH  12  14
ENDBRANCH   9  12
BRANCH   1  20
HETATM   20  C2  UNL     1      28.964  -1.290  53.156  1.00  0.00    -0.004 C 
HETATM   21  C1  UNL     1      30.112  -1.289  53.752  1.00  0.00     0.012 C 
ENDBRANCH   1  20
BRANCH   1  22
HETATM   22  C3  UNL     1      28.107   0.196  54.842  1.00  0.00     0.258 C 
HETATM   23  O1  UNL     1      28.676   1.182  55.299  1.00  0.00    -0.302 OA
ENDBRANCH   1  22
TORSDOF 4
ENDMDL
MODEL 3
REMARK VINA RESULT:      -7.2      2.518      3.751
REMARK  4 active torsions:
REMARK  status: ('A' for Active; 'I' for Inactive)
REMARK    1  A    between atoms: C2_2  and  P1_3 
REMARK    2  A    between atoms: P1_3  and  C3_4 
REMARK    3  A    between atoms: C9_13  and  N3_14 
REMARK    4  A    between atoms: N3_14  and  C10_15 
ROOT
HETATM    1  P1  UNL     1      27.050  -0.226  53.228  1.00  0.00    -0.069 P 
HETATM    2  C4  UNL     1      26.803   1.106  52.081  1.00  0.00     0.007 A 
HETATM    3  C5  UNL     1      25.609   1.571  51.870  1.00  0.00     0.018 A 
HETATM    4  C6  UNL     1      24.465   0.995  52.577  1.00  0.00     0.035 A 
HETATM    5  C7  UNL     1      24.484  -0.017  53.475  1.00  0.00     0.054 A 
HETATM    6  N1  UNL     1      23.328  -0.428  54.025  1.00  0.00    -0.245 NA
HETATM    7  C8  UNL     1      22.125   0.072  53.769  1.00  0.00     0.235 A 
HETATM    8  N2  UNL     1      22.077   1.080  52.880  1.00  0.00    -0.224 NA
HETATM    9  C9  UNL     1      23.214   1.516  52.310  1.00  0.00     0.141 A 
HETATM   10  C15 UNL     1      25.639  -0.807  54.001  1.00  0.00     0.097 A 
HETATM   11  H4  UNL     1      26.818  -0.903  52.184  1.00  0.00     0.064 HD
ENDROOT
BRANCH   9  12
HETATM   12  N3  UNL     1      23.036   2.582  51.389  1.00  0.00    -0.339 N 
HETATM   13  H9  UNL     1      23.109   3.620  51.370  1.00  0.00     0.167 HD
BRANCH  12  14
HETATM   14  C10 UNL     1      22.640   2.433  50.032  1.00  0.00     0.046 C 
HETATM   15  C11 UNL     1      22.019   1.354  49.586  1.00  0.00     0.004 C 
HETATM   16  C12 UNL     1      21.411   1.558  48.428  1.00  0.00     0.033 C 
HETATM   17  C13 UNL     1      22.025   2.776  47.856  1.00  0.00     0.014 C 
HETATM   18 BR1  UNL     1      21.892   3.576  46.110  1.00  0.00    -0.051 Br
HETATM   19  C14 UNL     1      22.764   3.280  48.858  1.00  0.00     0.049 C 
ENDBRANCH  12  14
ENDBRANCH   9  12
BRANCH   1  20
HETATM   20  C2  UNL     1      28.520  -1.102  53.188  1.00  0.00    -0.004 C 
HETATM   21  C1  UNL     1      29.680  -0.803  53.677  1.00  0.00     0.012 C 
ENDBRANCH   1  20
BRANCH   1  22
HETATM   22  C3  UNL     1      27.662   0.863  54.275  1.00  0.00     0.258 C 
HETATM   23  O1  UNL     1      27.857   2.074  54.231  1.00  0.00    -0.302 OA
ENDBRANCH   1  22
TORSDOF 4
ENDMDL
MODEL 4
REMARK VINA RESULT:      -7.0      3.057      4.397
REMARK  4 active torsions:
REMARK  status: ('A' for Active; 'I' for Inactive)
REMARK    1  A    between atoms: C2_2  and  P1_3 
REMARK    2  A    between atoms: P1_3  and  C3_4 
REMARK    3  A    between atoms: C9_13  and  N3_14 
REMARK    4  A    between atoms: N3_14  and  C10_15 
ROOT
HETATM    1  P1  UNL     1      27.422   0.297  53.325  1.00  0.00    -0.069 P 
HETATM    2  C4  UNL     1      27.066   1.412  51.991  1.00  0.00     0.007 A 
HETATM    3  C5  UNL     1      25.838   1.610  51.617  1.00  0.00     0.018 A 
HETATM    4  C6  UNL     1      24.746   0.914  52.297  1.00  0.00     0.035 A 
HETATM    5  C7  UNL     1      24.848   0.038  53.323  1.00  0.00     0.054 A 
HETATM    6  N1  UNL     1      23.732  -0.520  53.824  1.00  0.00    -0.245 NA
HETATM    7  C8  UNL     1      22.494  -0.294  53.401  1.00  0.00     0.235 A 
HETATM    8  N2  UNL     1      22.363   0.574  52.382  1.00  0.00    -0.224 NA
HETATM    9  C9  UNL     1      23.459   1.150  51.856  1.00  0.00     0.141 A 
HETATM   10  C15 UNL     1      26.062  -0.448  54.049  1.00  0.00     0.097 A 
HETATM   11  H4  UNL     1      27.430  -0.531  52.368  1.00  0.00     0.064 HD
ENDROOT
BRANCH   9  12
HETATM   12  N3  UNL     1      23.193   2.045  50.786  1.00  0.00    -0.339 N 
HETATM   13  H9  UNL     1      23.080   2.017  49.752  1.00  0.00     0.167 HD
BRANCH  12  14
HETATM   14  C10 UNL     1      22.985   3.444  50.924  1.00  0.00     0.046 C 
HETATM   15  C11 UNL     1      21.934   3.951  51.545  1.00  0.00     0.004 C 
HETATM   16  C12 UNL     1      22.108   5.215  51.896  1.00  0.00     0.033 C 
HETATM   17  C13 UNL     1      23.230   5.713  51.070  1.00  0.00     0.014 C 
HETATM   18 BR1  UNL     1      23.919   7.489  50.786  1.00  0.00    -0.051 Br
HETATM   19  C14 UNL     1      23.739   4.610  50.495  1.00  0.00     0.049 C 
ENDBRANCH  12  14
ENDBRANCH   9  12
BRANCH   1  20
HETATM   20  C2  UNL     1      29.021  -0.279  53.530  1.00  0.00    -0.004 C 
HETATM   21  C1  UNL     1      29.491  -1.480  53.430  1.00  0.00     0.012 C 
ENDBRANCH   1  20
BRANCH   1  22
HETATM   22  C3  UNL     1      27.710   1.600  54.262  1.00  0.00     0.258 C 
HETATM   23  O1  UNL     1      28.249   2.686  54.072  1.00  0.00    -0.302 OA
ENDBRANCH   1  22
TORSDOF 4
ENDMDL
MODEL 5
REMARK VINA RESULT:      -7.0      4.115      6.974
REMARK  4 active torsions:
REMARK  status: ('A' for Active; 'I' for Inactive)
REMARK    1  A    between atoms: C2_2  and  P1_3 
REMARK    2  A    between atoms: P1_3  and  C3_4 
REMARK    3  A    between atoms: C9_13  and  N3_14 
REMARK    4  A    between atoms: N3_14  and  C10_15 
ROOT
HETATM    1  P1  UNL     1      20.172   1.005  51.247  1.00  0.00    -0.069 P 
HETATM    2  C4  UNL     1      21.074   0.583  52.717  1.00  0.00     0.007 A 
HETATM    3  C5  UNL     1      22.321   0.924  52.837  1.00  0.00     0.018 A 
HETATM    4  C6  UNL     1      22.984   1.658  51.759  1.00  0.00     0.035 A 
HETATM    5  C7  UNL     1      22.442   2.052  50.583  1.00  0.00     0.054 A 
HETATM    6  N1  UNL     1      23.206   2.714  49.697  1.00  0.00    -0.245 NA
HETATM    7  C8  UNL     1      24.484   3.033  49.859  1.00  0.00     0.235 A 
HETATM    8  N2  UNL     1      25.049   2.654  51.019  1.00  0.00    -0.224 NA
HETATM    9  C9  UNL     1      24.314   1.989  51.929  1.00  0.00     0.141 A 
HETATM   10  C15 UNL     1      21.051   1.873  50.064  1.00  0.00     0.097 A 
HETATM   11  H4  UNL     1      20.658  -0.101  50.871  1.00  0.00     0.064 HD
ENDROOT
BRANCH   9  12
HETATM   12  N3  UNL     1      25.020   1.643  53.111  1.00  0.00    -0.339 N 
HETATM   13  H9  UNL     1      25.057   1.925  54.111  1.00  0.00     0.167 HD
BRANCH  12  14
HETATM   14  C10 UNL     1      26.026   0.642  53.199  1.00  0.00     0.046 C 
HETATM   15  C11 UNL     1      25.792  -0.629  52.920  1.00  0.00     0.004 C 
HETATM   16  C12 UNL     1      26.901  -1.314  52.693  1.00  0.00     0.033 C 
HETATM   17  C13 UNL     1      28.000  -0.511  53.273  1.00  0.00     0.014 C 
HETATM   18 BR1  UNL     1      29.854  -0.921  53.592  1.00  0.00    -0.051 Br
HETATM   19  C14 UNL     1      27.431   0.670  53.568  1.00  0.00     0.049 C 
ENDBRANCH  12  14
ENDBRANCH   9  12
BRANCH   1  20
HETATM   20  C2  UNL     1      18.696   0.205  50.913  1.00  0.00    -0.004 C 
HETATM   21  C1  UNL     1      17.792  -0.244  51.722  1.00  0.00     0.012 C 
ENDBRANCH   1  20
BRANCH   1  22
HETATM   22  C3  UNL     1      19.415   2.161  52.112  1.00  0.00     0.258 C 
HETATM   23  O1  UNL     1      19.726   3.287  52.490  1.00  0.00    -0.302 OA
ENDBRANCH   1  22
TORSDOF 4
ENDMDL
MODEL 6
REMARK VINA RESULT:      -6.9      2.253      3.296
REMARK  4 active torsions:
REMARK  status: ('A' for Active; 'I' for Inactive)
REMARK    1  A    between atoms: C2_2  and  P1_3 
REMARK    2  A    between atoms: P1_3  and  C3_4 
REMARK    3  A    between atoms: C9_13  and  N3_14 
REMARK    4  A    between atoms: N3_14  and  C10_15 
ROOT
HETATM    1  P1  UNL     1      26.775   0.418  53.352  1.00  0.00    -0.069 P 
HETATM    2  C4  UNL     1      25.937   1.212  52.004  1.00  0.00     0.007 A 
HETATM    3  C5  UNL     1      24.648   1.106  51.885  1.00  0.00     0.018 A 
HETATM    4  C6  UNL     1      23.886   0.330  52.863  1.00  0.00     0.035 A 
HETATM    5  C7  UNL     1      24.371  -0.332  53.939  1.00  0.00     0.054 A 
HETATM    6  N1  UNL     1      23.520  -1.007  54.732  1.00  0.00    -0.245 NA
HETATM    7  C8  UNL     1      22.207  -1.097  54.565  1.00  0.00     0.235 A 
HETATM    8  N2  UNL     1      21.697  -0.448  53.502  1.00  0.00    -0.224 NA
HETATM    9  C9  UNL     1      22.519   0.237  52.687  1.00  0.00     0.141 A 
HETATM   10  C15 UNL     1      25.776  -0.450  54.436  1.00  0.00     0.097 A 
HETATM   11  H4  UNL     1      26.789  -0.536  52.521  1.00  0.00     0.064 HD
ENDROOT
BRANCH   9  12
HETATM   12  N3  UNL     1      21.865   0.878  51.602  1.00  0.00    -0.339 N 
HETATM   13  H9  UNL     1      21.845   0.832  50.563  1.00  0.00     0.167 HD
BRANCH  12  14
HETATM   14  C10 UNL     1      20.913   1.926  51.725  1.00  0.00     0.046 C 
HETATM   15  C11 UNL     1      21.259   3.176  51.983  1.00  0.00     0.004 C 
HETATM   16  C12 UNL     1      20.303   4.042  51.687  1.00  0.00     0.033 C 
HETATM   17  C13 UNL     1      19.054   3.253  51.600  1.00  0.00     0.014 C 
HETATM   18 BR1  UNL     1      17.209   3.789  51.474  1.00  0.00    -0.051 Br
HETATM   19  C14 UNL     1      19.464   1.974  51.626  1.00  0.00     0.049 C 
ENDBRANCH  12  14
ENDBRANCH   9  12
BRANCH   1  20
HETATM   20  C2  UNL     1      28.472   0.204  53.272  1.00  0.00    -0.004 C 
HETATM   21  C1  UNL     1      29.243  -0.586  53.947  1.00  0.00     0.012 C 
ENDBRANCH   1  20
BRANCH   1  22
HETATM   22  C3  UNL     1      26.935   1.887  54.043  1.00  0.00     0.258 C 
HETATM   23  O1  UNL     1      27.876   2.661  54.195  1.00  0.00    -0.302 OA
ENDBRANCH   1  22
TORSDOF 4
ENDMDL
MODEL 7
REMARK VINA RESULT:      -6.7      4.894      7.298
REMARK  4 active torsions:
REMARK  status: ('A' for Active; 'I' for Inactive)
REMARK    1  A    between atoms: C2_2  and  P1_3 
REMARK    2  A    between atoms: P1_3  and  C3_4 
REMARK    3  A    between atoms: C9_13  and  N3_14 
REMARK    4  A    between atoms: N3_14  and  C10_15 
ROOT
HETATM    1  P1  UNL     1      25.367   1.498  52.833  1.00  0.00    -0.069 P 
HETATM    2  C4  UNL     1      26.399   1.733  51.408  1.00  0.00     0.007 A 
HETATM    3  C5  UNL     1      26.186   2.732  50.607  1.00  0.00     0.018 A 
HETATM    4  C6  UNL     1      25.094   3.667  50.879  1.00  0.00     0.035 A 
HETATM    5  C7  UNL     1      24.223   3.627  51.914  1.00  0.00     0.054 A 
HETATM    6  N1  UNL     1      23.267   4.569  52.004  1.00  0.00    -0.245 NA
HETATM    7  C8  UNL     1      23.081   5.570  51.153  1.00  0.00     0.235 A 
HETATM    8  N2  UNL     1      23.933   5.634  50.114  1.00  0.00    -0.224 NA
HETATM    9  C9  UNL     1      24.901   4.708  49.992  1.00  0.00     0.141 A 
HETATM   10  C15 UNL     1      24.132   2.661  53.052  1.00  0.00     0.097 A 
HETATM   11  H4  UNL     1      24.683   0.855  51.985  1.00  0.00     0.064 HD
ENDROOT
BRANCH   9  12
HETATM   12  N3  UNL     1      25.736   4.880  48.857  1.00  0.00    -0.339 N 
HETATM   13  H9  UNL     1      25.825   4.511  47.888  1.00  0.00     0.167 HD
BRANCH  12  14
HETATM   14  C10 UNL     1      26.847   5.763  48.786  1.00  0.00     0.046 C 
HETATM   15  C11 UNL     1      28.073   5.347  48.518  1.00  0.00     0.004 C 
HETATM   16  C12 UNL     1      28.871   6.327  48.127  1.00  0.00     0.033 C 
HETATM   17  C13 UNL     1      28.218   7.580  48.564  1.00  0.00     0.014 C 
HETATM   18 BR1  UNL     1      28.847   9.399  48.616  1.00  0.00    -0.051 Br
HETATM   19  C14 UNL     1      26.991   7.199  48.957  1.00  0.00     0.049 C 
ENDBRANCH  12  14
ENDBRANCH   9  12
BRANCH   1  20
HETATM   20  C2  UNL     1      25.373  -0.018  53.630  1.00  0.00    -0.004 C 
HETATM   21  C1  UNL     1      24.406  -0.664  54.194  1.00  0.00     0.012 C 
ENDBRANCH   1  20
BRANCH   1  22
HETATM   22  C3  UNL     1      26.601   2.047  53.747  1.00  0.00     0.258 C 
HETATM   23  O1  UNL     1      27.588   1.522  54.254  1.00  0.00    -0.302 OA
ENDBRANCH   1  22
TORSDOF 4
ENDMDL
MODEL 8
REMARK VINA RESULT:      -6.6      4.639      7.712
REMARK  4 active torsions:
REMARK  status: ('A' for Active; 'I' for Inactive)
REMARK    1  A    between atoms: C2_2  and  P1_3 
REMARK    2  A    between atoms: P1_3  and  C3_4 
REMARK    3  A    between atoms: C9_13  and  N3_14 
REMARK    4  A    between atoms: N3_14  and  C10_15 
ROOT
HETATM    1  P1  UNL     1      22.041   2.320  51.578  1.00  0.00    -0.069 P 
HETATM    2  C4  UNL     1      22.593   2.927  50.004  1.00  0.00     0.007 A 
HETATM    3  C5  UNL     1      23.862   3.067  49.768  1.00  0.00     0.018 A 
HETATM    4  C6  UNL     1      24.839   2.726  50.802  1.00  0.00     0.035 A 
HETATM    5  C7  UNL     1      24.584   2.255  52.045  1.00  0.00     0.054 A 
HETATM    6  N1  UNL     1      25.611   2.002  52.875  1.00  0.00    -0.245 NA
HETATM    7  C8  UNL     1      26.897   2.172  52.593  1.00  0.00     0.235 A 
HETATM    8  N2  UNL     1      27.180   2.638  51.364  1.00  0.00    -0.224 NA
HETATM    9  C9  UNL     1      26.177   2.903  50.508  1.00  0.00     0.141 A 
HETATM   10  C15 UNL     1      23.276   1.944  52.700  1.00  0.00     0.097 A 
HETATM   11  H4  UNL     1      22.099   3.554  51.850  1.00  0.00     0.064 HD
ENDROOT
BRANCH   9  12
HETATM   12  N3  UNL     1      26.600   3.390  49.243  1.00  0.00    -0.339 N 
HETATM   13  H9  UNL     1      26.748   3.034  48.277  1.00  0.00     0.167 HD
BRANCH  12  14
HETATM   14  C10 UNL     1      26.991   4.729  48.972  1.00  0.00     0.046 C 
HETATM   15  C11 UNL     1      28.216   5.051  48.591  1.00  0.00     0.004 C 
HETATM   16  C12 UNL     1      28.278   6.250  48.033  1.00  0.00     0.033 C 
HETATM   17  C13 UNL     1      27.046   6.955  48.449  1.00  0.00     0.014 C 
HETATM   18 BR1  UNL     1      26.511   8.797  48.286  1.00  0.00    -0.051 Br
HETATM   19  C14 UNL     1      26.289   6.001  49.015  1.00  0.00     0.049 C 
ENDBRANCH  12  14
ENDBRANCH   9  12
BRANCH   1  20
HETATM   20  C2  UNL     1      20.404   2.535  52.030  1.00  0.00    -0.004 C 
HETATM   21  C1  UNL     1      19.564   3.461  51.697  1.00  0.00     0.012 C 
ENDBRANCH   1  20
BRANCH   1  22
HETATM   22  C3  UNL     1      21.713   0.897  50.851  1.00  0.00     0.258 C 
HETATM   23  O1  UNL     1      21.150   0.582  49.807  1.00  0.00    -0.302 OA
ENDBRANCH   1  22
TORSDOF 4
ENDMDL
MODEL 9
REMARK VINA RESULT:      -6.5      7.811      9.572
REMARK  4 active torsions:
REMARK  status: ('A' for Active; 'I' for Inactive)
REMARK    1  A    between atoms: C2_2  and  P1_3 
REMARK    2  A    between atoms: P1_3  and  C3_4 
REMARK    3  A    between atoms: C9_13  and  N3_14 
REMARK    4  A    between atoms: N3_14  and  C10_15 
ROOT
HETATM    1  P1  UNL     1      32.904   6.302  48.462  1.00  0.00    -0.069 P 
HETATM    2  C4  UNL     1      31.632   5.234  47.835  1.00  0.00     0.007 A 
HETATM    3  C5  UNL     1      30.390   5.611  47.866  1.00  0.00     0.018 A 
HETATM    4  C6  UNL     1      30.038   6.920  48.418  1.00  0.00     0.035 A 
HETATM    5  C7  UNL     1      30.881   7.844  48.932  1.00  0.00     0.054 A 
HETATM    6  N1  UNL     1      30.380   8.998  49.408  1.00  0.00    -0.245 NA
HETATM    7  C8  UNL     1      29.097   9.337  49.428  1.00  0.00     0.235 A 
HETATM    8  N2  UNL     1      28.236   8.436  48.922  1.00  0.00    -0.224 NA
HETATM    9  C9  UNL     1      28.702   7.271  48.438  1.00  0.00     0.141 A 
HETATM   10  C15 UNL     1      32.370   7.809  49.070  1.00  0.00     0.097 A 
HETATM   11  H4  UNL     1      32.601   5.704  49.535  1.00  0.00     0.064 HD
ENDROOT
BRANCH   9  12
HETATM   12  N3  UNL     1      27.698   6.404  47.933  1.00  0.00    -0.339 N 
HETATM   13  H9  UNL     1      27.303   6.116  47.015  1.00  0.00     0.167 HD
BRANCH  12  14
HETATM   14  C10 UNL     1      26.852   5.583  48.727  1.00  0.00     0.046 C 
HETATM   15  C11 UNL     1      27.111   4.307  48.958  1.00  0.00     0.004 C 
HETATM   16  C12 UNL     1      26.442   3.831  49.996  1.00  0.00     0.033 C 
HETATM   17  C13 UNL     1      25.328   4.776  50.229  1.00  0.00     0.014 C 
HETATM   18 BR1  UNL     1      23.773   4.667  51.359  1.00  0.00    -0.051 Br
HETATM   19  C14 UNL     1      25.611   5.827  49.442  1.00  0.00     0.049 C 
ENDBRANCH  12  14
ENDBRANCH   9  12
BRANCH   1  20
HETATM   20  C2  UNL     1      34.448   5.650  48.808  1.00  0.00    -0.004 C 
HETATM   21  C1  UNL     1      35.035   4.603  48.327  1.00  0.00     0.012 C 
ENDBRANCH   1  20
BRANCH   1  22
HETATM   22  C3  UNL     1      33.321   6.618  46.917  1.00  0.00     0.258 C 
HETATM   23  O1  UNL     1      33.056   6.097  45.838  1.00  0.00    -0.302 OA
ENDBRANCH   1  22
TORSDOF 4
ENDMDL
