MODEL 1
REMARK VINA RESULT:      -8.3      0.000      0.000
REMARK  6 active torsions:
REMARK  status: ('A' for Active; 'I' for Inactive)
REMARK    1  A    between atoms: O1_2  and  C2_3 
REMARK    2  A    between atoms: C5_6  and  C6_7 
REMARK    3  A    between atoms: C8_9  and  S1_10 
REMARK    4  A    between atoms: S1_10  and  C9_11 
REMARK    5  A    between atoms: N2_19  and  C16_20 
REMARK    6  A    between atoms: C18_23  and  O2_24 
ROOT
HETATM    1  C6  UNL     1      24.501   2.506  52.283  1.00  0.00     0.152 C 
HETATM    2  C7  UNL     1      24.609   2.703  50.761  1.00  0.00     0.101 C 
HETATM    3  C8  UNL     1      23.297   3.371  50.556  1.00  0.00     0.098 C 
HETATM    4  N1  UNL     1      22.509   2.921  51.466  1.00  0.00    -0.167 NA
HETATM    5  N2  UNL     1      23.152   1.984  52.310  1.00  0.00    -0.236 N 
ENDROOT
BRANCH   1   6
HETATM    6  C5  UNL     1      25.532   1.608  52.789  1.00  0.00    -0.033 A 
HETATM    7  C4  UNL     1      26.056   1.656  54.059  1.00  0.00     0.012 A 
HETATM    8  C3  UNL     1      27.037   0.791  54.510  1.00  0.00     0.037 A 
HETATM    9  C2  UNL     1      27.474  -0.149  53.597  1.00  0.00     0.068 A 
HETATM   10  C20 UNL     1      26.991  -0.252  52.308  1.00  0.00     0.037 A 
HETATM   11  C19 UNL     1      26.017   0.634  51.915  1.00  0.00     0.012 A 
BRANCH   9  12
HETATM   12  O1  UNL     1      28.456  -1.068  53.945  1.00  0.00    -0.356 OA
HETATM   13  C1  UNL     1      29.827  -0.930  53.641  1.00  0.00     0.210 C 
ENDBRANCH   9  12
ENDBRANCH   1   6
BRANCH   5  14
HETATM   14  C16 UNL     1      22.435   0.910  52.905  1.00  0.00     0.193 A 
HETATM   15  N3  UNL     1      22.759  -0.088  53.669  1.00  0.00    -0.214 NA
HETATM   16  C17 UNL     1      21.387  -0.455  53.635  1.00  0.00     0.125 A 
HETATM   17  C18 UNL     1      20.841  -1.484  54.233  1.00  0.00     0.170 C 
HETATM   18  S2  UNL     1      20.656   0.792  52.617  1.00  0.00    -0.029 SA
BRANCH  17  19
HETATM   19  O2  UNL     1      19.502  -1.840  54.198  1.00  0.00    -0.370 OA
HETATM   20  H19 UNL     1      19.160  -2.698  53.789  1.00  0.00     0.216 HD
ENDBRANCH  17  19
ENDBRANCH   5  14
BRANCH   3  21
HETATM   21  S1  UNL     1      22.779   4.586  49.319  1.00  0.00    -0.078 SA
BRANCH  21  22
HETATM   22  C9  UNL     1      23.936   5.935  49.196  1.00  0.00    -0.015 C 
HETATM   23  C10 UNL     1      25.138   5.548  48.783  1.00  0.00    -0.004 C 
HETATM   24  C11 UNL     1      26.185   6.612  48.646  1.00  0.00     0.027 C 
HETATM   25  C12 UNL     1      27.553   6.021  48.455  1.00  0.00     0.018 C 
HETATM   26  C13 UNL     1      26.219   7.448  49.900  1.00  0.00    -0.022 C 
HETATM   27  C14 UNL     1      25.036   7.865  50.300  1.00  0.00    -0.025 C 
HETATM   28  C15 UNL     1      23.930   7.425  49.436  1.00  0.00     0.072 C 
ENDBRANCH  21  22
ENDBRANCH   3  21
TORSDOF 6
ENDMDL
MODEL 2
REMARK VINA RESULT:      -8.3      3.009      6.734
REMARK  6 active torsions:
REMARK  status: ('A' for Active; 'I' for Inactive)
REMARK    1  A    between atoms: O1_2  and  C2_3 
REMARK    2  A    between atoms: C5_6  and  C6_7 
REMARK    3  A    between atoms: C8_9  and  S1_10 
REMARK    4  A    between atoms: S1_10  and  C9_11 
REMARK    5  A    between atoms: N2_19  and  C16_20 
REMARK    6  A    between atoms: C18_23  and  O2_24 
ROOT
HETATM    1  C6  UNL     1      24.574   1.415  51.896  1.00  0.00     0.152 C 
HETATM    2  C7  UNL     1      23.592   2.035  52.905  1.00  0.00     0.101 C 
HETATM    3  C8  UNL     1      22.573   2.500  51.926  1.00  0.00     0.098 C 
HETATM    4  N1  UNL     1      23.202   2.757  50.836  1.00  0.00    -0.167 NA
HETATM    5  N2  UNL     1      24.591   2.512  50.952  1.00  0.00    -0.236 N 
ENDROOT
BRANCH   1   6
HETATM    6  C5  UNL     1      25.856   1.098  52.512  1.00  0.00    -0.033 A 
HETATM    7  C4  UNL     1      26.594   1.970  53.278  1.00  0.00     0.012 A 
HETATM    8  C3  UNL     1      27.810   1.640  53.848  1.00  0.00     0.037 A 
HETATM    9  C2  UNL     1      28.260   0.357  53.603  1.00  0.00     0.068 A 
HETATM   10  C20 UNL     1      27.570  -0.568  52.843  1.00  0.00     0.037 A 
HETATM   11  C19 UNL     1      26.367  -0.185  52.302  1.00  0.00     0.012 A 
BRANCH   9  12
HETATM   12  O1  UNL     1      29.470  -0.080  54.127  1.00  0.00    -0.356 OA
HETATM   13  C1  UNL     1      30.108  -1.286  53.771  1.00  0.00     0.210 C 
ENDBRANCH   9  12
ENDBRANCH   1   6
BRANCH   5  14
HETATM   14  C16 UNL     1      25.542   3.277  50.222  1.00  0.00     0.193 A 
HETATM   15  N3  UNL     1      26.695   3.023  49.685  1.00  0.00    -0.214 NA
HETATM   16  C17 UNL     1      26.713   4.383  49.274  1.00  0.00     0.125 A 
HETATM   17  C18 UNL     1      27.662   4.980  48.598  1.00  0.00     0.170 C 
HETATM   18  S2  UNL     1      25.184   5.017  49.894  1.00  0.00    -0.029 SA
BRANCH  17  19
HETATM   19  O2  UNL     1      27.678   6.307  48.198  1.00  0.00    -0.370 OA
HETATM   20  H19 UNL     1      27.229   7.052  48.711  1.00  0.00     0.216 HD
ENDBRANCH  17  19
ENDBRANCH   5  14
BRANCH   3  21
HETATM   21  S1  UNL     1      20.784   2.709  52.103  1.00  0.00    -0.078 SA
BRANCH  21  22
HETATM   22  C9  UNL     1      19.920   1.160  51.928  1.00  0.00    -0.015 C 
HETATM   23  C10 UNL     1      18.971   1.201  51.000  1.00  0.00    -0.004 C 
HETATM   24  C11 UNL     1      18.184  -0.055  50.777  1.00  0.00     0.027 C 
HETATM   25  C12 UNL     1      16.972   0.194  49.926  1.00  0.00     0.018 C 
HETATM   26  C13 UNL     1      17.708  -0.593  52.103  1.00  0.00    -0.022 C 
HETATM   27  C14 UNL     1      18.650  -0.669  53.020  1.00  0.00    -0.025 C 
HETATM   28  C15 UNL     1      19.968  -0.211  52.556  1.00  0.00     0.072 C 
ENDBRANCH  21  22
ENDBRANCH   3  21
TORSDOF 6
ENDMDL
MODEL 3
REMARK VINA RESULT:      -8.2      3.189      6.757
REMARK  6 active torsions:
REMARK  status: ('A' for Active; 'I' for Inactive)
REMARK    1  A    between atoms: O1_2  and  C2_3 
REMARK    2  A    between atoms: C5_6  and  C6_7 
REMARK    3  A    between atoms: C8_9  and  S1_10 
REMARK    4  A    between atoms: S1_10  and  C9_11 
REMARK    5  A    between atoms: N2_19  and  C16_20 
REMARK    6  A    between atoms: C18_23  and  O2_24 
ROOT
HETATM    1  C6  UNL     1      23.794  -0.446  52.922  1.00  0.00     0.152 C 
HETATM    2  C7  UNL     1      22.811  -0.511  54.103  1.00  0.00     0.101 C 
HETATM    3  C8  UNL     1      21.559  -0.307  53.328  1.00  0.00     0.098 C 
HETATM    4  N1  UNL     1      21.870   0.408  52.307  1.00  0.00    -0.167 NA
HETATM    5  N2  UNL     1      23.248   0.734  52.287  1.00  0.00    -0.236 N 
ENDROOT
BRANCH   1   6
HETATM    6  C5  UNL     1      25.176  -0.334  53.371  1.00  0.00    -0.033 A 
HETATM    7  C4  UNL     1      25.562   0.121  54.610  1.00  0.00     0.012 A 
HETATM    8  C3  UNL     1      26.883   0.219  55.007  1.00  0.00     0.037 A 
HETATM    9  C2  UNL     1      27.821  -0.173  54.072  1.00  0.00     0.068 A 
HETATM   10  C20 UNL     1      27.503  -0.640  52.811  1.00  0.00     0.037 A 
HETATM   11  C19 UNL     1      26.175  -0.716  52.472  1.00  0.00     0.012 A 
BRANCH   9  12
HETATM   12  O1  UNL     1      29.178  -0.117  54.366  1.00  0.00    -0.356 OA
HETATM   13  C1  UNL     1      30.166  -0.908  53.744  1.00  0.00     0.210 C 
ENDBRANCH   9  12
ENDBRANCH   1   6
BRANCH   5  14
HETATM   14  C16 UNL     1      23.711   1.956  51.728  1.00  0.00     0.193 A 
HETATM   15  N3  UNL     1      24.057   2.339  50.537  1.00  0.00    -0.214 NA
HETATM   16  C17 UNL     1      24.312   3.615  51.109  1.00  0.00     0.125 A 
HETATM   17  C18 UNL     1      24.746   4.678  50.480  1.00  0.00     0.170 C 
HETATM   18  S2  UNL     1      23.905   3.387  52.814  1.00  0.00    -0.029 SA
BRANCH  17  19
HETATM   19  O2  UNL     1      24.993   5.922  51.040  1.00  0.00    -0.370 OA
HETATM   20  H19 UNL     1      24.729   6.175  51.981  1.00  0.00     0.216 HD
ENDBRANCH  17  19
ENDBRANCH   5  14
BRANCH   3  21
HETATM   21  S1  UNL     1      19.875  -0.891  53.642  1.00  0.00    -0.078 SA
BRANCH  21  22
HETATM   22  C9  UNL     1      18.712  -0.206  52.479  1.00  0.00    -0.015 C 
HETATM   23  C10 UNL     1      17.599  -0.923  52.378  1.00  0.00    -0.004 C 
HETATM   24  C11 UNL     1      16.555  -0.429  51.423  1.00  0.00     0.027 C 
HETATM   25  C12 UNL     1      15.488  -1.459  51.187  1.00  0.00     0.018 C 
HETATM   26  C13 UNL     1      17.195  -0.121  50.094  1.00  0.00    -0.022 C 
HETATM   27  C14 UNL     1      18.282   0.618  50.180  1.00  0.00    -0.025 C 
HETATM   28  C15 UNL     1      18.641   0.987  51.558  1.00  0.00     0.072 C 
ENDBRANCH  21  22
ENDBRANCH   3  21
TORSDOF 6
ENDMDL
MODEL 4
REMARK VINA RESULT:      -7.8      2.078      2.909
REMARK  6 active torsions:
REMARK  status: ('A' for Active; 'I' for Inactive)
REMARK    1  A    between atoms: O1_2  and  C2_3 
REMARK    2  A    between atoms: C5_6  and  C6_7 
REMARK    3  A    between atoms: C8_9  and  S1_10 
REMARK    4  A    between atoms: S1_10  and  C9_11 
REMARK    5  A    between atoms: N2_19  and  C16_20 
REMARK    6  A    between atoms: C18_23  and  O2_24 
ROOT
HETATM    1  C6  UNL     1      24.712   2.489  52.499  1.00  0.00     0.152 C 
HETATM    2  C7  UNL     1      24.810   2.811  50.998  1.00  0.00     0.101 C 
HETATM    3  C8  UNL     1      23.522   3.542  50.870  1.00  0.00     0.098 C 
HETATM    4  N1  UNL     1      22.728   3.046  51.750  1.00  0.00    -0.167 NA
HETATM    5  N2  UNL     1      23.344   2.017  52.502  1.00  0.00    -0.236 N 
ENDROOT
BRANCH   1   6
HETATM    6  C5  UNL     1      25.714   1.514  52.912  1.00  0.00    -0.033 A 
HETATM    7  C4  UNL     1      26.301   1.473  54.155  1.00  0.00     0.012 A 
HETATM    8  C3  UNL     1      27.251   0.536  54.517  1.00  0.00     0.037 A 
HETATM    9  C2  UNL     1      27.591  -0.382  53.542  1.00  0.00     0.068 A 
HETATM   10  C20 UNL     1      27.040  -0.398  52.275  1.00  0.00     0.037 A 
HETATM   11  C19 UNL     1      26.101   0.557  51.972  1.00  0.00     0.012 A 
BRANCH   9  12
HETATM   12  O1  UNL     1      28.535  -1.368  53.798  1.00  0.00    -0.356 OA
HETATM   13  C1  UNL     1      29.927  -1.204  53.646  1.00  0.00     0.210 C 
ENDBRANCH   9  12
ENDBRANCH   1   6
BRANCH   5  14
HETATM   14  C16 UNL     1      22.594   0.924  53.016  1.00  0.00     0.193 A 
HETATM   15  N3  UNL     1      22.900  -0.210  53.567  1.00  0.00    -0.214 NA
HETATM   16  C17 UNL     1      21.502  -0.450  53.660  1.00  0.00     0.125 A 
HETATM   17  C18 UNL     1      20.925  -1.514  54.159  1.00  0.00     0.170 C 
HETATM   18  S2  UNL     1      20.791   1.004  52.950  1.00  0.00    -0.029 SA
BRANCH  17  19
HETATM   19  O2  UNL     1      19.562  -1.746  54.247  1.00  0.00    -0.370 OA
HETATM   20  H19 UNL     1      19.103  -2.553  53.849  1.00  0.00     0.216 HD
ENDBRANCH  17  19
ENDBRANCH   5  14
BRANCH   3  21
HETATM   21  S1  UNL     1      23.035   4.876  49.748  1.00  0.00    -0.078 SA
BRANCH  21  22
HETATM   22  C9  UNL     1      22.404   4.244  48.206  1.00  0.00    -0.015 C 
HETATM   23  C10 UNL     1      22.528   5.108  47.205  1.00  0.00    -0.004 C 
HETATM   24  C11 UNL     1      22.025   4.670  45.863  1.00  0.00     0.027 C 
HETATM   25  C12 UNL     1      21.956   5.817  44.895  1.00  0.00     0.018 C 
HETATM   26  C13 UNL     1      20.633   4.108  46.006  1.00  0.00    -0.022 C 
HETATM   27  C14 UNL     1      20.508   3.226  46.975  1.00  0.00    -0.025 C 
HETATM   28  C15 UNL     1      21.754   2.975  47.714  1.00  0.00     0.072 C 
ENDBRANCH  21  22
ENDBRANCH   3  21
TORSDOF 6
ENDMDL
MODEL 5
REMARK VINA RESULT:      -7.6      3.592      6.931
REMARK  6 active torsions:
REMARK  status: ('A' for Active; 'I' for Inactive)
REMARK    1  A    between atoms: O1_2  and  C2_3 
REMARK    2  A    between atoms: C5_6  and  C6_7 
REMARK    3  A    between atoms: C8_9  and  S1_10 
REMARK    4  A    between atoms: S1_10  and  C9_11 
REMARK    5  A    between atoms: N2_19  and  C16_20 
REMARK    6  A    between atoms: C18_23  and  O2_24 
ROOT
HETATM    1  C6  UNL     1      22.888   1.597  50.324  1.00  0.00     0.152 C 
HETATM    2  C7  UNL     1      23.999   2.062  51.280  1.00  0.00     0.101 C 
HETATM    3  C8  UNL     1      23.724   1.102  52.382  1.00  0.00     0.098 C 
HETATM    4  N1  UNL     1      22.466   0.845  52.340  1.00  0.00    -0.167 NA
HETATM    5  N2  UNL     1      21.815   1.542  51.294  1.00  0.00    -0.236 N 
ENDROOT
BRANCH   1   6
HETATM    6  C5  UNL     1      22.691   2.533  49.224  1.00  0.00    -0.033 A 
HETATM    7  C4  UNL     1      22.079   2.224  48.033  1.00  0.00     0.012 A 
HETATM    8  C3  UNL     1      21.909   3.134  47.005  1.00  0.00     0.037 A 
HETATM    9  C2  UNL     1      22.399   4.403  47.241  1.00  0.00     0.068 A 
HETATM   10  C20 UNL     1      23.024   4.782  48.413  1.00  0.00     0.037 A 
HETATM   11  C19 UNL     1      23.164   3.836  49.399  1.00  0.00     0.012 A 
BRANCH   9  12
HETATM   12  O1  UNL     1      22.282   5.397  46.277  1.00  0.00    -0.356 OA
HETATM   13  C1  UNL     1      21.380   6.479  46.347  1.00  0.00     0.210 C 
ENDBRANCH   9  12
ENDBRANCH   1   6
BRANCH   5  14
HETATM   14  C16 UNL     1      20.462   1.962  51.413  1.00  0.00     0.193 A 
HETATM   15  N3  UNL     1      19.312   1.380  51.261  1.00  0.00    -0.214 NA
HETATM   16  C17 UNL     1      18.725   2.628  51.603  1.00  0.00     0.125 A 
HETATM   17  C18 UNL     1      17.445   2.893  51.678  1.00  0.00     0.170 C 
HETATM   18  S2  UNL     1      20.124   3.673  51.883  1.00  0.00    -0.029 SA
BRANCH  17  19
HETATM   19  O2  UNL     1      16.876   4.112  52.011  1.00  0.00    -0.370 OA
HETATM   20  H19 UNL     1      16.126   4.542  51.489  1.00  0.00     0.216 HD
ENDBRANCH  17  19
ENDBRANCH   5  14
BRANCH   3  21
HETATM   21  S1  UNL     1      24.838   0.366  53.604  1.00  0.00    -0.078 SA
BRANCH  21  22
HETATM   22  C9  UNL     1      26.545   0.721  53.237  1.00  0.00    -0.015 C 
HETATM   23  C10 UNL     1      27.334  -0.338  53.377  1.00  0.00    -0.004 C 
HETATM   24  C11 UNL     1      28.792  -0.143  53.092  1.00  0.00     0.027 C 
HETATM   25  C12 UNL     1      29.610  -1.314  53.556  1.00  0.00     0.018 C 
HETATM   26  C13 UNL     1      29.288   1.079  53.823  1.00  0.00    -0.022 C 
HETATM   27  C14 UNL     1      28.531   2.144  53.663  1.00  0.00    -0.025 C 
HETATM   28  C15 UNL     1      27.359   1.915  52.805  1.00  0.00     0.072 C 
ENDBRANCH  21  22
ENDBRANCH   3  21
TORSDOF 6
ENDMDL
MODEL 6
REMARK VINA RESULT:      -7.5      3.714      7.097
REMARK  6 active torsions:
REMARK  status: ('A' for Active; 'I' for Inactive)
REMARK    1  A    between atoms: O1_2  and  C2_3 
REMARK    2  A    between atoms: C5_6  and  C6_7 
REMARK    3  A    between atoms: C8_9  and  S1_10 
REMARK    4  A    between atoms: S1_10  and  C9_11 
REMARK    5  A    between atoms: N2_19  and  C16_20 
REMARK    6  A    between atoms: C18_23  and  O2_24 
ROOT
HETATM    1  C6  UNL     1      22.745   1.947  50.823  1.00  0.00     0.152 C 
HETATM    2  C7  UNL     1      23.441   2.976  51.730  1.00  0.00     0.101 C 
HETATM    3  C8  UNL     1      24.057   2.014  52.681  1.00  0.00     0.098 C 
HETATM    4  N1  UNL     1      23.285   0.989  52.720  1.00  0.00    -0.167 NA
HETATM    5  N2  UNL     1      22.162   1.136  51.870  1.00  0.00    -0.236 N 
ENDROOT
BRANCH   1   6
HETATM    6  C5  UNL     1      21.795   2.577  49.915  1.00  0.00    -0.033 A 
HETATM    7  C4  UNL     1      21.131   3.753  50.170  1.00  0.00     0.012 A 
HETATM    8  C3  UNL     1      20.232   4.326  49.289  1.00  0.00     0.037 A 
HETATM    9  C2  UNL     1      20.029   3.639  48.108  1.00  0.00     0.068 A 
HETATM   10  C20 UNL     1      20.662   2.454  47.788  1.00  0.00     0.037 A 
HETATM   11  C19 UNL     1      21.545   1.932  48.701  1.00  0.00     0.012 A 
BRANCH   9  12
HETATM   12  O1  UNL     1      19.147   4.125  47.151  1.00  0.00    -0.356 OA
HETATM   13  C1  UNL     1      19.091   5.467  46.720  1.00  0.00     0.210 C 
ENDBRANCH   9  12
ENDBRANCH   1   6
BRANCH   5  14
HETATM   14  C16 UNL     1      20.910   0.542  52.188  1.00  0.00     0.193 A 
HETATM   15  N3  UNL     1      19.822   0.303  51.522  1.00  0.00    -0.214 NA
HETATM   16  C17 UNL     1      19.307  -0.259  52.722  1.00  0.00     0.125 A 
HETATM   17  C18 UNL     1      18.119  -0.781  52.891  1.00  0.00     0.170 C 
HETATM   18  S2  UNL     1      20.641  -0.067  53.866  1.00  0.00    -0.029 SA
BRANCH  17  19
HETATM   19  O2  UNL     1      17.619  -1.328  54.063  1.00  0.00    -0.370 OA
HETATM   20  H19 UNL     1      17.254  -2.266  54.133  1.00  0.00     0.216 HD
ENDBRANCH  17  19
ENDBRANCH   5  14
BRANCH   3  21
HETATM   21  S1  UNL     1      25.579   2.136  53.653  1.00  0.00    -0.078 SA
BRANCH  21  22
HETATM   22  C9  UNL     1      26.441   0.578  53.725  1.00  0.00    -0.015 C 
HETATM   23  C10 UNL     1      27.760   0.720  53.795  1.00  0.00    -0.004 C 
HETATM   24  C11 UNL     1      28.577  -0.534  53.860  1.00  0.00     0.027 C 
HETATM   25  C12 UNL     1      30.038  -0.256  53.647  1.00  0.00     0.018 C 
HETATM   26  C13 UNL     1      28.130  -1.482  52.776  1.00  0.00    -0.022 C 
HETATM   27  C14 UNL     1      26.826  -1.656  52.719  1.00  0.00    -0.025 C 
HETATM   28  C15 UNL     1      26.081  -0.887  53.727  1.00  0.00     0.072 C 
ENDBRANCH  21  22
ENDBRANCH   3  21
TORSDOF 6
ENDMDL
MODEL 7
REMARK VINA RESULT:      -7.4      3.888      7.756
REMARK  6 active torsions:
REMARK  status: ('A' for Active; 'I' for Inactive)
REMARK    1  A    between atoms: O1_2  and  C2_3 
REMARK    2  A    between atoms: C5_6  and  C6_7 
REMARK    3  A    between atoms: C8_9  and  S1_10 
REMARK    4  A    between atoms: S1_10  and  C9_11 
REMARK    5  A    between atoms: N2_19  and  C16_20 
REMARK    6  A    between atoms: C18_23  and  O2_24 
ROOT
HETATM    1  C6  UNL     1      22.724   2.923  51.187  1.00  0.00     0.152 C 
HETATM    2  C7  UNL     1      23.723   1.790  51.480  1.00  0.00     0.101 C 
HETATM    3  C8  UNL     1      24.965   2.528  51.131  1.00  0.00     0.098 C 
HETATM    4  N1  UNL     1      24.642   3.386  50.231  1.00  0.00    -0.167 NA
HETATM    5  N2  UNL     1      23.265   3.324  49.907  1.00  0.00    -0.236 N 
ENDROOT
BRANCH   1   6
HETATM    6  C5  UNL     1      21.348   2.441  51.164  1.00  0.00    -0.033 A 
HETATM    7  C4  UNL     1      20.240   3.228  51.375  1.00  0.00     0.012 A 
HETATM    8  C3  UNL     1      18.946   2.741  51.349  1.00  0.00     0.037 A 
HETATM    9  C2  UNL     1      18.818   1.390  51.094  1.00  0.00     0.068 A 
HETATM   10  C20 UNL     1      19.887   0.543  50.873  1.00  0.00     0.037 A 
HETATM   11  C19 UNL     1      21.150   1.082  50.911  1.00  0.00     0.012 A 
BRANCH   9  12
HETATM   12  O1  UNL     1      17.563   0.796  51.045  1.00  0.00    -0.356 OA
HETATM   13  C1  UNL     1      16.408   1.309  51.672  1.00  0.00     0.210 C 
ENDBRANCH   9  12
ENDBRANCH   1   6
BRANCH   5  14
HETATM   14  C16 UNL     1      22.798   3.628  48.599  1.00  0.00     0.193 A 
HETATM   15  N3  UNL     1      22.533   4.727  47.960  1.00  0.00    -0.214 NA
HETATM   16  C17 UNL     1      22.181   3.904  46.855  1.00  0.00     0.125 A 
HETATM   17  C18 UNL     1      21.755   4.310  45.686  1.00  0.00     0.170 C 
HETATM   18  S2  UNL     1      22.459   2.267  47.461  1.00  0.00    -0.029 SA
BRANCH  17  19
HETATM   19  O2  UNL     1      21.412   3.506  44.611  1.00  0.00    -0.370 OA
HETATM   20  H19 UNL     1      21.408   3.823  43.652  1.00  0.00     0.216 HD
ENDBRANCH  17  19
ENDBRANCH   5  14
BRANCH   3  21
HETATM   21  S1  UNL     1      26.651   2.356  51.765  1.00  0.00    -0.078 SA
BRANCH  21  22
HETATM   22  C9  UNL     1      26.896   0.784  52.568  1.00  0.00    -0.015 C 
HETATM   23  C10 UNL     1      28.154   0.587  52.944  1.00  0.00    -0.004 C 
HETATM   24  C11 UNL     1      28.464  -0.709  53.630  1.00  0.00     0.027 C 
HETATM   25  C12 UNL     1      29.945  -0.936  53.744  1.00  0.00     0.018 C 
HETATM   26  C13 UNL     1      27.887  -1.851  52.832  1.00  0.00    -0.022 C 
HETATM   27  C14 UNL     1      26.629  -1.680  52.483  1.00  0.00    -0.025 C 
HETATM   28  C15 UNL     1      26.053  -0.408  52.946  1.00  0.00     0.072 C 
ENDBRANCH  21  22
ENDBRANCH   3  21
TORSDOF 6
ENDMDL
MODEL 8
REMARK VINA RESULT:      -7.1      3.324      5.757
REMARK  6 active torsions:
REMARK  status: ('A' for Active; 'I' for Inactive)
REMARK    1  A    between atoms: O1_2  and  C2_3 
REMARK    2  A    between atoms: C5_6  and  C6_7 
REMARK    3  A    between atoms: C8_9  and  S1_10 
REMARK    4  A    between atoms: S1_10  and  C9_11 
REMARK    5  A    between atoms: N2_19  and  C16_20 
REMARK    6  A    between atoms: C18_23  and  O2_24 
ROOT
HETATM    1  C6  UNL     1      24.373   1.601  51.869  1.00  0.00     0.152 C 
HETATM    2  C7  UNL     1      23.414   2.314  52.837  1.00  0.00     0.101 C 
HETATM    3  C8  UNL     1      22.465   2.841  51.822  1.00  0.00     0.098 C 
HETATM    4  N1  UNL     1      23.143   3.029  50.747  1.00  0.00    -0.167 NA
HETATM    5  N2  UNL     1      24.504   2.677  50.909  1.00  0.00    -0.236 N 
ENDROOT
BRANCH   1   6
HETATM    6  C5  UNL     1      25.608   1.194  52.528  1.00  0.00    -0.033 A 
HETATM    7  C4  UNL     1      26.393   2.020  53.298  1.00  0.00     0.012 A 
HETATM    8  C3  UNL     1      27.562   1.605  53.909  1.00  0.00     0.037 A 
HETATM    9  C2  UNL     1      27.911   0.285  53.702  1.00  0.00     0.068 A 
HETATM   10  C20 UNL     1      27.169  -0.598  52.942  1.00  0.00     0.037 A 
HETATM   11  C19 UNL     1      26.017  -0.130  52.358  1.00  0.00     0.012 A 
BRANCH   9  12
HETATM   12  O1  UNL     1      29.066  -0.238  54.270  1.00  0.00    -0.356 OA
HETATM   13  C1  UNL     1      30.153  -0.762  53.539  1.00  0.00     0.210 C 
ENDBRANCH   9  12
ENDBRANCH   1   6
BRANCH   5  14
HETATM   14  C16 UNL     1      25.534   3.352  50.198  1.00  0.00     0.193 A 
HETATM   15  N3  UNL     1      26.688   3.004  49.719  1.00  0.00    -0.214 NA
HETATM   16  C17 UNL     1      26.815   4.345  49.266  1.00  0.00     0.125 A 
HETATM   17  C18 UNL     1      27.829   4.854  48.613  1.00  0.00     0.170 C 
HETATM   18  S2  UNL     1      25.309   5.100  49.800  1.00  0.00    -0.029 SA
BRANCH  17  19
HETATM   19  O2  UNL     1      27.951   6.163  48.174  1.00  0.00    -0.370 OA
HETATM   20  H19 UNL     1      27.961   6.963  48.790  1.00  0.00     0.216 HD
ENDBRANCH  17  19
ENDBRANCH   5  14
BRANCH   3  21
HETATM   21  S1  UNL     1      20.693   3.193  51.941  1.00  0.00    -0.078 SA
BRANCH  21  22
HETATM   22  C9  UNL     1      19.938   3.326  50.333  1.00  0.00    -0.015 C 
HETATM   23  C10 UNL     1      19.855   4.580  49.903  1.00  0.00    -0.004 C 
HETATM   24  C11 UNL     1      19.233   4.798  48.557  1.00  0.00     0.027 C 
HETATM   25  C12 UNL     1      18.936   6.250  48.312  1.00  0.00     0.018 C 
HETATM   26  C13 UNL     1      17.929   4.045  48.478  1.00  0.00    -0.022 C 
HETATM   27  C14 UNL     1      18.008   2.791  48.870  1.00  0.00    -0.025 C 
HETATM   28  C15 UNL     1      19.355   2.390  49.303  1.00  0.00     0.072 C 
ENDBRANCH  21  22
ENDBRANCH   3  21
TORSDOF 6
ENDMDL
MODEL 9
REMARK VINA RESULT:      -7.1      5.490      9.455
REMARK  6 active torsions:
REMARK  status: ('A' for Active; 'I' for Inactive)
REMARK    1  A    between atoms: O1_2  and  C2_3 
REMARK    2  A    between atoms: C5_6  and  C6_7 
REMARK    3  A    between atoms: C8_9  and  S1_10 
REMARK    4  A    between atoms: S1_10  and  C9_11 
REMARK    5  A    between atoms: N2_19  and  C16_20 
REMARK    6  A    between atoms: C18_23  and  O2_24 
ROOT
HETATM    1  C6  UNL     1      28.481   6.316  47.720  1.00  0.00     0.152 C 
HETATM    2  C7  UNL     1      27.954   5.399  48.837  1.00  0.00     0.101 C 
HETATM    3  C8  UNL     1      26.522   5.787  48.750  1.00  0.00     0.098 C 
HETATM    4  N1  UNL     1      26.495   7.004  48.343  1.00  0.00    -0.167 NA
HETATM    5  N2  UNL     1      27.794   7.523  48.128  1.00  0.00    -0.236 N 
ENDROOT
BRANCH   1   6
HETATM    6  C5  UNL     1      29.937   6.392  47.721  1.00  0.00    -0.033 A 
HETATM    7  C4  UNL     1      30.693   6.933  46.709  1.00  0.00     0.012 A 
HETATM    8  C3  UNL     1      32.075   6.989  46.737  1.00  0.00     0.037 A 
HETATM    9  C2  UNL     1      32.674   6.459  47.863  1.00  0.00     0.068 A 
HETATM   10  C20 UNL     1      31.975   5.900  48.916  1.00  0.00     0.037 A 
HETATM   11  C19 UNL     1      30.604   5.873  48.833  1.00  0.00     0.012 A 
BRANCH   9  12
HETATM   12  O1  UNL     1      34.056   6.463  47.996  1.00  0.00    -0.356 OA
HETATM   13  C1  UNL     1      34.828   7.601  48.311  1.00  0.00     0.210 C 
ENDBRANCH   9  12
ENDBRANCH   1   6
BRANCH   5  14
HETATM   14  C16 UNL     1      28.084   8.900  48.326  1.00  0.00     0.193 A 
HETATM   15  N3  UNL     1      28.622   9.831  47.599  1.00  0.00    -0.214 NA
HETATM   16  C17 UNL     1      28.415  10.701  48.703  1.00  0.00     0.125 A 
HETATM   17  C18 UNL     1      28.733  11.970  48.765  1.00  0.00     0.170 C 
HETATM   18  S2  UNL     1      27.653   9.657  49.908  1.00  0.00    -0.029 SA
BRANCH  17  19
HETATM   19  O2  UNL     1      28.530  12.817  49.843  1.00  0.00    -0.370 OA
HETATM   20  H19 UNL     1      29.078  12.786  50.691  1.00  0.00     0.216 HD
ENDBRANCH  17  19
ENDBRANCH   5  14
BRANCH   3  21
HETATM   21  S1  UNL     1      25.024   4.837  49.113  1.00  0.00    -0.078 SA
BRANCH  21  22
HETATM   22  C9  UNL     1      25.376   3.413  50.125  1.00  0.00    -0.015 C 
HETATM   23  C10 UNL     1      24.324   3.006  50.826  1.00  0.00    -0.004 C 
HETATM   24  C11 UNL     1      24.517   1.812  51.711  1.00  0.00     0.027 C 
HETATM   25  C12 UNL     1      23.362   1.627  52.653  1.00  0.00     0.018 C 
HETATM   26  C13 UNL     1      25.760   1.998  52.543  1.00  0.00    -0.022 C 
HETATM   27  C14 UNL     1      26.818   2.371  51.852  1.00  0.00    -0.025 C 
HETATM   28  C15 UNL     1      26.561   2.526  50.413  1.00  0.00     0.072 C 
ENDBRANCH  21  22
ENDBRANCH   3  21
TORSDOF 6
ENDMDL
