MODEL 1
REMARK VINA RESULT:      -7.3      0.000      0.000
REMARK  6 active torsions:
REMARK  status: ('A' for Active; 'I' for Inactive)
REMARK    1  A    between atoms: C2_2  and  C3_3 
REMARK       I    between atoms: C3_3  and  N1_5 
REMARK    2  A    between atoms: N1_5  and  C4_6 
REMARK    3  A    between atoms: C9_11  and  N2_12 
REMARK    4  A    between atoms: N2_12  and  C11_14 
REMARK    5  A    between atoms: C11_14  and  C12_15 
REMARK    6  A    between atoms: C12_15  and  N3_16 
ROOT
HETATM    1  C4  UNL     1      22.620   0.562  52.644  1.00  0.00     0.062 A 
HETATM    2  C5  UNL     1      23.686  -0.129  53.189  1.00  0.00     0.043 A 
HETATM    3  C6  UNL     1      24.938   0.382  53.436  1.00  0.00    -0.002 A 
HETATM    4  C7  UNL     1      25.172   1.691  53.122  1.00  0.00     0.087 A 
HETATM    5  C8  UNL     1      24.132   2.423  52.572  1.00  0.00     0.069 A 
HETATM    6  C9  UNL     1      22.862   1.887  52.327  1.00  0.00     0.059 A 
HETATM    7  O2  UNL     1      26.277   2.504  53.234  1.00  0.00    -0.302 OA
HETATM    8  C15 UNL     1      27.599   2.118  53.199  1.00  0.00     0.280 C 
HETATM    9  N4  UNL     1      28.716   1.470  53.117  1.00  0.00    -0.167 NA
HETATM   10  N5  UNL     1      28.723   0.080  52.884  1.00  0.00    -0.308 N 
HETATM   11  C16 UNL     1      29.005  -0.430  54.205  1.00  0.00     0.188 C 
HETATM   12  C17 UNL     1      27.958   0.059  55.129  1.00  0.00     0.104 C 
HETATM   13  N6  UNL     1      26.685   0.047  55.104  1.00  0.00    -0.299 NA
HETATM   14  C18 UNL     1      25.953  -0.520  54.031  1.00  0.00     0.189 C 
HETATM   15  H21 UNL     1      28.527  -0.012  51.885  1.00  0.00     0.182 HD
ENDROOT
BRANCH   6  16
HETATM   16  N2  UNL     1      21.784   2.638  51.761  1.00  0.00    -0.382 N 
HETATM   17  C10 UNL     1      20.713   3.282  52.521  1.00  0.00     0.150 C 
BRANCH  16  18
HETATM   18  C11 UNL     1      21.708   2.792  50.320  1.00  0.00     0.152 C 
BRANCH  18  19
HETATM   19  C12 UNL     1      21.510   4.202  49.863  1.00  0.00     0.291 C 
BRANCH  19  20
HETATM   20  N3  UNL     1      22.799   4.744  49.519  1.00  0.00     0.081 N 
HETATM   21  C13 UNL     1      23.418   5.540  50.532  1.00  0.00     0.309 C 
HETATM   22  C14 UNL     1      23.750   3.753  49.062  1.00  0.00     0.309 C 
ENDBRANCH  19  20
ENDBRANCH  18  19
ENDBRANCH  16  18
ENDBRANCH   6  16
BRANCH   1  23
HETATM   23  N1  UNL     1      21.364  -0.101  52.437  1.00  0.00    -0.322 N 
HETATM   24  C3  UNL     1      20.390  -0.174  53.486  1.00  0.00     0.244 C 
HETATM   25  O1  UNL     1      20.655   0.353  54.598  1.00  0.00    -0.268 OA
HETATM   26  H4  UNL     1      21.086  -0.563  51.529  1.00  0.00     0.169 HD
BRANCH  24  27
HETATM   27  C2  UNL     1      19.120  -0.846  53.263  1.00  0.00     0.064 C 
HETATM   28  C1  UNL     1      18.316  -0.474  52.305  1.00  0.00     0.017 C 
ENDBRANCH  24  27
ENDBRANCH   1  23
TORSDOF 6
ENDMDL
MODEL 2
REMARK VINA RESULT:      -7.1      2.053      4.564
REMARK  6 active torsions:
REMARK  status: ('A' for Active; 'I' for Inactive)
REMARK    1  A    between atoms: C2_2  and  C3_3 
REMARK       I    between atoms: C3_3  and  N1_5 
REMARK    2  A    between atoms: N1_5  and  C4_6 
REMARK    3  A    between atoms: C9_11  and  N2_12 
REMARK    4  A    between atoms: N2_12  and  C11_14 
REMARK    5  A    between atoms: C11_14  and  C12_15 
REMARK    6  A    between atoms: C12_15  and  N3_16 
ROOT
HETATM    1  C4  UNL     1      23.244   2.593  50.889  1.00  0.00     0.062 A 
HETATM    2  C5  UNL     1      24.568   2.239  51.067  1.00  0.00     0.043 A 
HETATM    3  C6  UNL     1      25.045   1.324  51.975  1.00  0.00    -0.002 A 
HETATM    4  C7  UNL     1      24.143   0.695  52.788  1.00  0.00     0.087 A 
HETATM    5  C8  UNL     1      22.804   1.019  52.645  1.00  0.00     0.069 A 
HETATM    6  C9  UNL     1      22.336   1.954  51.714  1.00  0.00     0.059 A 
HETATM    7  O2  UNL     1      24.270  -0.250  53.780  1.00  0.00    -0.302 OA
HETATM    8  C15 UNL     1      25.356  -0.452  54.602  1.00  0.00     0.280 C 
HETATM    9  N4  UNL     1      26.492  -0.393  55.218  1.00  0.00    -0.167 NA
HETATM   10  N5  UNL     1      27.438   0.598  54.886  1.00  0.00    -0.308 N 
HETATM   11  C16 UNL     1      28.378  -0.156  54.093  1.00  0.00     0.188 C 
HETATM   12  C17 UNL     1      27.653  -0.757  52.952  1.00  0.00     0.104 C 
HETATM   13  N6  UNL     1      26.867  -0.293  52.064  1.00  0.00    -0.299 NA
HETATM   14  C18 UNL     1      26.506   1.076  52.013  1.00  0.00     0.189 C 
HETATM   15  H21 UNL     1      27.083   1.448  55.333  1.00  0.00     0.182 HD
ENDROOT
BRANCH   6  16
HETATM   16  N2  UNL     1      20.954   2.292  51.562  1.00  0.00    -0.382 N 
HETATM   17  C10 UNL     1      20.329   3.524  52.044  1.00  0.00     0.150 C 
BRANCH  16  18
HETATM   18  C11 UNL     1      20.067   1.364  50.886  1.00  0.00     0.152 C 
BRANCH  18  19
HETATM   19  C12 UNL     1      18.763   1.141  51.583  1.00  0.00     0.291 C 
BRANCH  19  20
HETATM   20  N3  UNL     1      18.715  -0.235  52.005  1.00  0.00     0.081 N 
HETATM   21  C13 UNL     1      19.394  -0.523  53.230  1.00  0.00     0.309 C 
HETATM   22  C14 UNL     1      17.377  -0.781  52.078  1.00  0.00     0.309 C 
ENDBRANCH  19  20
ENDBRANCH  18  19
ENDBRANCH  16  18
ENDBRANCH   6  16
BRANCH   1  23
HETATM   23  N1  UNL     1      22.888   3.571  49.900  1.00  0.00    -0.322 N 
HETATM   24  C3  UNL     1      22.597   3.179  48.552  1.00  0.00     0.244 C 
HETATM   25  O1  UNL     1      22.661   1.960  48.246  1.00  0.00    -0.268 OA
HETATM   26  H4  UNL     1      22.820   4.606  50.095  1.00  0.00     0.169 HD
BRANCH  24  27
HETATM   27  C2  UNL     1      22.234   4.179  47.560  1.00  0.00     0.064 C 
HETATM   28  C1  UNL     1      21.759   3.836  46.395  1.00  0.00     0.017 C 
ENDBRANCH  24  27
ENDBRANCH   1  23
TORSDOF 6
ENDMDL
MODEL 3
REMARK VINA RESULT:      -7.0      1.318      2.127
REMARK  6 active torsions:
REMARK  status: ('A' for Active; 'I' for Inactive)
REMARK    1  A    between atoms: C2_2  and  C3_3 
REMARK       I    between atoms: C3_3  and  N1_5 
REMARK    2  A    between atoms: N1_5  and  C4_6 
REMARK    3  A    between atoms: C9_11  and  N2_12 
REMARK    4  A    between atoms: N2_12  and  C11_14 
REMARK    5  A    between atoms: C11_14  and  C12_15 
REMARK    6  A    between atoms: C12_15  and  N3_16 
ROOT
HETATM    1  C4  UNL     1      22.567   0.254  52.587  1.00  0.00     0.062 A 
HETATM    2  C5  UNL     1      23.638  -0.277  53.281  1.00  0.00     0.043 A 
HETATM    3  C6  UNL     1      24.875   0.305  53.426  1.00  0.00    -0.002 A 
HETATM    4  C7  UNL     1      25.087   1.520  52.837  1.00  0.00     0.087 A 
HETATM    5  C8  UNL     1      24.042   2.091  52.131  1.00  0.00     0.069 A 
HETATM    6  C9  UNL     1      22.786   1.484  51.993  1.00  0.00     0.059 A 
HETATM    7  O2  UNL     1      26.174   2.363  52.783  1.00  0.00    -0.302 OA
HETATM    8  C15 UNL     1      27.503   2.010  52.848  1.00  0.00     0.280 C 
HETATM    9  N4  UNL     1      28.635   1.387  52.920  1.00  0.00    -0.167 NA
HETATM   10  N5  UNL     1      28.674  -0.020  52.995  1.00  0.00    -0.308 N 
HETATM   11  C16 UNL     1      28.945  -0.226  54.397  1.00  0.00     0.188 C 
HETATM   12  C17 UNL     1      27.873   0.427  55.182  1.00  0.00     0.104 C 
HETATM   13  N6  UNL     1      26.601   0.380  55.146  1.00  0.00    -0.299 NA
HETATM   14  C18 UNL     1      25.899  -0.423  54.213  1.00  0.00     0.189 C 
HETATM   15  H21 UNL     1      28.496  -0.331  52.036  1.00  0.00     0.182 HD
ENDROOT
BRANCH   6  16
HETATM   16  N2  UNL     1      21.703   2.069  51.266  1.00  0.00    -0.382 N 
HETATM   17  C10 UNL     1      21.455   1.893  49.835  1.00  0.00     0.150 C 
BRANCH  16  18
HETATM   18  C11 UNL     1      20.754   2.915  51.965  1.00  0.00     0.152 C 
BRANCH  18  19
HETATM   19  C12 UNL     1      19.323   2.647  51.624  1.00  0.00     0.291 C 
BRANCH  19  20
HETATM   20  N3  UNL     1      18.664   3.914  51.441  1.00  0.00     0.081 N 
HETATM   21  C13 UNL     1      18.970   4.591  50.220  1.00  0.00     0.309 C 
HETATM   22  C14 UNL     1      17.226   3.856  51.592  1.00  0.00     0.309 C 
ENDBRANCH  19  20
ENDBRANCH  18  19
ENDBRANCH  16  18
ENDBRANCH   6  16
BRANCH   1  23
HETATM   23  N1  UNL     1      21.328  -0.468  52.515  1.00  0.00    -0.322 N 
HETATM   24  C3  UNL     1      20.343  -0.343  53.549  1.00  0.00     0.244 C 
HETATM   25  O1  UNL     1      20.584   0.411  54.528  1.00  0.00    -0.268 OA
HETATM   26  H4  UNL     1      21.072  -1.116  51.721  1.00  0.00     0.169 HD
BRANCH  24  27
HETATM   27  C2  UNL     1      19.091  -1.076  53.462  1.00  0.00     0.064 C 
HETATM   28  C1  UNL     1      18.171  -0.746  52.599  1.00  0.00     0.017 C 
ENDBRANCH  24  27
ENDBRANCH   1  23
TORSDOF 6
ENDMDL
MODEL 4
REMARK VINA RESULT:      -7.0      1.853      4.680
REMARK  6 active torsions:
REMARK  status: ('A' for Active; 'I' for Inactive)
REMARK    1  A    between atoms: C2_2  and  C3_3 
REMARK       I    between atoms: C3_3  and  N1_5 
REMARK    2  A    between atoms: N1_5  and  C4_6 
REMARK    3  A    between atoms: C9_11  and  N2_12 
REMARK    4  A    between atoms: N2_12  and  C11_14 
REMARK    5  A    between atoms: C11_14  and  C12_15 
REMARK    6  A    between atoms: C12_15  and  N3_16 
ROOT
HETATM    1  C4  UNL     1      23.113   3.283  52.347  1.00  0.00     0.062 A 
HETATM    2  C5  UNL     1      24.399   3.309  52.853  1.00  0.00     0.043 A 
HETATM    3  C6  UNL     1      25.254   2.235  52.941  1.00  0.00    -0.002 A 
HETATM    4  C7  UNL     1      24.811   1.022  52.493  1.00  0.00     0.087 A 
HETATM    5  C8  UNL     1      23.528   0.949  51.977  1.00  0.00     0.069 A 
HETATM    6  C9  UNL     1      22.670   2.053  51.894  1.00  0.00     0.059 A 
HETATM    7  O2  UNL     1      25.388  -0.226  52.432  1.00  0.00    -0.302 OA
HETATM    8  C15 UNL     1      26.357  -0.735  53.267  1.00  0.00     0.280 C 
HETATM    9  N4  UNL     1      27.234  -0.937  54.197  1.00  0.00    -0.167 NA
HETATM   10  N5  UNL     1      27.485   0.051  55.171  1.00  0.00    -0.308 N 
HETATM   11  C16 UNL     1      28.727   0.612  54.697  1.00  0.00     0.188 C 
HETATM   12  C17 UNL     1      28.521   1.110  53.319  1.00  0.00     0.104 C 
HETATM   13  N6  UNL     1      27.659   1.875  52.779  1.00  0.00    -0.299 NA
HETATM   14  C18 UNL     1      26.601   2.464  53.515  1.00  0.00     0.189 C 
HETATM   15  H21 UNL     1      26.695  -0.022  55.817  1.00  0.00     0.182 HD
ENDROOT
BRANCH   6  16
HETATM   16  N2  UNL     1      21.344   1.984  51.362  1.00  0.00    -0.382 N 
HETATM   17  C10 UNL     1      20.982   2.223  49.965  1.00  0.00     0.150 C 
BRANCH  16  18
HETATM   18  C11 UNL     1      20.241   1.657  52.246  1.00  0.00     0.152 C 
BRANCH  18  19
HETATM   19  C12 UNL     1      19.681   0.284  52.049  1.00  0.00     0.291 C 
BRANCH  19  20
HETATM   20  N3  UNL     1      19.565  -0.338  53.343  1.00  0.00     0.081 N 
HETATM   21  C13 UNL     1      18.531  -1.319  53.458  1.00  0.00     0.309 C 
HETATM   22  C14 UNL     1      20.800  -0.907  53.835  1.00  0.00     0.309 C 
ENDBRANCH  19  20
ENDBRANCH  18  19
ENDBRANCH  16  18
ENDBRANCH   6  16
BRANCH   1  23
HETATM   23  N1  UNL     1      22.328   4.484  52.318  1.00  0.00    -0.322 N 
HETATM   24  C3  UNL     1      22.426   5.401  51.220  1.00  0.00     0.244 C 
HETATM   25  O1  UNL     1      23.218   5.136  50.278  1.00  0.00    -0.268 OA
HETATM   26  H4  UNL     1      21.650   4.761  53.079  1.00  0.00     0.169 HD
BRANCH  24  27
HETATM   27  C2  UNL     1      21.623   6.613  51.202  1.00  0.00     0.064 C 
HETATM   28  C1  UNL     1      21.933   7.620  50.434  1.00  0.00     0.017 C 
ENDBRANCH  24  27
ENDBRANCH   1  23
TORSDOF 6
ENDMDL
MODEL 5
REMARK VINA RESULT:      -6.8      2.071      4.133
REMARK  6 active torsions:
REMARK  status: ('A' for Active; 'I' for Inactive)
REMARK    1  A    between atoms: C2_2  and  C3_3 
REMARK       I    between atoms: C3_3  and  N1_5 
REMARK    2  A    between atoms: N1_5  and  C4_6 
REMARK    3  A    between atoms: C9_11  and  N2_12 
REMARK    4  A    between atoms: N2_12  and  C11_14 
REMARK    5  A    between atoms: C11_14  and  C12_15 
REMARK    6  A    between atoms: C12_15  and  N3_16 
ROOT
HETATM    1  C4  UNL     1      23.653   3.100  51.028  1.00  0.00     0.062 A 
HETATM    2  C5  UNL     1      24.951   2.705  51.292  1.00  0.00     0.043 A 
HETATM    3  C6  UNL     1      25.329   1.659  52.100  1.00  0.00    -0.002 A 
HETATM    4  C7  UNL     1      24.347   0.928  52.707  1.00  0.00     0.087 A 
HETATM    5  C8  UNL     1      23.030   1.287  52.471  1.00  0.00     0.069 A 
HETATM    6  C9  UNL     1      22.662   2.357  51.645  1.00  0.00     0.059 A 
HETATM    7  O2  UNL     1      24.368  -0.156  53.555  1.00  0.00    -0.302 OA
HETATM    8  C15 UNL     1      25.359  -0.492  54.449  1.00  0.00     0.280 C 
HETATM    9  N4  UNL     1      26.421  -0.542  55.186  1.00  0.00    -0.167 NA
HETATM   10  N5  UNL     1      27.394   0.476  55.110  1.00  0.00    -0.308 N 
HETATM   11  C16 UNL     1      28.418  -0.164  54.319  1.00  0.00     0.188 C 
HETATM   12  C17 UNL     1      27.823  -0.579  53.029  1.00  0.00     0.104 C 
HETATM   13  N6  UNL     1      27.136   0.023  52.141  1.00  0.00    -0.299 NA
HETATM   14  C18 UNL     1      26.778   1.389  52.257  1.00  0.00     0.189 C 
HETATM   15  H21 UNL     1      26.991   1.254  55.638  1.00  0.00     0.182 HD
ENDROOT
BRANCH   6  16
HETATM   16  N2  UNL     1      21.305   2.732  51.398  1.00  0.00    -0.382 N 
HETATM   17  C10 UNL     1      20.574   3.779  52.113  1.00  0.00     0.150 C 
BRANCH  16  18
HETATM   18  C11 UNL     1      20.555   2.041  50.366  1.00  0.00     0.152 C 
BRANCH  18  19
HETATM   19  C12 UNL     1      20.128   2.912  49.228  1.00  0.00     0.291 C 
BRANCH  19  20
HETATM   20  N3  UNL     1      20.789   2.445  48.037  1.00  0.00     0.081 N 
HETATM   21  C13 UNL     1      21.453   3.454  47.271  1.00  0.00     0.309 C 
HETATM   22  C14 UNL     1      21.713   1.355  48.267  1.00  0.00     0.309 C 
ENDBRANCH  19  20
ENDBRANCH  18  19
ENDBRANCH  16  18
ENDBRANCH   6  16
BRANCH   1  23
HETATM   23  N1  UNL     1      23.404   4.219  50.164  1.00  0.00    -0.322 N 
HETATM   24  C3  UNL     1      23.459   5.561  50.665  1.00  0.00     0.244 C 
HETATM   25  O1  UNL     1      23.728   5.745  51.880  1.00  0.00    -0.268 OA
HETATM   26  H4  UNL     1      23.170   4.127  49.138  1.00  0.00     0.169 HD
BRANCH  24  27
HETATM   27  C2  UNL     1      23.207   6.685  49.778  1.00  0.00     0.064 C 
HETATM   28  C1  UNL     1      22.486   7.702  50.161  1.00  0.00     0.017 C 
ENDBRANCH  24  27
ENDBRANCH   1  23
TORSDOF 6
ENDMDL
MODEL 6
REMARK VINA RESULT:      -6.5      6.578     10.326
REMARK  6 active torsions:
REMARK  status: ('A' for Active; 'I' for Inactive)
REMARK    1  A    between atoms: C2_2  and  C3_3 
REMARK       I    between atoms: C3_3  and  N1_5 
REMARK    2  A    between atoms: N1_5  and  C4_6 
REMARK    3  A    between atoms: C9_11  and  N2_12 
REMARK    4  A    between atoms: N2_12  and  C11_14 
REMARK    5  A    between atoms: C11_14  and  C12_15 
REMARK    6  A    between atoms: C12_15  and  N3_16 
ROOT
HETATM    1  C4  UNL     1      29.231   6.072  47.764  1.00  0.00     0.062 A 
HETATM    2  C5  UNL     1      28.203   5.457  48.453  1.00  0.00     0.043 A 
HETATM    3  C6  UNL     1      27.014   6.040  48.820  1.00  0.00    -0.002 A 
HETATM    4  C7  UNL     1      26.809   7.349  48.483  1.00  0.00     0.087 A 
HETATM    5  C8  UNL     1      27.813   8.007  47.792  1.00  0.00     0.069 A 
HETATM    6  C9  UNL     1      29.019   7.397  47.425  1.00  0.00     0.059 A 
HETATM    7  O2  UNL     1      25.763   8.220  48.686  1.00  0.00    -0.302 OA
HETATM    8  C15 UNL     1      24.857   8.204  49.723  1.00  0.00     0.280 C 
HETATM    9  N4  UNL     1      24.181   7.946  50.796  1.00  0.00    -0.167 NA
HETATM   10  N5  UNL     1      24.565   6.892  51.649  1.00  0.00    -0.308 N 
HETATM   11  C16 UNL     1      23.606   5.873  51.298  1.00  0.00     0.188 C 
HETATM   12  C17 UNL     1      23.723   5.598  49.849  1.00  0.00     0.104 C 
HETATM   13  N6  UNL     1      24.700   5.321  49.081  1.00  0.00    -0.299 NA
HETATM   14  C18 UNL     1      26.030   5.211  49.556  1.00  0.00     0.189 C 
HETATM   15  H21 UNL     1      25.363   7.264  52.170  1.00  0.00     0.182 HD
ENDROOT
BRANCH   6  16
HETATM   16  N2  UNL     1      30.059   8.071  46.711  1.00  0.00    -0.382 N 
HETATM   17  C10 UNL     1      30.142   8.189  45.255  1.00  0.00     0.150 C 
BRANCH  16  18
HETATM   18  C11 UNL     1      31.138   8.696  47.451  1.00  0.00     0.152 C 
BRANCH  18  19
HETATM   19  C12 UNL     1      31.167  10.188  47.354  1.00  0.00     0.291 C 
BRANCH  19  20
HETATM   20  N3  UNL     1      30.464  10.723  48.491  1.00  0.00     0.081 N 
HETATM   21  C13 UNL     1      30.565   9.949  49.689  1.00  0.00     0.309 C 
HETATM   22  C14 UNL     1      30.799  12.096  48.797  1.00  0.00     0.309 C 
ENDBRANCH  19  20
ENDBRANCH  18  19
ENDBRANCH  16  18
ENDBRANCH   6  16
BRANCH   1  23
HETATM   23  N1  UNL     1      30.425   5.340  47.448  1.00  0.00    -0.322 N 
HETATM   24  C3  UNL     1      31.475   5.194  48.412  1.00  0.00     0.244 C 
HETATM   25  O1  UNL     1      31.336   5.722  49.546  1.00  0.00    -0.268 OA
HETATM   26  H4  UNL     1      30.600   4.877  46.514  1.00  0.00     0.169 HD
BRANCH  24  27
HETATM   27  C2  UNL     1      32.677   4.446  48.080  1.00  0.00     0.064 C 
HETATM   28  C1  UNL     1      32.629   3.387  47.321  1.00  0.00     0.017 C 
ENDBRANCH  24  27
ENDBRANCH   1  23
TORSDOF 6
ENDMDL
MODEL 7
REMARK VINA RESULT:      -6.5      2.264      4.893
REMARK  6 active torsions:
REMARK  status: ('A' for Active; 'I' for Inactive)
REMARK    1  A    between atoms: C2_2  and  C3_3 
REMARK       I    between atoms: C3_3  and  N1_5 
REMARK    2  A    between atoms: N1_5  and  C4_6 
REMARK    3  A    between atoms: C9_11  and  N2_12 
REMARK    4  A    between atoms: N2_12  and  C11_14 
REMARK    5  A    between atoms: C11_14  and  C12_15 
REMARK    6  A    between atoms: C12_15  and  N3_16 
ROOT
HETATM    1  C4  UNL     1      24.995   3.401  50.202  1.00  0.00     0.062 A 
HETATM    2  C5  UNL     1      26.105   2.985  50.914  1.00  0.00     0.043 A 
HETATM    3  C6  UNL     1      26.152   1.927  51.790  1.00  0.00    -0.002 A 
HETATM    4  C7  UNL     1      25.008   1.206  51.990  1.00  0.00     0.087 A 
HETATM    5  C8  UNL     1      23.871   1.587  51.298  1.00  0.00     0.069 A 
HETATM    6  C9  UNL     1      23.840   2.669  50.408  1.00  0.00     0.059 A 
HETATM    7  O2  UNL     1      24.707   0.115  52.774  1.00  0.00    -0.302 OA
HETATM    8  C15 UNL     1      25.303  -0.243  53.963  1.00  0.00     0.280 C 
HETATM    9  N4  UNL     1      26.025  -0.314  55.035  1.00  0.00    -0.167 NA
HETATM   10  N5  UNL     1      26.970   0.689  55.329  1.00  0.00    -0.308 N 
HETATM   11  C16 UNL     1      28.204   0.040  54.955  1.00  0.00     0.188 C 
HETATM   12  C17 UNL     1      28.113  -0.356  53.532  1.00  0.00     0.104 C 
HETATM   13  N6  UNL     1      27.802   0.263  52.464  1.00  0.00    -0.299 NA
HETATM   14  C18 UNL     1      27.442   1.634  52.459  1.00  0.00     0.189 C 
HETATM   15  H21 UNL     1      26.412   1.469  55.685  1.00  0.00     0.182 HD
ENDROOT
BRANCH   6  16
HETATM   16  N2  UNL     1      22.669   3.066  49.690  1.00  0.00    -0.382 N 
HETATM   17  C10 UNL     1      22.382   2.734  48.294  1.00  0.00     0.150 C 
BRANCH  16  18
HETATM   18  C11 UNL     1      21.663   3.867  50.361  1.00  0.00     0.152 C 
BRANCH  18  19
HETATM   19  C12 UNL     1      20.380   4.005  49.604  1.00  0.00     0.291 C 
BRANCH  19  20
HETATM   20  N3  UNL     1      19.358   3.294  50.327  1.00  0.00     0.081 N 
HETATM   21  C13 UNL     1      19.094   1.967  49.866  1.00  0.00     0.309 C 
HETATM   22  C14 UNL     1      19.569   3.255  51.758  1.00  0.00     0.309 C 
ENDBRANCH  19  20
ENDBRANCH  18  19
ENDBRANCH  16  18
ENDBRANCH   6  16
BRANCH   1  23
HETATM   23  N1  UNL     1      25.089   4.530  49.320  1.00  0.00    -0.322 N 
HETATM   24  C3  UNL     1      24.813   5.855  49.791  1.00  0.00     0.244 C 
HETATM   25  O1  UNL     1      24.483   6.015  50.996  1.00  0.00    -0.268 OA
HETATM   26  H4  UNL     1      25.357   4.458  48.302  1.00  0.00     0.169 HD
BRANCH  24  27
HETATM   27  C2  UNL     1      24.914   6.991  48.889  1.00  0.00     0.064 C 
HETATM   28  C1  UNL     1      24.316   6.991  47.730  1.00  0.00     0.017 C 
ENDBRANCH  24  27
ENDBRANCH   1  23
TORSDOF 6
ENDMDL
MODEL 8
REMARK VINA RESULT:      -6.5      5.787      9.210
REMARK  6 active torsions:
REMARK  status: ('A' for Active; 'I' for Inactive)
REMARK    1  A    between atoms: C2_2  and  C3_3 
REMARK       I    between atoms: C3_3  and  N1_5 
REMARK    2  A    between atoms: N1_5  and  C4_6 
REMARK    3  A    between atoms: C9_11  and  N2_12 
REMARK    4  A    between atoms: N2_12  and  C11_14 
REMARK    5  A    between atoms: C11_14  and  C12_15 
REMARK    6  A    between atoms: C12_15  and  N3_16 
ROOT
HETATM    1  C4  UNL     1      28.000   6.243  48.289  1.00  0.00     0.062 A 
HETATM    2  C5  UNL     1      27.428   5.030  48.622  1.00  0.00     0.043 A 
HETATM    3  C6  UNL     1      26.288   4.854  49.371  1.00  0.00    -0.002 A 
HETATM    4  C7  UNL     1      25.647   5.967  49.837  1.00  0.00     0.087 A 
HETATM    5  C8  UNL     1      26.185   7.204  49.527  1.00  0.00     0.069 A 
HETATM    6  C9  UNL     1      27.348   7.366  48.763  1.00  0.00     0.059 A 
HETATM    7  O2  UNL     1      24.512   6.151  50.595  1.00  0.00    -0.302 OA
HETATM    8  C15 UNL     1      23.992   5.291  51.535  1.00  0.00     0.280 C 
HETATM    9  N4  UNL     1      23.758   4.312  52.348  1.00  0.00    -0.167 NA
HETATM   10  N5  UNL     1      24.647   3.221  52.431  1.00  0.00    -0.308 N 
HETATM   11  C16 UNL     1      23.939   2.216  51.675  1.00  0.00     0.188 C 
HETATM   12  C17 UNL     1      23.694   2.739  50.313  1.00  0.00     0.104 C 
HETATM   13  N6  UNL     1      24.438   3.267  49.425  1.00  0.00    -0.299 NA
HETATM   14  C18 UNL     1      25.827   3.467  49.621  1.00  0.00     0.189 C 
HETATM   15  H21 UNL     1      25.431   3.573  52.986  1.00  0.00     0.182 HD
ENDROOT
BRANCH   6  16
HETATM   16  N2  UNL     1      27.908   8.642  48.439  1.00  0.00    -0.382 N 
HETATM   17  C10 UNL     1      27.619   9.407  47.226  1.00  0.00     0.150 C 
BRANCH  16  18
HETATM   18  C11 UNL     1      28.845   9.259  49.358  1.00  0.00     0.152 C 
BRANCH  18  19
HETATM   19  C12 UNL     1      29.641  10.378  48.766  1.00  0.00     0.291 C 
BRANCH  19  20
HETATM   20  N3  UNL     1      31.006   9.936  48.643  1.00  0.00     0.081 N 
HETATM   21  C13 UNL     1      31.389   8.880  49.528  1.00  0.00     0.309 C 
HETATM   22  C14 UNL     1      31.387   9.572  47.295  1.00  0.00     0.309 C 
ENDBRANCH  19  20
ENDBRANCH  18  19
ENDBRANCH  16  18
ENDBRANCH   6  16
BRANCH   1  23
HETATM   23  N1  UNL     1      29.199   6.279  47.500  1.00  0.00    -0.322 N 
HETATM   24  C3  UNL     1      30.443   5.805  48.031  1.00  0.00     0.244 C 
HETATM   25  O1  UNL     1      30.470   5.356  49.207  1.00  0.00    -0.268 OA
HETATM   26  H4  UNL     1      29.240   6.646  46.510  1.00  0.00     0.169 HD
BRANCH  24  27
HETATM   27  C2  UNL     1      31.650   5.844  47.220  1.00  0.00     0.064 C 
HETATM   28  C1  UNL     1      32.832   5.914  47.767  1.00  0.00     0.017 C 
ENDBRANCH  24  27
ENDBRANCH   1  23
TORSDOF 6
ENDMDL
MODEL 9
REMARK VINA RESULT:      -6.3      8.539     12.005
REMARK  6 active torsions:
REMARK  status: ('A' for Active; 'I' for Inactive)
REMARK    1  A    between atoms: C2_2  and  C3_3 
REMARK       I    between atoms: C3_3  and  N1_5 
REMARK    2  A    between atoms: N1_5  and  C4_6 
REMARK    3  A    between atoms: C9_11  and  N2_12 
REMARK    4  A    between atoms: N2_12  and  C11_14 
REMARK    5  A    between atoms: C11_14  and  C12_15 
REMARK    6  A    between atoms: C12_15  and  N3_16 
ROOT
HETATM    1  C4  UNL     1      31.277   6.195  47.333  1.00  0.00     0.062 A 
HETATM    2  C5  UNL     1      29.915   6.115  47.556  1.00  0.00     0.043 A 
HETATM    3  C6  UNL     1      29.116   7.119  48.048  1.00  0.00    -0.002 A 
HETATM    4  C7  UNL     1      29.702   8.316  48.352  1.00  0.00     0.087 A 
HETATM    5  C8  UNL     1      31.066   8.443  48.146  1.00  0.00     0.069 A 
HETATM    6  C9  UNL     1      31.865   7.408  47.643  1.00  0.00     0.059 A 
HETATM    7  O2  UNL     1      29.215   9.504  48.849  1.00  0.00    -0.302 OA
HETATM    8  C15 UNL     1      28.123   9.675  49.670  1.00  0.00     0.280 C 
HETATM    9  N4  UNL     1      27.086   9.522  50.429  1.00  0.00    -0.167 NA
HETATM   10  N5  UNL     1      26.591   8.233  50.714  1.00  0.00    -0.308 N 
HETATM   11  C16 UNL     1      25.445   8.166  49.840  1.00  0.00     0.188 C 
HETATM   12  C17 UNL     1      25.902   8.383  48.449  1.00  0.00     0.104 C 
HETATM   13  N6  UNL     1      26.816   7.863  47.731  1.00  0.00    -0.299 NA
HETATM   14  C18 UNL     1      27.670   6.840  48.215  1.00  0.00     0.189 C 
HETATM   15  H21 UNL     1      27.235   7.863  51.417  1.00  0.00     0.182 HD
ENDROOT
BRANCH   6  16
HETATM   16  N2  UNL     1      33.274   7.534  47.427  1.00  0.00    -0.382 N 
HETATM   17  C10 UNL     1      34.309   7.253  48.422  1.00  0.00     0.150 C 
BRANCH  16  18
HETATM   18  C11 UNL     1      33.756   7.976  46.132  1.00  0.00     0.152 C 
BRANCH  18  19
HETATM   19  C12 UNL     1      34.788   9.057  46.197  1.00  0.00     0.291 C 
BRANCH  19  20
HETATM   20  N3  UNL     1      34.426  10.076  45.246  1.00  0.00     0.081 N 
HETATM   21  C13 UNL     1      35.002   9.930  43.946  1.00  0.00     0.309 C 
HETATM   22  C14 UNL     1      32.999  10.265  45.102  1.00  0.00     0.309 C 
ENDBRANCH  19  20
ENDBRANCH  18  19
ENDBRANCH  16  18
ENDBRANCH   6  16
BRANCH   1  23
HETATM   23  N1  UNL     1      31.989   5.061  46.816  1.00  0.00    -0.322 N 
HETATM   24  C3  UNL     1      32.510   4.056  47.696  1.00  0.00     0.244 C 
HETATM   25  O1  UNL     1      32.335   4.185  48.936  1.00  0.00    -0.268 OA
HETATM   26  H4  UNL     1      32.169   4.900  45.788  1.00  0.00     0.169 HD
BRANCH  24  27
HETATM   27  C2  UNL     1      33.227   2.911  47.158  1.00  0.00     0.064 C 
HETATM   28  C1  UNL     1      32.613   1.793  46.890  1.00  0.00     0.017 C 
ENDBRANCH  24  27
ENDBRANCH   1  23
TORSDOF 6
ENDMDL
