MODEL 1
REMARK VINA RESULT:      -8.5      0.000      0.000
REMARK  5 active torsions:
REMARK  status: ('A' for Active; 'I' for Inactive)
REMARK    1  A    between atoms: C2_2  and  C3_3 
REMARK    2  A    between atoms: C3_3  and  C4_4 
REMARK    3  A    between atoms: C4_4  and  N1_5 
REMARK       I    between atoms: N1_5  and  C5_6 
REMARK       I    between atoms: C5_6  and  N2_8 
REMARK    4  A    between atoms: N2_8  and  C6_9 
REMARK    5  A    between atoms: C15_19  and  O2_20 
ROOT
HETATM    1  C6  UNL     1      24.189   0.091  53.547  1.00  0.00     0.038 A 
HETATM    2  C7  UNL     1      23.148  -0.827  53.400  1.00  0.00     0.032 A 
HETATM    3  C8  UNL     1      22.104  -0.428  52.595  1.00  0.00     0.042 A 
HETATM    4  C9  UNL     1      22.030   0.782  51.949  1.00  0.00     0.104 A 
HETATM    5  C10 UNL     1      23.058   1.691  52.092  1.00  0.00     0.070 A 
HETATM    6  C11 UNL     1      24.099   1.285  52.898  1.00  0.00     0.062 A 
HETATM    7  N3  UNL     1      23.277   2.991  51.560  1.00  0.00    -0.339 N 
HETATM    8  C12 UNL     1      22.436   3.680  50.647  1.00  0.00     0.125 C 
HETATM    9  C13 UNL     1      23.045   3.609  49.439  1.00  0.00     0.026 C 
HETATM   10  C14 UNL     1      22.266   4.280  48.332  1.00  0.00     0.067 C 
HETATM   11  C15 UNL     1      22.080   3.225  47.235  1.00  0.00     0.147 C 
HETATM   12  C17 UNL     1      22.048   1.890  47.765  1.00  0.00     0.009 C 
HETATM   13  C18 UNL     1      21.653   1.266  48.863  1.00  0.00     0.057 C 
HETATM   14  C19 UNL     1      21.012   1.815  50.084  1.00  0.00     0.170 C 
HETATM   15  N4  UNL     1      20.466   2.441  51.021  1.00  0.00    -0.217 NA
HETATM   16  C20 UNL     1      20.134   3.796  50.971  1.00  0.00     0.238 C 
HETATM   17  N5  UNL     1      21.226   4.406  50.770  1.00  0.00    -0.225 NA
HETATM   18  O3  UNL     1      20.834   0.943  51.175  1.00  0.00    -0.290 OA
HETATM   19  H15 UNL     1      24.086   3.599  51.757  1.00  0.00     0.167 HD
ENDROOT
BRANCH   1  20
HETATM   20  N2  UNL     1      25.278  -0.313  54.381  1.00  0.00    -0.309 N 
HETATM   21  C5  UNL     1      26.478  -0.520  53.622  1.00  0.00     0.320 C 
HETATM   22  N1  UNL     1      27.710  -0.919  54.169  1.00  0.00    -0.343 N 
HETATM   23  O1  UNL     1      26.310  -0.302  52.397  1.00  0.00    -0.247 OA
HETATM   24  H10 UNL     1      27.759  -1.082  55.219  1.00  0.00     0.164 HD
HETATM   25  H11 UNL     1      25.324  -0.474  55.431  1.00  0.00     0.170 HD
BRANCH  22  26
HETATM   26  C4  UNL     1      28.905  -1.119  53.370  1.00  0.00     0.124 C 
BRANCH  26  27
HETATM   27  C3  UNL     1      29.763   0.139  53.444  1.00  0.00     0.019 C 
BRANCH  27  28
HETATM   28  C2  UNL     1      29.175   1.116  54.471  1.00  0.00    -0.003 C 
HETATM   29  C1  UNL     1      28.832   2.374  53.673  1.00  0.00     0.005 C 
ENDBRANCH  27  28
ENDBRANCH  26  27
ENDBRANCH  22  26
ENDBRANCH   1  20
BRANCH  11  30
HETATM   30  O2  UNL     1      21.123   3.583  46.371  1.00  0.00    -0.387 OA
HETATM   31  C16 UNL     1      21.545   3.931  45.089  1.00  0.00     0.202 C 
ENDBRANCH  11  30
TORSDOF 5
ENDMDL
MODEL 2
REMARK VINA RESULT:      -8.4      2.728      8.113
REMARK  5 active torsions:
REMARK  status: ('A' for Active; 'I' for Inactive)
REMARK    1  A    between atoms: C2_2  and  C3_3 
REMARK    2  A    between atoms: C3_3  and  C4_4 
REMARK    3  A    between atoms: C4_4  and  N1_5 
REMARK       I    between atoms: N1_5  and  C5_6 
REMARK       I    between atoms: C5_6  and  N2_8 
REMARK    4  A    between atoms: N2_8  and  C6_9 
REMARK    5  A    between atoms: C15_19  and  O2_20 
ROOT
HETATM    1  C6  UNL     1      22.882   4.052  51.422  1.00  0.00     0.038 A 
HETATM    2  C7  UNL     1      23.465   3.970  50.157  1.00  0.00     0.032 A 
HETATM    3  C8  UNL     1      24.723   3.408  50.109  1.00  0.00     0.042 A 
HETATM    4  C9  UNL     1      25.414   2.941  51.201  1.00  0.00     0.104 A 
HETATM    5  C10 UNL     1      24.840   3.021  52.452  1.00  0.00     0.070 A 
HETATM    6  C11 UNL     1      23.583   3.583  52.492  1.00  0.00     0.062 A 
HETATM    7  N3  UNL     1      25.284   2.627  53.745  1.00  0.00    -0.339 N 
HETATM    8  C12 UNL     1      26.500   1.963  54.051  1.00  0.00     0.125 C 
HETATM    9  C13 UNL     1      26.178   0.670  54.296  1.00  0.00     0.026 C 
HETATM   10  C14 UNL     1      27.371  -0.197  54.621  1.00  0.00     0.067 C 
HETATM   11  C15 UNL     1      27.334  -1.370  53.634  1.00  0.00     0.147 C 
HETATM   12  C17 UNL     1      26.710  -1.014  52.391  1.00  0.00     0.009 C 
HETATM   13  C18 UNL     1      26.581   0.048  51.611  1.00  0.00     0.057 C 
HETATM   14  C19 UNL     1      27.124   1.419  51.784  1.00  0.00     0.170 C 
HETATM   15  N4  UNL     1      27.672   2.506  52.079  1.00  0.00    -0.217 NA
HETATM   16  C20 UNL     1      28.530   2.682  53.166  1.00  0.00     0.238 C 
HETATM   17  N5  UNL     1      27.848   2.378  54.189  1.00  0.00    -0.225 NA
HETATM   18  O3  UNL     1      26.703   2.406  50.872  1.00  0.00    -0.290 OA
HETATM   19  H15 UNL     1      24.771   2.760  54.629  1.00  0.00     0.167 HD
ENDROOT
BRANCH   1  20
HETATM   20  N2  UNL     1      21.577   4.633  51.482  1.00  0.00    -0.309 N 
HETATM   21  C5  UNL     1      20.551   3.632  51.472  1.00  0.00     0.320 C 
HETATM   22  N1  UNL     1      19.172   3.902  51.523  1.00  0.00    -0.343 N 
HETATM   23  O1  UNL     1      21.021   2.469  51.412  1.00  0.00    -0.247 OA
HETATM   24  H10 UNL     1      18.864   4.918  51.571  1.00  0.00     0.164 HD
HETATM   25  H11 UNL     1      21.274   5.651  51.531  1.00  0.00     0.170 HD
BRANCH  22  26
HETATM   26  C4  UNL     1      18.160   2.861  51.511  1.00  0.00     0.124 C 
BRANCH  26  27
HETATM   27  C3  UNL     1      17.843   2.498  50.065  1.00  0.00     0.019 C 
BRANCH  27  28
HETATM   28  C2  UNL     1      17.289   1.068  49.992  1.00  0.00    -0.003 C 
HETATM   29  C1  UNL     1      18.300   0.209  50.752  1.00  0.00     0.005 C 
ENDBRANCH  27  28
ENDBRANCH  26  27
ENDBRANCH  22  26
ENDBRANCH   1  20
BRANCH  11  30
HETATM   30  O2  UNL     1      28.508  -2.009  53.590  1.00  0.00    -0.387 OA
HETATM   31  C16 UNL     1      29.647  -1.208  53.518  1.00  0.00     0.202 C 
ENDBRANCH  11  30
TORSDOF 5
ENDMDL
MODEL 3
REMARK VINA RESULT:      -8.1      2.787      3.605
REMARK  5 active torsions:
REMARK  status: ('A' for Active; 'I' for Inactive)
REMARK    1  A    between atoms: C2_2  and  C3_3 
REMARK    2  A    between atoms: C3_3  and  C4_4 
REMARK    3  A    between atoms: C4_4  and  N1_5 
REMARK       I    between atoms: N1_5  and  C5_6 
REMARK       I    between atoms: C5_6  and  N2_8 
REMARK    4  A    between atoms: N2_8  and  C6_9 
REMARK    5  A    between atoms: C15_19  and  O2_20 
ROOT
HETATM    1  C6  UNL     1      24.643   2.052  52.849  1.00  0.00     0.038 A 
HETATM    2  C7  UNL     1      24.166   1.295  51.778  1.00  0.00     0.032 A 
HETATM    3  C8  UNL     1      23.488   1.993  50.803  1.00  0.00     0.042 A 
HETATM    4  C9  UNL     1      23.261   3.348  50.824  1.00  0.00     0.104 A 
HETATM    5  C10 UNL     1      23.732   4.099  51.880  1.00  0.00     0.070 A 
HETATM    6  C11 UNL     1      24.409   3.394  52.851  1.00  0.00     0.062 A 
HETATM    7  N3  UNL     1      23.670   5.487  52.182  1.00  0.00    -0.339 N 
HETATM    8  C12 UNL     1      23.103   6.501  51.366  1.00  0.00     0.125 C 
HETATM    9  C13 UNL     1      24.141   7.162  50.801  1.00  0.00     0.026 C 
HETATM   10  C14 UNL     1      23.713   8.274  49.872  1.00  0.00     0.067 C 
HETATM   11  C15 UNL     1      24.395   7.999  48.527  1.00  0.00     0.147 C 
HETATM   12  C17 UNL     1      24.627   6.598  48.312  1.00  0.00     0.009 C 
HETATM   13  C18 UNL     1      24.063   5.439  48.614  1.00  0.00     0.057 C 
HETATM   14  C19 UNL     1      22.820   5.164  49.377  1.00  0.00     0.170 C 
HETATM   15  N4  UNL     1      21.748   5.117  50.022  1.00  0.00    -0.217 NA
HETATM   16  C20 UNL     1      21.005   6.240  50.392  1.00  0.00     0.238 C 
HETATM   17  N5  UNL     1      21.780   6.939  51.108  1.00  0.00    -0.225 NA
HETATM   18  O3  UNL     1      22.529   3.820  49.685  1.00  0.00    -0.290 OA
HETATM   19  H15 UNL     1      24.044   5.942  53.027  1.00  0.00     0.167 HD
ENDROOT
BRANCH   1  20
HETATM   20  N2  UNL     1      25.348   1.337  53.867  1.00  0.00    -0.309 N 
HETATM   21  C5  UNL     1      26.768   1.499  53.741  1.00  0.00     0.320 C 
HETATM   22  N1  UNL     1      27.717   0.915  54.598  1.00  0.00    -0.343 N 
HETATM   23  O1  UNL     1      27.080   2.230  52.769  1.00  0.00    -0.247 OA
HETATM   24  H10 UNL     1      27.362   0.309  55.396  1.00  0.00     0.164 HD
HETATM   25  H11 UNL     1      24.989   0.732  54.664  1.00  0.00     0.170 HD
BRANCH  22  26
HETATM   26  C4  UNL     1      29.148   1.102  54.441  1.00  0.00     0.124 C 
BRANCH  26  27
HETATM   27  C3  UNL     1      29.649   0.169  53.343  1.00  0.00     0.019 C 
BRANCH  27  28
HETATM   28  C2  UNL     1      29.960  -1.214  53.931  1.00  0.00    -0.003 C 
HETATM   29  C1  UNL     1      29.063  -2.185  53.162  1.00  0.00     0.005 C 
ENDBRANCH  27  28
ENDBRANCH  26  27
ENDBRANCH  22  26
ENDBRANCH   1  20
BRANCH  11  30
HETATM   30  O2  UNL     1      23.830   8.704  47.540  1.00  0.00    -0.387 OA
HETATM   31  C16 UNL     1      23.346   9.966  47.878  1.00  0.00     0.202 C 
ENDBRANCH  11  30
TORSDOF 5
ENDMDL
MODEL 4
REMARK VINA RESULT:      -7.9      3.269      4.223
REMARK  5 active torsions:
REMARK  status: ('A' for Active; 'I' for Inactive)
REMARK    1  A    between atoms: C2_2  and  C3_3 
REMARK    2  A    between atoms: C3_3  and  C4_4 
REMARK    3  A    between atoms: C4_4  and  N1_5 
REMARK       I    between atoms: N1_5  and  C5_6 
REMARK       I    between atoms: C5_6  and  N2_8 
REMARK    4  A    between atoms: N2_8  and  C6_9 
REMARK    5  A    between atoms: C15_19  and  O2_20 
ROOT
HETATM    1  C6  UNL     1      23.829   2.245  52.279  1.00  0.00     0.038 A 
HETATM    2  C7  UNL     1      23.313   1.742  51.083  1.00  0.00     0.032 A 
HETATM    3  C8  UNL     1      23.010   2.678  50.119  1.00  0.00     0.042 A 
HETATM    4  C9  UNL     1      23.178   4.034  50.261  1.00  0.00     0.104 A 
HETATM    5  C10 UNL     1      23.687   4.533  51.441  1.00  0.00     0.070 A 
HETATM    6  C11 UNL     1      23.989   3.593  52.401  1.00  0.00     0.062 A 
HETATM    7  N3  UNL     1      23.982   5.853  51.884  1.00  0.00    -0.339 N 
HETATM    8  C12 UNL     1      23.849   7.045  51.124  1.00  0.00     0.125 C 
HETATM    9  C13 UNL     1      25.103   7.406  50.759  1.00  0.00     0.026 C 
HETATM   10  C14 UNL     1      25.147   8.657  49.915  1.00  0.00     0.067 C 
HETATM   11  C15 UNL     1      25.907   8.288  48.635  1.00  0.00     0.147 C 
HETATM   12  C17 UNL     1      25.758   6.900  48.296  1.00  0.00     0.009 C 
HETATM   13  C18 UNL     1      24.850   5.943  48.402  1.00  0.00     0.057 C 
HETATM   14  C19 UNL     1      23.485   5.996  48.981  1.00  0.00     0.170 C 
HETATM   15  N4  UNL     1      22.362   6.224  49.489  1.00  0.00    -0.217 NA
HETATM   16  C20 UNL     1      21.926   7.488  49.891  1.00  0.00     0.238 C 
HETATM   17  N5  UNL     1      22.758   7.873  50.764  1.00  0.00    -0.225 NA
HETATM   18  O3  UNL     1      22.781   4.782  49.104  1.00  0.00    -0.290 OA
HETATM   19  H15 UNL     1      24.345   6.115  52.812  1.00  0.00     0.167 HD
ENDROOT
BRANCH   1  20
HETATM   20  N2  UNL     1      24.148   1.283  53.287  1.00  0.00    -0.309 N 
HETATM   21  C5  UNL     1      25.552   0.994  53.318  1.00  0.00     0.320 C 
HETATM   22  N1  UNL     1      26.162   0.089  54.204  1.00  0.00    -0.343 N 
HETATM   23  O1  UNL     1      26.192   1.647  52.457  1.00  0.00    -0.247 OA
HETATM   24  H10 UNL     1      25.541  -0.421  54.900  1.00  0.00     0.164 HD
HETATM   25  H11 UNL     1      23.524   0.775  53.982  1.00  0.00     0.170 HD
BRANCH  22  26
HETATM   26  C4  UNL     1      27.589  -0.178  54.208  1.00  0.00     0.124 C 
BRANCH  26  27
HETATM   27  C3  UNL     1      27.882  -1.303  53.221  1.00  0.00     0.019 C 
BRANCH  27  28
HETATM   28  C2  UNL     1      29.365  -1.694  53.296  1.00  0.00    -0.003 C 
HETATM   29  C1  UNL     1      30.108  -0.387  53.573  1.00  0.00     0.005 C 
ENDBRANCH  27  28
ENDBRANCH  26  27
ENDBRANCH  22  26
ENDBRANCH   1  20
BRANCH  11  30
HETATM   30  O2  UNL     1      25.713   9.197  47.673  1.00  0.00    -0.387 OA
HETATM   31  C16 UNL     1      24.503   9.887  47.707  1.00  0.00     0.202 C 
ENDBRANCH  11  30
TORSDOF 5
ENDMDL
MODEL 5
REMARK VINA RESULT:      -7.8      4.017      6.492
REMARK  5 active torsions:
REMARK  status: ('A' for Active; 'I' for Inactive)
REMARK    1  A    between atoms: C2_2  and  C3_3 
REMARK    2  A    between atoms: C3_3  and  C4_4 
REMARK    3  A    between atoms: C4_4  and  N1_5 
REMARK       I    between atoms: N1_5  and  C5_6 
REMARK       I    between atoms: C5_6  and  N2_8 
REMARK    4  A    between atoms: N2_8  and  C6_9 
REMARK    5  A    between atoms: C15_19  and  O2_20 
ROOT
HETATM    1  C6  UNL     1      24.377   6.577  50.845  1.00  0.00     0.038 A 
HETATM    2  C7  UNL     1      23.198   7.313  50.721  1.00  0.00     0.032 A 
HETATM    3  C8  UNL     1      22.062   6.587  50.437  1.00  0.00     0.042 A 
HETATM    4  C9  UNL     1      22.025   5.224  50.273  1.00  0.00     0.104 A 
HETATM    5  C10 UNL     1      23.188   4.493  50.396  1.00  0.00     0.070 A 
HETATM    6  C11 UNL     1      24.319   5.226  50.681  1.00  0.00     0.062 A 
HETATM    7  N3  UNL     1      23.470   3.103  50.296  1.00  0.00    -0.339 N 
HETATM    8  C12 UNL     1      22.526   2.066  50.076  1.00  0.00     0.125 C 
HETATM    9  C13 UNL     1      22.348   1.452  51.270  1.00  0.00     0.026 C 
HETATM   10  C14 UNL     1      21.345   0.323  51.223  1.00  0.00     0.067 C 
HETATM   11  C15 UNL     1      20.300   0.630  52.303  1.00  0.00     0.147 C 
HETATM   12  C17 UNL     1      20.155   2.040  52.534  1.00  0.00     0.009 C 
HETATM   13  C18 UNL     1      20.237   3.173  51.853  1.00  0.00     0.057 C 
HETATM   14  C19 UNL     1      20.539   3.392  50.417  1.00  0.00     0.170 C 
HETATM   15  N4  UNL     1      20.789   3.391  49.189  1.00  0.00    -0.217 NA
HETATM   16  C20 UNL     1      20.905   2.236  48.414  1.00  0.00     0.238 C 
HETATM   17  N5  UNL     1      21.848   1.570  48.935  1.00  0.00    -0.225 NA
HETATM   18  O3  UNL     1      20.713   4.721  49.983  1.00  0.00    -0.290 OA
HETATM   19  H15 UNL     1      24.398   2.664  50.385  1.00  0.00     0.167 HD
ENDROOT
BRANCH   1  20
HETATM   20  N2  UNL     1      25.562   7.321  51.140  1.00  0.00    -0.309 N 
HETATM   21  C5  UNL     1      26.281   7.665  49.948  1.00  0.00     0.320 C 
HETATM   22  N1  UNL     1      27.482   8.396  49.923  1.00  0.00    -0.343 N 
HETATM   23  O1  UNL     1      25.715   7.240  48.911  1.00  0.00    -0.247 OA
HETATM   24  H10 UNL     1      27.890   8.716  50.851  1.00  0.00     0.164 HD
HETATM   25  H11 UNL     1      25.966   7.640  52.070  1.00  0.00     0.170 HD
BRANCH  22  26
HETATM   26  C4  UNL     1      28.183   8.727  48.696  1.00  0.00     0.124 C 
BRANCH  26  27
HETATM   27  C3  UNL     1      29.382   7.797  48.547  1.00  0.00     0.019 C 
BRANCH  27  28
HETATM   28  C2  UNL     1      29.079   6.714  47.503  1.00  0.00    -0.003 C 
HETATM   29  C1  UNL     1      28.798   5.447  48.312  1.00  0.00     0.005 C 
ENDBRANCH  27  28
ENDBRANCH  26  27
ENDBRANCH  22  26
ENDBRANCH   1  20
BRANCH  11  30
HETATM   30  O2  UNL     1      19.190  -0.097  52.129  1.00  0.00    -0.387 OA
HETATM   31  C16 UNL     1      18.814  -0.917  53.191  1.00  0.00     0.202 C 
ENDBRANCH  11  30
TORSDOF 5
ENDMDL
MODEL 6
REMARK VINA RESULT:      -7.5      7.426      9.740
REMARK  5 active torsions:
REMARK  status: ('A' for Active; 'I' for Inactive)
REMARK    1  A    between atoms: C2_2  and  C3_3 
REMARK    2  A    between atoms: C3_3  and  C4_4 
REMARK    3  A    between atoms: C4_4  and  N1_5 
REMARK       I    between atoms: N1_5  and  C5_6 
REMARK       I    between atoms: C5_6  and  N2_8 
REMARK    4  A    between atoms: N2_8  and  C6_9 
REMARK    5  A    between atoms: C15_19  and  O2_20 
ROOT
HETATM    1  C6  UNL     1      25.103   8.311  50.258  1.00  0.00     0.038 A 
HETATM    2  C7  UNL     1      24.566   8.513  48.986  1.00  0.00     0.032 A 
HETATM    3  C8  UNL     1      25.445   8.969  48.028  1.00  0.00     0.042 A 
HETATM    4  C9  UNL     1      26.776   9.230  48.247  1.00  0.00     0.104 A 
HETATM    5  C10 UNL     1      27.309   9.032  49.503  1.00  0.00     0.070 A 
HETATM    6  C11 UNL     1      26.425   8.575  50.455  1.00  0.00     0.062 A 
HETATM    7  N3  UNL     1      28.619   9.197  50.034  1.00  0.00    -0.339 N 
HETATM    8  C12 UNL     1      29.776   9.591  49.312  1.00  0.00     0.125 C 
HETATM    9  C13 UNL     1      30.513   8.469  49.131  1.00  0.00     0.026 C 
HETATM   10  C14 UNL     1      31.785   8.703  48.352  1.00  0.00     0.067 C 
HETATM   11  C15 UNL     1      31.754   7.726  47.170  1.00  0.00     0.147 C 
HETATM   12  C17 UNL     1      30.413   7.415  46.758  1.00  0.00     0.009 C 
HETATM   13  C18 UNL     1      29.228   8.002  46.704  1.00  0.00     0.057 C 
HETATM   14  C19 UNL     1      28.837   9.378  47.099  1.00  0.00     0.170 C 
HETATM   15  N4  UNL     1      28.689  10.568  47.462  1.00  0.00    -0.217 NA
HETATM   16  C20 UNL     1      29.736  11.404  47.853  1.00  0.00     0.238 C 
HETATM   17  N5  UNL     1      30.277  10.831  48.844  1.00  0.00    -0.225 NA
HETATM   18  O3  UNL     1      27.465   9.697  47.078  1.00  0.00    -0.290 OA
HETATM   19  H15 UNL     1      28.902   9.037  51.011  1.00  0.00     0.167 HD
ENDROOT
BRANCH   1  20
HETATM   20  N2  UNL     1      24.199   7.837  51.260  1.00  0.00    -0.309 N 
HETATM   21  C5  UNL     1      24.062   6.410  51.217  1.00  0.00     0.320 C 
HETATM   22  N1  UNL     1      23.244   5.661  52.080  1.00  0.00    -0.343 N 
HETATM   23  O1  UNL     1      24.763   5.891  50.313  1.00  0.00    -0.247 OA
HETATM   24  H10 UNL     1      22.684   6.185  52.816  1.00  0.00     0.164 HD
HETATM   25  H11 UNL     1      23.641   8.365  51.995  1.00  0.00     0.170 HD
BRANCH  22  26
HETATM   26  C4  UNL     1      23.130   4.215  52.008  1.00  0.00     0.124 C 
BRANCH  26  27
HETATM   27  C3  UNL     1      24.078   3.595  53.028  1.00  0.00     0.019 C 
BRANCH  27  28
HETATM   28  C2  UNL     1      24.089   2.068  52.874  1.00  0.00    -0.003 C 
HETATM   29  C1  UNL     1      23.425   1.798  51.524  1.00  0.00     0.005 C 
ENDBRANCH  27  28
ENDBRANCH  26  27
ENDBRANCH  22  26
ENDBRANCH   1  20
BRANCH  11  30
HETATM   30  O2  UNL     1      32.639   8.071  46.228  1.00  0.00    -0.387 OA
HETATM   31  C16 UNL     1      32.616   9.401  45.812  1.00  0.00     0.202 C 
ENDBRANCH  11  30
TORSDOF 5
ENDMDL
MODEL 7
REMARK VINA RESULT:      -7.5      3.869      7.098
REMARK  5 active torsions:
REMARK  status: ('A' for Active; 'I' for Inactive)
REMARK    1  A    between atoms: C2_2  and  C3_3 
REMARK    2  A    between atoms: C3_3  and  C4_4 
REMARK    3  A    between atoms: C4_4  and  N1_5 
REMARK       I    between atoms: N1_5  and  C5_6 
REMARK       I    between atoms: C5_6  and  N2_8 
REMARK    4  A    between atoms: N2_8  and  C6_9 
REMARK    5  A    between atoms: C15_19  and  O2_20 
ROOT
HETATM    1  C6  UNL     1      20.058  -0.255  53.293  1.00  0.00     0.038 A 
HETATM    2  C7  UNL     1      21.308  -0.859  53.441  1.00  0.00     0.032 A 
HETATM    3  C8  UNL     1      22.357  -0.234  52.803  1.00  0.00     0.042 A 
HETATM    4  C9  UNL     1      22.247   0.911  52.051  1.00  0.00     0.104 A 
HETATM    5  C10 UNL     1      21.013   1.509  51.904  1.00  0.00     0.070 A 
HETATM    6  C11 UNL     1      19.969   0.880  52.546  1.00  0.00     0.062 A 
HETATM    7  N3  UNL     1      20.583   2.677  51.216  1.00  0.00    -0.339 N 
HETATM    8  C12 UNL     1      21.408   3.589  50.507  1.00  0.00     0.125 C 
HETATM    9  C13 UNL     1      21.531   4.684  51.295  1.00  0.00     0.026 C 
HETATM   10  C14 UNL     1      22.406   5.761  50.699  1.00  0.00     0.067 C 
HETATM   11  C15 UNL     1      23.489   6.064  51.742  1.00  0.00     0.147 C 
HETATM   12  C17 UNL     1      23.786   4.924  52.564  1.00  0.00     0.009 C 
HETATM   13  C18 UNL     1      23.820   3.605  52.459  1.00  0.00     0.057 C 
HETATM   14  C19 UNL     1      23.529   2.742  51.287  1.00  0.00     0.170 C 
HETATM   15  N4  UNL     1      23.269   2.174  50.202  1.00  0.00    -0.217 NA
HETATM   16  C20 UNL     1      23.022   2.847  49.003  1.00  0.00     0.238 C 
HETATM   17  N5  UNL     1      22.019   3.585  49.229  1.00  0.00    -0.225 NA
HETATM   18  O3  UNL     1      23.494   1.350  51.496  1.00  0.00    -0.290 OA
HETATM   19  H15 UNL     1      19.614   3.023  51.153  1.00  0.00     0.167 HD
ENDROOT
BRANCH   1  20
HETATM   20  N2  UNL     1      18.963  -0.896  53.953  1.00  0.00    -0.309 N 
HETATM   21  C5  UNL     1      17.933  -1.270  53.027  1.00  0.00     0.320 C 
HETATM   22  N1  UNL     1      16.737  -1.918  53.383  1.00  0.00    -0.343 N 
HETATM   23  O1  UNL     1      18.218  -0.956  51.845  1.00  0.00    -0.247 OA
HETATM   24  H10 UNL     1      16.580  -2.146  54.409  1.00  0.00     0.164 HD
HETATM   25  H11 UNL     1      18.810  -1.123  54.980  1.00  0.00     0.170 HD
BRANCH  22  26
HETATM   26  C4  UNL     1      15.717  -2.283  52.417  1.00  0.00     0.124 C 
BRANCH  26  27
HETATM   27  C3  UNL     1      15.270  -3.715  52.689  1.00  0.00     0.019 C 
BRANCH  27  28
HETATM   28  C2  UNL     1      16.446  -4.537  53.235  1.00  0.00    -0.003 C 
HETATM   29  C1  UNL     1      15.863  -5.347  54.393  1.00  0.00     0.005 C 
ENDBRANCH  27  28
ENDBRANCH  26  27
ENDBRANCH  22  26
ENDBRANCH   1  20
BRANCH  11  30
HETATM   30  O2  UNL     1      24.512   6.736  51.202  1.00  0.00    -0.387 OA
HETATM   31  C16 UNL     1      25.067   6.195  50.044  1.00  0.00     0.202 C 
ENDBRANCH  11  30
TORSDOF 5
ENDMDL
MODEL 8
REMARK VINA RESULT:      -7.4      6.225      8.007
REMARK  5 active torsions:
REMARK  status: ('A' for Active; 'I' for Inactive)
REMARK    1  A    between atoms: C2_2  and  C3_3 
REMARK    2  A    between atoms: C3_3  and  C4_4 
REMARK    3  A    between atoms: C4_4  and  N1_5 
REMARK       I    between atoms: N1_5  and  C5_6 
REMARK       I    between atoms: C5_6  and  N2_8 
REMARK    4  A    between atoms: N2_8  and  C6_9 
REMARK    5  A    between atoms: C15_19  and  O2_20 
ROOT
HETATM    1  C6  UNL     1      25.055   4.505  49.087  1.00  0.00     0.038 A 
HETATM    2  C7  UNL     1      24.074   5.448  48.776  1.00  0.00     0.032 A 
HETATM    3  C8  UNL     1      24.530   6.708  48.458  1.00  0.00     0.042 A 
HETATM    4  C9  UNL     1      25.853   7.079  48.432  1.00  0.00     0.104 A 
HETATM    5  C10 UNL     1      26.824   6.150  48.738  1.00  0.00     0.070 A 
HETATM    6  C11 UNL     1      26.361   4.892  49.054  1.00  0.00     0.062 A 
HETATM    7  N3  UNL     1      28.244   6.218  48.790  1.00  0.00    -0.339 N 
HETATM    8  C12 UNL     1      29.045   7.343  48.462  1.00  0.00     0.125 C 
HETATM    9  C13 UNL     1      29.583   7.087  47.245  1.00  0.00     0.026 C 
HETATM   10  C14 UNL     1      30.457   8.204  46.726  1.00  0.00     0.067 C 
HETATM   11  C15 UNL     1      29.905   8.578  45.346  1.00  0.00     0.147 C 
HETATM   12  C17 UNL     1      28.495   8.328  45.238  1.00  0.00     0.009 C 
HETATM   13  C18 UNL     1      27.421   8.339  46.013  1.00  0.00     0.057 C 
HETATM   14  C19 UNL     1      27.300   8.671  47.454  1.00  0.00     0.170 C 
HETATM   15  N4  UNL     1      27.378   8.998  48.661  1.00  0.00    -0.217 NA
HETATM   16  C20 UNL     1      28.542   9.467  49.273  1.00  0.00     0.238 C 
HETATM   17  N5  UNL     1      29.394   8.540  49.135  1.00  0.00    -0.225 NA
HETATM   18  O3  UNL     1      26.052   8.453  48.070  1.00  0.00    -0.290 OA
HETATM   19  H15 UNL     1      28.879   5.453  49.059  1.00  0.00     0.167 HD
ENDROOT
BRANCH   1  20
HETATM   20  N2  UNL     1      24.592   3.193  49.417  1.00  0.00    -0.309 N 
HETATM   21  C5  UNL     1      24.331   3.062  50.822  1.00  0.00     0.320 C 
HETATM   22  N1  UNL     1      23.865   1.890  51.441  1.00  0.00    -0.343 N 
HETATM   23  O1  UNL     1      24.565   4.124  51.451  1.00  0.00    -0.247 OA
HETATM   24  H10 UNL     1      23.694   1.037  50.829  1.00  0.00     0.164 HD
HETATM   25  H11 UNL     1      24.422   2.343  48.802  1.00  0.00     0.170 HD
BRANCH  22  26
HETATM   26  C4  UNL     1      23.611   1.794  52.867  1.00  0.00     0.124 C 
BRANCH  26  27
HETATM   27  C3  UNL     1      23.731   0.334  53.292  1.00  0.00     0.019 C 
BRANCH  27  28
HETATM   28  C2  UNL     1      25.159  -0.169  53.042  1.00  0.00    -0.003 C 
HETATM   29  C1  UNL     1      25.834  -0.150  54.414  1.00  0.00     0.005 C 
ENDBRANCH  27  28
ENDBRANCH  26  27
ENDBRANCH  22  26
ENDBRANCH   1  20
BRANCH  11  30
HETATM   30  O2  UNL     1      30.366   9.767  44.941  1.00  0.00    -0.387 OA
HETATM   31  C16 UNL     1      30.309  10.804  45.870  1.00  0.00     0.202 C 
ENDBRANCH  11  30
TORSDOF 5
ENDMDL
MODEL 9
REMARK VINA RESULT:      -7.4      6.756      9.083
REMARK  5 active torsions:
REMARK  status: ('A' for Active; 'I' for Inactive)
REMARK    1  A    between atoms: C2_2  and  C3_3 
REMARK    2  A    between atoms: C3_3  and  C4_4 
REMARK    3  A    between atoms: C4_4  and  N1_5 
REMARK       I    between atoms: N1_5  and  C5_6 
REMARK       I    between atoms: C5_6  and  N2_8 
REMARK    4  A    between atoms: N2_8  and  C6_9 
REMARK    5  A    between atoms: C15_19  and  O2_20 
ROOT
HETATM    1  C6  UNL     1      25.837   5.056  49.985  1.00  0.00     0.038 A 
HETATM    2  C7  UNL     1      26.806   4.239  49.401  1.00  0.00     0.032 A 
HETATM    3  C8  UNL     1      27.723   4.876  48.593  1.00  0.00     0.042 A 
HETATM    4  C9  UNL     1      27.737   6.226  48.337  1.00  0.00     0.104 A 
HETATM    5  C10 UNL     1      26.781   7.036  48.914  1.00  0.00     0.070 A 
HETATM    6  C11 UNL     1      25.868   6.392  49.720  1.00  0.00     0.062 A 
HETATM    7  N3  UNL     1      26.539   8.436  48.854  1.00  0.00    -0.339 N 
HETATM    8  C12 UNL     1      27.325   9.398  48.167  1.00  0.00     0.125 C 
HETATM    9  C13 UNL     1      28.042  10.050  49.114  1.00  0.00     0.026 C 
HETATM   10  C14 UNL     1      28.962  11.107  48.550  1.00  0.00     0.067 C 
HETATM   11  C15 UNL     1      30.366  10.780  49.071  1.00  0.00     0.147 C 
HETATM   12  C17 UNL     1      30.543   9.375  49.310  1.00  0.00     0.009 C 
HETATM   13  C18 UNL     1      30.122   8.222  48.815  1.00  0.00     0.057 C 
HETATM   14  C19 UNL     1      29.201   7.960  47.681  1.00  0.00     0.170 C 
HETATM   15  N4  UNL     1      28.429   7.924  46.695  1.00  0.00    -0.217 NA
HETATM   16  C20 UNL     1      28.024   9.050  45.975  1.00  0.00     0.238 C 
HETATM   17  N5  UNL     1      27.440   9.798  46.813  1.00  0.00    -0.225 NA
HETATM   18  O3  UNL     1      28.799   6.628  47.462  1.00  0.00    -0.290 OA
HETATM   19  H15 UNL     1      25.766   8.939  49.316  1.00  0.00     0.167 HD
ENDROOT
BRANCH   1  20
HETATM   20  N2  UNL     1      24.881   4.405  50.825  1.00  0.00    -0.309 N 
HETATM   21  C5  UNL     1      23.783   3.877  50.068  1.00  0.00     0.320 C 
HETATM   22  N1  UNL     1      22.692   3.184  50.620  1.00  0.00    -0.343 N 
HETATM   23  O1  UNL     1      23.902   4.101  48.838  1.00  0.00    -0.247 OA
HETATM   24  H10 UNL     1      22.675   3.040  51.674  1.00  0.00     0.164 HD
HETATM   25  H11 UNL     1      24.867   4.263  51.879  1.00  0.00     0.170 HD
BRANCH  22  26
HETATM   26  C4  UNL     1      21.598   2.662  49.822  1.00  0.00     0.124 C 
BRANCH  26  27
HETATM   27  C3  UNL     1      21.674   1.140  49.816  1.00  0.00     0.019 C 
BRANCH  27  28
HETATM   28  C2  UNL     1      20.714   0.562  50.864  1.00  0.00    -0.003 C 
HETATM   29  C1  UNL     1      21.614   0.028  51.979  1.00  0.00     0.005 C 
ENDBRANCH  27  28
ENDBRANCH  26  27
ENDBRANCH  22  26
ENDBRANCH   1  20
BRANCH  11  30
HETATM   30  O2  UNL     1      31.308  11.425  48.374  1.00  0.00    -0.387 OA
HETATM   31  C16 UNL     1      31.227  11.329  46.986  1.00  0.00     0.202 C 
ENDBRANCH  11  30
TORSDOF 5
ENDMDL
