MODEL 1
REMARK VINA RESULT:      -7.3      0.000      0.000
REMARK  6 active torsions:
REMARK  status: ('A' for Active; 'I' for Inactive)
REMARK    1  A    between atoms: C3_4  and  C4_6 
REMARK    2  A    between atoms: C5_7  and  C6_8 
REMARK    3  A    between atoms: C6_8  and  C7_9 
REMARK    4  A    between atoms: C7_9  and  C8_10 
REMARK       I    between atoms: C8_10  and  N1_12 
REMARK    5  A    between atoms: N1_12  and  C9_13 
REMARK    6  A    between atoms: C13_17  and  O2_19 
ROOT
HETATM    1  C8  UNL     1      26.078   1.782  53.063  1.00  0.00     0.222 C 
HETATM    2  O1  UNL     1      26.504   2.277  54.136  1.00  0.00    -0.273 OA
HETATM    3  N1  UNL     1      26.467   0.580  52.395  1.00  0.00    -0.325 N 
HETATM    4  H10 UNL     1      25.958   0.364  51.479  1.00  0.00     0.168 HD
ENDROOT
BRANCH   1   5
HETATM    5  C7  UNL     1      25.030   2.580  52.433  1.00  0.00     0.107 C 
BRANCH   5   6
HETATM    6  C6  UNL     1      23.639   2.352  52.889  1.00  0.00     0.036 C 
BRANCH   6   7
HETATM    7  C5  UNL     1      22.947   1.204  52.265  1.00  0.00    -0.023 C 
HETATM    8  C4  UNL     1      22.766  -0.045  52.714  1.00  0.00     0.041 C 
BRANCH   8   9
HETATM    9  C3  UNL     1      23.214  -0.625  53.971  1.00  0.00     0.149 C 
HETATM   10  C2  UNL     1      22.366  -1.321  54.751  1.00  0.00     0.128 C 
HETATM   11  C1  UNL     1      20.949  -1.472  54.274  1.00  0.00     0.085 C 
HETATM   12  F1  UNL     1      22.778  -1.862  55.919  1.00  0.00    -0.208 F 
HETATM   13  F2  UNL     1      24.487  -0.511  54.437  1.00  0.00    -0.203 F 
ENDBRANCH   8   9
ENDBRANCH   6   7
ENDBRANCH   5   6
ENDBRANCH   1   5
BRANCH   3  14
HETATM   14  C9  UNL     1      27.476  -0.362  52.821  1.00  0.00     0.086 A 
HETATM   15  C10 UNL     1      27.142  -1.588  52.355  1.00  0.00     0.031 A 
HETATM   16  C11 UNL     1      28.120  -2.595  52.746  1.00  0.00     0.004 A 
HETATM   17  C12 UNL     1      29.039  -1.957  53.447  1.00  0.00     0.056 A 
HETATM   18  C13 UNL     1      28.751  -0.504  53.570  1.00  0.00     0.301 A 
HETATM   19  F3  UNL     1      29.742   0.239  52.919  1.00  0.00    -0.197 F 
BRANCH  18  20
HETATM   20  O2  UNL     1      28.695  -0.215  54.902  1.00  0.00    -0.142 OA
HETATM   21  F4  UNL     1      27.522  -0.177  55.455  1.00  0.00    -0.044 F 
ENDBRANCH  18  20
ENDBRANCH   3  14
TORSDOF 6
ENDMDL
MODEL 2
REMARK VINA RESULT:      -7.1      1.948      3.480
REMARK  6 active torsions:
REMARK  status: ('A' for Active; 'I' for Inactive)
REMARK    1  A    between atoms: C3_4  and  C4_6 
REMARK    2  A    between atoms: C5_7  and  C6_8 
REMARK    3  A    between atoms: C6_8  and  C7_9 
REMARK    4  A    between atoms: C7_9  and  C8_10 
REMARK       I    between atoms: C8_10  and  N1_12 
REMARK    5  A    between atoms: N1_12  and  C9_13 
REMARK    6  A    between atoms: C13_17  and  O2_19 
ROOT
HETATM    1  C8  UNL     1      25.042  -0.756  54.374  1.00  0.00     0.222 C 
HETATM    2  O1  UNL     1      25.259  -0.985  55.589  1.00  0.00    -0.273 OA
HETATM    3  N1  UNL     1      25.969  -0.536  53.307  1.00  0.00    -0.325 N 
HETATM    4  H10 UNL     1      25.542  -0.355  52.343  1.00  0.00     0.168 HD
ENDROOT
BRANCH   1   5
HETATM    5  C7  UNL     1      23.622  -0.718  54.035  1.00  0.00     0.107 C 
BRANCH   5   6
HETATM    6  C6  UNL     1      23.252  -0.109  52.737  1.00  0.00     0.036 C 
BRANCH   6   7
HETATM    7  C5  UNL     1      22.787   1.293  52.803  1.00  0.00    -0.023 C 
HETATM    8  C4  UNL     1      23.479   2.438  52.747  1.00  0.00     0.041 C 
BRANCH   8   9
HETATM    9  C3  UNL     1      24.916   2.617  52.600  1.00  0.00     0.149 C 
HETATM   10  C2  UNL     1      25.458   2.894  51.400  1.00  0.00     0.128 C 
HETATM   11  C1  UNL     1      24.527   3.009  50.227  1.00  0.00     0.085 C 
HETATM   12  F1  UNL     1      26.792   3.061  51.260  1.00  0.00    -0.208 F 
HETATM   13  F2  UNL     1      25.792   2.521  53.636  1.00  0.00    -0.203 F 
ENDBRANCH   8   9
ENDBRANCH   6   7
ENDBRANCH   5   6
ENDBRANCH   1   5
BRANCH   3  14
HETATM   14  C9  UNL     1      27.410  -0.523  53.398  1.00  0.00     0.086 A 
HETATM   15  C10 UNL     1      27.873  -1.750  53.068  1.00  0.00     0.031 A 
HETATM   16  C11 UNL     1      29.327  -1.812  53.136  1.00  0.00     0.004 A 
HETATM   17  C12 UNL     1      29.725  -0.609  53.508  1.00  0.00     0.056 A 
HETATM   18  C13 UNL     1      28.589   0.328  53.708  1.00  0.00     0.301 A 
HETATM   19  F3  UNL     1      28.653   1.367  52.773  1.00  0.00    -0.197 F 
BRANCH  18  20
HETATM   20  O2  UNL     1      28.669   0.792  54.988  1.00  0.00    -0.142 OA
HETATM   21  F4  UNL     1      28.259   0.005  55.935  1.00  0.00    -0.044 F 
ENDBRANCH  18  20
ENDBRANCH   3  14
TORSDOF 6
ENDMDL
MODEL 3
REMARK VINA RESULT:      -7.0      1.854      2.365
REMARK  6 active torsions:
REMARK  status: ('A' for Active; 'I' for Inactive)
REMARK    1  A    between atoms: C3_4  and  C4_6 
REMARK    2  A    between atoms: C5_7  and  C6_8 
REMARK    3  A    between atoms: C6_8  and  C7_9 
REMARK    4  A    between atoms: C7_9  and  C8_10 
REMARK       I    between atoms: C8_10  and  N1_12 
REMARK    5  A    between atoms: N1_12  and  C9_13 
REMARK    6  A    between atoms: C13_17  and  O2_19 
ROOT
HETATM    1  C8  UNL     1      25.699   2.496  51.876  1.00  0.00     0.222 C 
HETATM    2  O1  UNL     1      26.293   2.090  50.847  1.00  0.00    -0.273 OA
HETATM    3  N1  UNL     1      25.987   2.247  53.254  1.00  0.00    -0.325 N 
HETATM    4  H10 UNL     1      25.329   2.704  53.962  1.00  0.00     0.168 HD
ENDROOT
BRANCH   1   5
HETATM    5  C7  UNL     1      24.549   3.348  51.584  1.00  0.00     0.107 C 
BRANCH   5   6
HETATM    6  C6  UNL     1      23.275   3.023  52.267  1.00  0.00     0.036 C 
BRANCH   6   7
HETATM    7  C5  UNL     1      22.477   1.947  51.642  1.00  0.00    -0.023 C 
HETATM    8  C4  UNL     1      22.315   0.667  52.004  1.00  0.00     0.041 C 
BRANCH   8   9
HETATM    9  C3  UNL     1      22.897  -0.027  53.143  1.00  0.00     0.149 C 
HETATM   10  C2  UNL     1      22.167  -0.282  54.244  1.00  0.00     0.128 C 
HETATM   11  C1  UNL     1      20.737   0.178  54.249  1.00  0.00     0.085 C 
HETATM   12  F1  UNL     1      22.703  -0.927  55.303  1.00  0.00    -0.208 F 
HETATM   13  F2  UNL     1      24.187  -0.460  53.177  1.00  0.00    -0.203 F 
ENDBRANCH   8   9
ENDBRANCH   6   7
ENDBRANCH   5   6
ENDBRANCH   1   5
BRANCH   3  14
HETATM   14  C9  UNL     1      27.061   1.439  53.784  1.00  0.00     0.086 A 
HETATM   15  C10 UNL     1      28.200   2.168  53.756  1.00  0.00     0.031 A 
HETATM   16  C11 UNL     1      29.332   1.414  54.280  1.00  0.00     0.004 A 
HETATM   17  C12 UNL     1      28.854   0.231  54.622  1.00  0.00     0.056 A 
HETATM   18  C13 UNL     1      27.397   0.111  54.360  1.00  0.00     0.301 A 
HETATM   19  F3  UNL     1      26.704  -0.046  55.565  1.00  0.00    -0.197 F 
BRANCH  18  20
HETATM   20  O2  UNL     1      27.222  -0.959  53.532  1.00  0.00    -0.142 OA
HETATM   21  F4  UNL     1      27.089  -0.717  52.264  1.00  0.00    -0.044 F 
ENDBRANCH  18  20
ENDBRANCH   3  14
TORSDOF 6
ENDMDL
MODEL 4
REMARK VINA RESULT:      -6.9      2.336      3.822
REMARK  6 active torsions:
REMARK  status: ('A' for Active; 'I' for Inactive)
REMARK    1  A    between atoms: C3_4  and  C4_6 
REMARK    2  A    between atoms: C5_7  and  C6_8 
REMARK    3  A    between atoms: C6_8  and  C7_9 
REMARK    4  A    between atoms: C7_9  and  C8_10 
REMARK       I    between atoms: C8_10  and  N1_12 
REMARK    5  A    between atoms: N1_12  and  C9_13 
REMARK    6  A    between atoms: C13_17  and  O2_19 
ROOT
HETATM    1  C8  UNL     1      24.815  -0.640  54.602  1.00  0.00     0.222 C 
HETATM    2  O1  UNL     1      25.201  -1.405  55.520  1.00  0.00    -0.273 OA
HETATM    3  N1  UNL     1      25.560   0.302  53.826  1.00  0.00    -0.325 N 
HETATM    4  H10 UNL     1      25.006   0.851  53.094  1.00  0.00     0.168 HD
ENDROOT
BRANCH   1   5
HETATM    5  C7  UNL     1      23.389  -0.757  54.310  1.00  0.00     0.107 C 
BRANCH   5   6
HETATM    6  C6  UNL     1      22.959  -0.491  52.918  1.00  0.00     0.036 C 
BRANCH   6   7
HETATM    7  C5  UNL     1      21.977   0.603  52.755  1.00  0.00    -0.023 C 
HETATM    8  C4  UNL     1      22.168   1.915  52.566  1.00  0.00     0.041 C 
BRANCH   8   9
HETATM    9  C3  UNL     1      23.426   2.639  52.467  1.00  0.00     0.149 C 
HETATM   10  C2  UNL     1      23.962   2.933  51.268  1.00  0.00     0.128 C 
HETATM   11  C1  UNL     1      23.212   2.486  50.045  1.00  0.00     0.085 C 
HETATM   12  F1  UNL     1      25.130   3.605  51.172  1.00  0.00    -0.208 F 
HETATM   13  F2  UNL     1      24.135   3.060  53.549  1.00  0.00    -0.203 F 
ENDBRANCH   8   9
ENDBRANCH   6   7
ENDBRANCH   5   6
ENDBRANCH   1   5
BRANCH   3  14
HETATM   14  C9  UNL     1      26.970   0.595  53.935  1.00  0.00     0.086 A 
HETATM   15  C10 UNL     1      27.188   1.842  53.458  1.00  0.00     0.031 A 
HETATM   16  C11 UNL     1      28.596   2.208  53.537  1.00  0.00     0.004 A 
HETATM   17  C12 UNL     1      29.213   1.168  54.067  1.00  0.00     0.056 A 
HETATM   18  C13 UNL     1      28.281   0.054  54.379  1.00  0.00     0.301 A 
HETATM   19  F3  UNL     1      28.235  -0.162  55.760  1.00  0.00    -0.197 F 
BRANCH  18  20
HETATM   20  O2  UNL     1      28.729  -1.047  53.709  1.00  0.00    -0.142 OA
HETATM   21  F4  UNL     1      29.969  -1.048  53.325  1.00  0.00    -0.044 F 
ENDBRANCH  18  20
ENDBRANCH   3  14
TORSDOF 6
ENDMDL
MODEL 5
REMARK VINA RESULT:      -6.9      2.571      5.499
REMARK  6 active torsions:
REMARK  status: ('A' for Active; 'I' for Inactive)
REMARK    1  A    between atoms: C3_4  and  C4_6 
REMARK    2  A    between atoms: C5_7  and  C6_8 
REMARK    3  A    between atoms: C6_8  and  C7_9 
REMARK    4  A    between atoms: C7_9  and  C8_10 
REMARK       I    between atoms: C8_10  and  N1_12 
REMARK    5  A    between atoms: N1_12  and  C9_13 
REMARK    6  A    between atoms: C13_17  and  O2_19 
ROOT
HETATM    1  C8  UNL     1      25.452  -0.638  53.466  1.00  0.00     0.222 C 
HETATM    2  O1  UNL     1      25.789  -1.132  54.571  1.00  0.00    -0.273 OA
HETATM    3  N1  UNL     1      24.150  -0.333  52.963  1.00  0.00    -0.325 N 
HETATM    4  H10 UNL     1      24.111   0.084  51.978  1.00  0.00     0.168 HD
ENDROOT
BRANCH   1   5
HETATM    5  C7  UNL     1      26.585  -0.345  52.593  1.00  0.00     0.107 C 
BRANCH   5   6
HETATM    6  C6  UNL     1      27.075   1.053  52.567  1.00  0.00     0.036 C 
BRANCH   6   7
HETATM    7  C5  UNL     1      26.735   1.822  51.350  1.00  0.00    -0.023 C 
HETATM    8  C4  UNL     1      25.711   2.651  51.109  1.00  0.00     0.041 C 
BRANCH   8   9
HETATM    9  C3  UNL     1      24.627   3.030  52.003  1.00  0.00     0.149 C 
HETATM   10  C2  UNL     1      23.409   3.338  51.521  1.00  0.00     0.128 C 
HETATM   11  C1  UNL     1      23.216   3.275  50.032  1.00  0.00     0.085 C 
HETATM   12  F1  UNL     1      22.400   3.690  52.348  1.00  0.00    -0.208 F 
HETATM   13  F2  UNL     1      24.761   3.098  53.355  1.00  0.00    -0.203 F 
ENDBRANCH   8   9
ENDBRANCH   6   7
ENDBRANCH   5   6
ENDBRANCH   1   5
BRANCH   3  14
HETATM   14  C9  UNL     1      22.888  -0.537  53.637  1.00  0.00     0.086 A 
HETATM   15  C10 UNL     1      22.174   0.610  53.566  1.00  0.00     0.031 A 
HETATM   16  C11 UNL     1      20.882   0.478  54.227  1.00  0.00     0.004 A 
HETATM   17  C12 UNL     1      20.834  -0.758  54.689  1.00  0.00     0.056 A 
HETATM   18  C13 UNL     1      22.064  -1.530  54.374  1.00  0.00     0.301 A 
HETATM   19  F3  UNL     1      21.760  -2.590  53.515  1.00  0.00    -0.197 F 
BRANCH  18  20
HETATM   20  O2  UNL     1      22.579  -1.969  55.558  1.00  0.00    -0.142 OA
HETATM   21  F4  UNL     1      23.426  -1.195  56.165  1.00  0.00    -0.044 F 
ENDBRANCH  18  20
ENDBRANCH   3  14
TORSDOF 6
ENDMDL
MODEL 6
REMARK VINA RESULT:      -6.8      2.521      5.813
REMARK  6 active torsions:
REMARK  status: ('A' for Active; 'I' for Inactive)
REMARK    1  A    between atoms: C3_4  and  C4_6 
REMARK    2  A    between atoms: C5_7  and  C6_8 
REMARK    3  A    between atoms: C6_8  and  C7_9 
REMARK    4  A    between atoms: C7_9  and  C8_10 
REMARK       I    between atoms: C8_10  and  N1_12 
REMARK    5  A    between atoms: N1_12  and  C9_13 
REMARK    6  A    between atoms: C13_17  and  O2_19 
ROOT
HETATM    1  C8  UNL     1      24.287   2.201  52.381  1.00  0.00     0.222 C 
HETATM    2  O1  UNL     1      24.246   2.983  53.363  1.00  0.00    -0.273 OA
HETATM    3  N1  UNL     1      23.548   1.001  52.139  1.00  0.00    -0.325 N 
HETATM    4  H10 UNL     1      23.761   0.495  51.221  1.00  0.00     0.168 HD
ENDROOT
BRANCH   1   5
HETATM    5  C7  UNL     1      25.241   2.609  51.354  1.00  0.00     0.107 C 
BRANCH   5   6
HETATM    6  C6  UNL     1      26.613   2.058  51.447  1.00  0.00     0.036 C 
BRANCH   6   7
HETATM    7  C5  UNL     1      26.704   0.582  51.466  1.00  0.00    -0.023 C 
HETATM    8  C4  UNL     1      26.970  -0.255  52.476  1.00  0.00     0.041 C 
BRANCH   8   9
HETATM    9  C3  UNL     1      27.250   0.069  53.867  1.00  0.00     0.149 C 
HETATM   10  C2  UNL     1      28.478  -0.116  54.386  1.00  0.00     0.128 C 
HETATM   11  C1  UNL     1      29.539  -0.670  53.478  1.00  0.00     0.085 C 
HETATM   12  F1  UNL     1      28.742   0.184  55.677  1.00  0.00    -0.208 F 
HETATM   13  F2  UNL     1      26.318   0.572  54.721  1.00  0.00    -0.203 F 
ENDBRANCH   8   9
ENDBRANCH   6   7
ENDBRANCH   5   6
ENDBRANCH   1   5
BRANCH   3  14
HETATM   14  C9  UNL     1      22.560   0.400  53.004  1.00  0.00     0.086 A 
HETATM   15  C10 UNL     1      23.191  -0.428  53.868  1.00  0.00     0.031 A 
HETATM   16  C11 UNL     1      22.252  -1.072  54.777  1.00  0.00     0.004 A 
HETATM   17  C12 UNL     1      21.056  -0.617  54.447  1.00  0.00     0.056 A 
HETATM   18  C13 UNL     1      21.108   0.348  53.318  1.00  0.00     0.301 A 
HETATM   19  F3  UNL     1      20.693   1.613  53.748  1.00  0.00    -0.197 F 
BRANCH  18  20
HETATM   20  O2  UNL     1      20.302  -0.141  52.332  1.00  0.00    -0.142 OA
HETATM   21  F4  UNL     1      20.765  -0.124  51.119  1.00  0.00    -0.044 F 
ENDBRANCH  18  20
ENDBRANCH   3  14
TORSDOF 6
ENDMDL
MODEL 7
REMARK VINA RESULT:      -6.8      3.020      5.321
REMARK  6 active torsions:
REMARK  status: ('A' for Active; 'I' for Inactive)
REMARK    1  A    between atoms: C3_4  and  C4_6 
REMARK    2  A    between atoms: C5_7  and  C6_8 
REMARK    3  A    between atoms: C6_8  and  C7_9 
REMARK    4  A    between atoms: C7_9  and  C8_10 
REMARK       I    between atoms: C8_10  and  N1_12 
REMARK    5  A    between atoms: N1_12  and  C9_13 
REMARK    6  A    between atoms: C13_17  and  O2_19 
ROOT
HETATM    1  C8  UNL     1      24.565   0.878  52.724  1.00  0.00     0.222 C 
HETATM    2  O1  UNL     1      24.307  -0.294  53.094  1.00  0.00    -0.273 OA
HETATM    3  N1  UNL     1      25.755   1.650  52.902  1.00  0.00    -0.325 N 
HETATM    4  H10 UNL     1      25.738   2.640  52.497  1.00  0.00     0.168 HD
ENDROOT
BRANCH   1   5
HETATM    5  C7  UNL     1      23.463   1.515  52.008  1.00  0.00     0.107 C 
BRANCH   5   6
HETATM    6  C6  UNL     1      23.775   2.134  50.699  1.00  0.00     0.036 C 
BRANCH   6   7
HETATM    7  C5  UNL     1      23.950   3.602  50.717  1.00  0.00    -0.023 C 
HETATM    8  C4  UNL     1      24.970   4.357  50.289  1.00  0.00     0.041 C 
BRANCH   8   9
HETATM    9  C3  UNL     1      26.216   3.925  49.675  1.00  0.00     0.149 C 
HETATM   10  C2  UNL     1      26.948   4.771  48.927  1.00  0.00     0.128 C 
HETATM   11  C1  UNL     1      26.428   6.170  48.753  1.00  0.00     0.085 C 
HETATM   12  F1  UNL     1      28.106   4.374  48.355  1.00  0.00    -0.208 F 
HETATM   13  F2  UNL     1      26.721   2.669  49.809  1.00  0.00    -0.203 F 
ENDBRANCH   8   9
ENDBRANCH   6   7
ENDBRANCH   5   6
ENDBRANCH   1   5
BRANCH   3  14
HETATM   14  C9  UNL     1      26.964   1.238  53.575  1.00  0.00     0.086 A 
HETATM   15  C10 UNL     1      27.884   2.222  53.445  1.00  0.00     0.031 A 
HETATM   16  C11 UNL     1      29.137   1.876  54.104  1.00  0.00     0.004 A 
HETATM   17  C12 UNL     1      28.953   0.678  54.629  1.00  0.00     0.056 A 
HETATM   18  C13 UNL     1      27.589   0.147  54.367  1.00  0.00     0.301 A 
HETATM   19  F3  UNL     1      26.890   0.006  55.570  1.00  0.00    -0.197 F 
BRANCH  18  20
HETATM   20  O2  UNL     1      27.737  -1.047  53.724  1.00  0.00    -0.142 OA
HETATM   21  F4  UNL     1      28.686  -1.137  52.843  1.00  0.00    -0.044 F 
ENDBRANCH  18  20
ENDBRANCH   3  14
TORSDOF 6
ENDMDL
MODEL 8
REMARK VINA RESULT:      -6.8      2.607      4.066
REMARK  6 active torsions:
REMARK  status: ('A' for Active; 'I' for Inactive)
REMARK    1  A    between atoms: C3_4  and  C4_6 
REMARK    2  A    between atoms: C5_7  and  C6_8 
REMARK    3  A    between atoms: C6_8  and  C7_9 
REMARK    4  A    between atoms: C7_9  and  C8_10 
REMARK       I    between atoms: C8_10  and  N1_12 
REMARK    5  A    between atoms: N1_12  and  C9_13 
REMARK    6  A    between atoms: C13_17  and  O2_19 
ROOT
HETATM    1  C8  UNL     1      23.526  -1.100  54.886  1.00  0.00     0.222 C 
HETATM    2  O1  UNL     1      24.187  -1.343  55.925  1.00  0.00    -0.273 OA
HETATM    3  N1  UNL     1      23.969  -0.628  53.611  1.00  0.00    -0.325 N 
HETATM    4  H10 UNL     1      23.210  -0.489  52.870  1.00  0.00     0.168 HD
ENDROOT
BRANCH   1   5
HETATM    5  C7  UNL     1      22.095  -1.348  55.038  1.00  0.00     0.107 C 
BRANCH   5   6
HETATM    6  C6  UNL     1      21.237  -1.115  53.852  1.00  0.00     0.036 C 
BRANCH   6   7
HETATM    7  C5  UNL     1      20.633   0.231  53.762  1.00  0.00    -0.023 C 
HETATM    8  C4  UNL     1      20.720   1.156  52.796  1.00  0.00     0.041 C 
BRANCH   8   9
HETATM    9  C3  UNL     1      21.453   1.083  51.542  1.00  0.00     0.149 C 
HETATM   10  C2  UNL     1      22.268   2.082  51.159  1.00  0.00     0.128 C 
HETATM   11  C1  UNL     1      22.388   3.269  52.073  1.00  0.00     0.085 C 
HETATM   12  F1  UNL     1      22.951   2.019  49.994  1.00  0.00    -0.208 F 
HETATM   13  F2  UNL     1      21.372   0.027  50.687  1.00  0.00    -0.203 F 
ENDBRANCH   8   9
ENDBRANCH   6   7
ENDBRANCH   5   6
ENDBRANCH   1   5
BRANCH   3  14
HETATM   14  C9  UNL     1      25.325  -0.311  53.226  1.00  0.00     0.086 A 
HETATM   15  C10 UNL     1      25.287   0.644  52.268  1.00  0.00     0.031 A 
HETATM   16  C11 UNL     1      26.626   1.017  51.830  1.00  0.00     0.004 A 
HETATM   17  C12 UNL     1      27.460   0.277  52.537  1.00  0.00     0.056 A 
HETATM   18  C13 UNL     1      26.754  -0.625  53.485  1.00  0.00     0.301 A 
HETATM   19  F3  UNL     1      27.062  -0.272  54.803  1.00  0.00    -0.197 F 
BRANCH  18  20
HETATM   20  O2  UNL     1      27.146  -1.899  53.197  1.00  0.00    -0.142 OA
HETATM   21  F4  UNL     1      26.694  -2.429  52.102  1.00  0.00    -0.044 F 
ENDBRANCH  18  20
ENDBRANCH   3  14
TORSDOF 6
ENDMDL
MODEL 9
REMARK VINA RESULT:      -6.7      2.520      3.183
REMARK  6 active torsions:
REMARK  status: ('A' for Active; 'I' for Inactive)
REMARK    1  A    between atoms: C3_4  and  C4_6 
REMARK    2  A    between atoms: C5_7  and  C6_8 
REMARK    3  A    between atoms: C6_8  and  C7_9 
REMARK    4  A    between atoms: C7_9  and  C8_10 
REMARK       I    between atoms: C8_10  and  N1_12 
REMARK    5  A    between atoms: N1_12  and  C9_13 
REMARK    6  A    between atoms: C13_17  and  O2_19 
ROOT
HETATM    1  C8  UNL     1      25.115  -0.673  54.184  1.00  0.00     0.222 C 
HETATM    2  O1  UNL     1      25.279  -1.212  55.306  1.00  0.00    -0.273 OA
HETATM    3  N1  UNL     1      26.087  -0.175  53.261  1.00  0.00    -0.325 N 
HETATM    4  H10 UNL     1      25.702   0.251  52.358  1.00  0.00     0.168 HD
ENDROOT
BRANCH   1   5
HETATM    5  C7  UNL     1      23.713  -0.556  53.796  1.00  0.00     0.107 C 
BRANCH   5   6
HETATM    6  C6  UNL     1      22.697  -0.803  54.846  1.00  0.00     0.036 C 
BRANCH   6   7
HETATM    7  C5  UNL     1      21.468  -1.488  54.391  1.00  0.00    -0.023 C 
HETATM    8  C4  UNL     1      20.418  -1.017  53.706  1.00  0.00     0.041 C 
BRANCH   8   9
HETATM    9  C3  UNL     1      20.196   0.334  53.212  1.00  0.00     0.149 C 
HETATM   10  C2  UNL     1      19.172   0.607  52.383  1.00  0.00     0.128 C 
HETATM   11  C1  UNL     1      18.275  -0.533  51.991  1.00  0.00     0.085 C 
HETATM   12  F1  UNL     1      18.962   1.859  51.922  1.00  0.00    -0.208 F 
HETATM   13  F2  UNL     1      20.985   1.391  53.544  1.00  0.00    -0.203 F 
ENDBRANCH   8   9
ENDBRANCH   6   7
ENDBRANCH   5   6
ENDBRANCH   1   5
BRANCH   3  14
HETATM   14  C9  UNL     1      27.522  -0.177  53.424  1.00  0.00     0.086 A 
HETATM   15  C10 UNL     1      27.985  -1.414  53.131  1.00  0.00     0.031 A 
HETATM   16  C11 UNL     1      29.433  -1.492  53.274  1.00  0.00     0.004 A 
HETATM   17  C12 UNL     1      29.827  -0.290  53.652  1.00  0.00     0.056 A 
HETATM   18  C13 UNL     1      28.694   0.663  53.783  1.00  0.00     0.301 A 
HETATM   19  F3  UNL     1      28.818   1.690  52.842  1.00  0.00    -0.197 F 
BRANCH  18  20
HETATM   20  O2  UNL     1      28.715   1.141  55.061  1.00  0.00    -0.142 OA
HETATM   21  F4  UNL     1      29.553   2.094  55.328  1.00  0.00    -0.044 F 
ENDBRANCH  18  20
ENDBRANCH   3  14
TORSDOF 6
ENDMDL
