MODEL 1
REMARK VINA RESULT:      -8.6      0.000      0.000
REMARK  2 active torsions:
REMARK  status: ('A' for Active; 'I' for Inactive)
REMARK    1  A    between atoms: C7_8  and  N1_9 
REMARK    2  A    between atoms: N1_9  and  C8_10 
ROOT
HETATM    1  C8  UNL     1      22.929   0.273  52.188  1.00  0.00     0.132 C 
HETATM    2  C9  UNL     1      21.521  -0.143  52.536  1.00  0.00     0.178 C 
HETATM    3  N2  UNL     1      20.474   0.782  52.218  1.00  0.00    -0.293 NA
HETATM    4  C10 UNL     1      20.685   1.869  51.560  1.00  0.00     0.042 C 
HETATM    5  C11 UNL     1      21.663   1.391  50.504  1.00  0.00     0.095 C 
HETATM    6  C12 UNL     1      22.897   1.522  51.400  1.00  0.00    -0.035 C 
HETATM    7  C13 UNL     1      23.527   2.652  51.231  1.00  0.00     0.090 C 
HETATM    8  N3  UNL     1      23.712   3.904  50.626  1.00  0.00    -0.388 N 
HETATM    9  C14 UNL     1      24.239   4.229  49.342  1.00  0.00     0.124 C 
HETATM   10  C15 UNL     1      23.289   4.956  48.458  1.00  0.00     0.050 C 
HETATM   11  C16 UNL     1      21.879   4.473  48.315  1.00  0.00     0.275 C 
HETATM   12  N4  UNL     1      21.169   4.642  49.528  1.00  0.00     0.100 N 
HETATM   13  C17 UNL     1      20.644   6.012  49.539  1.00  0.00     0.299 C 
HETATM   14  C18 UNL     1      19.509   6.185  48.590  1.00  0.00     0.198 C 
HETATM   15  O1  UNL     1      18.665   5.068  48.676  1.00  0.00    -0.387 OA
HETATM   16  C19 UNL     1      18.831   4.413  49.872  1.00  0.00     0.206 C 
HETATM   17  C20 UNL     1      20.202   3.703  49.966  1.00  0.00     0.281 C 
HETATM   18  C21 UNL     1      20.425   3.403  51.429  1.00  0.00     0.204 C 
HETATM   19  O2  UNL     1      21.370   4.068  51.921  1.00  0.00    -0.376 OA
HETATM   20  C22 UNL     1      22.312   4.732  52.413  1.00  0.00     0.188 C 
HETATM   21  C23 UNL     1      23.373   5.113  51.324  1.00  0.00     0.148 C 
ENDROOT
BRANCH   1  22
HETATM   22  N1  UNL     1      23.780   0.442  53.326  1.00  0.00    -0.379 N 
HETATM   23  H7  UNL     1      23.383   0.798  54.232  1.00  0.00     0.160 HD
BRANCH  22  24
HETATM   24  C7  UNL     1      25.174   0.167  53.367  1.00  0.00     0.034 A 
HETATM   25  C2  UNL     1      26.141   1.095  53.683  1.00  0.00    -0.034 A 
HETATM   26  C1  UNL     1      25.719   2.482  54.006  1.00  0.00     0.050 C 
HETATM   27  C3  UNL     1      27.490   0.831  53.720  1.00  0.00     0.028 A 
HETATM   28  C4  UNL     1      27.930  -0.439  53.428  1.00  0.00     0.011 A 
HETATM   29 BR1  UNL     1      29.792  -0.893  53.458  1.00  0.00    -0.051 Br
HETATM   30  C5  UNL     1      27.028  -1.429  53.102  1.00  0.00     0.021 A 
HETATM   31  C6  UNL     1      25.684  -1.093  53.082  1.00  0.00     0.031 A 
ENDBRANCH  22  24
ENDBRANCH   1  22
TORSDOF 2
ENDMDL
MODEL 2
REMARK VINA RESULT:      -8.5      9.330     11.499
REMARK  2 active torsions:
REMARK  status: ('A' for Active; 'I' for Inactive)
REMARK    1  A    between atoms: C7_8  and  N1_9 
REMARK    2  A    between atoms: N1_9  and  C8_10 
ROOT
HETATM    1  C8  UNL     1      32.555   5.428  48.569  1.00  0.00     0.132 C 
HETATM    2  C9  UNL     1      33.799   6.277  48.661  1.00  0.00     0.178 C 
HETATM    3  N2  UNL     1      33.628   7.694  48.530  1.00  0.00    -0.293 NA
HETATM    4  C10 UNL     1      32.468   8.249  48.456  1.00  0.00     0.042 C 
HETATM    5  C11 UNL     1      31.694   7.453  49.489  1.00  0.00     0.095 C 
HETATM    6  C12 UNL     1      31.362   6.297  48.541  1.00  0.00    -0.035 C 
HETATM    7  C13 UNL     1      30.183   6.415  47.993  1.00  0.00     0.090 C 
HETATM    8  N3  UNL     1      28.957   7.065  47.788  1.00  0.00    -0.388 N 
HETATM    9  C14 UNL     1      27.799   7.113  48.617  1.00  0.00     0.124 C 
HETATM   10  C15 UNL     1      27.417   8.482  49.054  1.00  0.00     0.050 C 
HETATM   11  C16 UNL     1      28.457   9.416  49.589  1.00  0.00     0.275 C 
HETATM   12  N4  UNL     1      29.362   9.794  48.568  1.00  0.00     0.100 N 
HETATM   13  C17 UNL     1      28.772  10.938  47.865  1.00  0.00     0.299 C 
HETATM   14  C18 UNL     1      28.821  12.184  48.678  1.00  0.00     0.198 C 
HETATM   15  O1  UNL     1      30.071  12.268  49.311  1.00  0.00    -0.387 OA
HETATM   16  C19 UNL     1      31.008  11.501  48.660  1.00  0.00     0.206 C 
HETATM   17  C20 UNL     1      30.741   9.987  48.824  1.00  0.00     0.281 C 
HETATM   18  C21 UNL     1      31.549   9.296  47.752  1.00  0.00     0.204 C 
HETATM   19  O2  UNL     1      30.830   8.754  46.877  1.00  0.00    -0.376 OA
HETATM   20  C22 UNL     1      30.112   8.214  46.003  1.00  0.00     0.188 C 
HETATM   21  C23 UNL     1      28.713   7.808  46.582  1.00  0.00     0.148 C 
ENDROOT
BRANCH   1  22
HETATM   22  N1  UNL     1      32.538   4.548  47.441  1.00  0.00    -0.379 N 
HETATM   23  H7  UNL     1      32.060   3.614  47.508  1.00  0.00     0.160 HD
BRANCH  22  24
HETATM   24  C7  UNL     1      33.126   4.812  46.174  1.00  0.00     0.034 A 
HETATM   25  C2  UNL     1      34.277   4.214  45.710  1.00  0.00    -0.034 A 
HETATM   26  C1  UNL     1      34.963   3.223  46.577  1.00  0.00     0.050 C 
HETATM   27  C3  UNL     1      34.849   4.471  44.486  1.00  0.00     0.028 A 
HETATM   28  C4  UNL     1      34.250   5.383  43.648  1.00  0.00     0.011 A 
HETATM   29 BR1  UNL     1      34.980   5.800  41.925  1.00  0.00    -0.051 Br
HETATM   30  C5  UNL     1      33.095   6.028  44.034  1.00  0.00     0.021 A 
HETATM   31  C6  UNL     1      32.574   5.722  45.281  1.00  0.00     0.031 A 
ENDBRANCH  22  24
ENDBRANCH   1  22
TORSDOF 2
ENDMDL
MODEL 3
REMARK VINA RESULT:      -8.4      7.719     10.341
REMARK  2 active torsions:
REMARK  status: ('A' for Active; 'I' for Inactive)
REMARK    1  A    between atoms: C7_8  and  N1_9 
REMARK    2  A    between atoms: N1_9  and  C8_10 
ROOT
HETATM    1  C8  UNL     1      27.399   7.041  48.045  1.00  0.00     0.132 C 
HETATM    2  C9  UNL     1      27.134   8.508  47.808  1.00  0.00     0.178 C 
HETATM    3  N2  UNL     1      28.273   9.338  47.548  1.00  0.00    -0.293 NA
HETATM    4  C10 UNL     1      29.461   8.860  47.400  1.00  0.00     0.042 C 
HETATM    5  C11 UNL     1      29.180   7.623  46.569  1.00  0.00     0.095 C 
HETATM    6  C12 UNL     1      28.818   6.741  47.767  1.00  0.00    -0.035 C 
HETATM    7  C13 UNL     1      29.823   6.025  48.190  1.00  0.00     0.090 C 
HETATM    8  N3  UNL     1      31.152   5.579  48.139  1.00  0.00    -0.388 N 
HETATM    9  C14 UNL     1      31.769   4.646  47.257  1.00  0.00     0.124 C 
HETATM   10  C15 UNL     1      32.883   5.212  46.450  1.00  0.00     0.050 C 
HETATM   11  C16 UNL     1      32.710   6.525  45.751  1.00  0.00     0.275 C 
HETATM   12  N4  UNL     1      32.608   7.579  46.690  1.00  0.00     0.100 N 
HETATM   13  C17 UNL     1      33.973   7.997  47.027  1.00  0.00     0.299 C 
HETATM   14  C18 UNL     1      34.620   8.749  45.917  1.00  0.00     0.198 C 
HETATM   15  O1  UNL     1      33.689   9.640  45.363  1.00  0.00    -0.387 OA
HETATM   16  C19 UNL     1      32.675   9.911  46.251  1.00  0.00     0.206 C 
HETATM   17  C20 UNL     1      31.754   8.690  46.478  1.00  0.00     0.281 C 
HETATM   18  C21 UNL     1      30.980   8.972  47.743  1.00  0.00     0.204 C 
HETATM   19  O2  UNL     1      31.291   8.201  48.684  1.00  0.00    -0.376 OA
HETATM   20  C22 UNL     1      31.602   7.432  49.623  1.00  0.00     0.188 C 
HETATM   21  C23 UNL     1      32.122   6.054  49.087  1.00  0.00     0.148 C 
ENDROOT
BRANCH   1  22
HETATM   22  N1  UNL     1      27.060   6.598  49.362  1.00  0.00    -0.379 N 
HETATM   23  H7  UNL     1      27.523   7.034  50.200  1.00  0.00     0.160 HD
BRANCH  22  24
HETATM   24  C7  UNL     1      26.118   5.582  49.679  1.00  0.00     0.034 A 
HETATM   25  C2  UNL     1      24.912   5.805  50.304  1.00  0.00    -0.034 A 
HETATM   26  C1  UNL     1      24.552   7.196  50.679  1.00  0.00     0.050 C 
HETATM   27  C3  UNL     1      24.001   4.823  50.613  1.00  0.00     0.028 A 
HETATM   28  C4  UNL     1      24.290   3.518  50.286  1.00  0.00     0.011 A 
HETATM   29 BR1  UNL     1      23.077   2.087  50.680  1.00  0.00    -0.051 Br
HETATM   30  C5  UNL     1      25.477   3.205  49.658  1.00  0.00     0.021 A 
HETATM   31  C6  UNL     1      26.349   4.245  49.377  1.00  0.00     0.031 A 
ENDBRANCH  22  24
ENDBRANCH   1  22
TORSDOF 2
ENDMDL
MODEL 4
REMARK VINA RESULT:      -8.2      3.613      6.181
REMARK  2 active torsions:
REMARK  status: ('A' for Active; 'I' for Inactive)
REMARK    1  A    between atoms: C7_8  and  N1_9 
REMARK    2  A    between atoms: N1_9  and  C8_10 
ROOT
HETATM    1  C8  UNL     1      25.223   7.184  50.235  1.00  0.00     0.132 C 
HETATM    2  C9  UNL     1      24.086   8.164  50.384  1.00  0.00     0.178 C 
HETATM    3  N2  UNL     1      22.774   7.614  50.552  1.00  0.00    -0.293 NA
HETATM    4  C10 UNL     1      22.564   6.350  50.690  1.00  0.00     0.042 C 
HETATM    5  C11 UNL     1      23.706   5.960  51.608  1.00  0.00     0.095 C 
HETATM    6  C12 UNL     1      24.733   5.813  50.483  1.00  0.00    -0.035 C 
HETATM    7  C13 UNL     1      24.863   4.581  50.074  1.00  0.00     0.090 C 
HETATM    8  N3  UNL     1      24.560   3.212  50.108  1.00  0.00    -0.388 N 
HETATM    9  C14 UNL     1      24.979   2.207  51.028  1.00  0.00     0.124 C 
HETATM   10  C15 UNL     1      23.865   1.545  51.758  1.00  0.00     0.050 C 
HETATM   11  C16 UNL     1      22.778   2.370  52.376  1.00  0.00     0.275 C 
HETATM   12  N4  UNL     1      21.997   2.995  51.374  1.00  0.00     0.100 N 
HETATM   13  C17 UNL     1      20.965   2.036  50.965  1.00  0.00     0.299 C 
HETATM   14  C18 UNL     1      19.909   1.871  52.002  1.00  0.00     0.198 C 
HETATM   15  O1  UNL     1      19.583   3.130  52.528  1.00  0.00    -0.387 OA
HETATM   16  C19 UNL     1      19.935   4.135  51.660  1.00  0.00     0.206 C 
HETATM   17  C20 UNL     1      21.468   4.298  51.543  1.00  0.00     0.281 C 
HETATM   18  C21 UNL     1      21.715   5.102  50.289  1.00  0.00     0.204 C 
HETATM   19  O2  UNL     1      22.285   4.436  49.391  1.00  0.00    -0.376 OA
HETATM   20  C22 UNL     1      22.852   3.770  48.493  1.00  0.00     0.188 C 
HETATM   21  C23 UNL     1      23.726   2.619  49.099  1.00  0.00     0.148 C 
ENDROOT
BRANCH   1  22
HETATM   22  N1  UNL     1      25.872   7.242  48.961  1.00  0.00    -0.379 N 
HETATM   23  H7  UNL     1      25.311   7.434  48.092  1.00  0.00     0.160 HD
BRANCH  22  24
HETATM   24  C7  UNL     1      27.262   7.058  48.729  1.00  0.00     0.034 A 
HETATM   25  C2  UNL     1      28.203   8.061  48.801  1.00  0.00    -0.034 A 
HETATM   26  C1  UNL     1      27.753   9.435  49.144  1.00  0.00     0.050 C 
HETATM   27  C3  UNL     1      29.547   7.886  48.574  1.00  0.00     0.028 A 
HETATM   28  C4  UNL     1      30.012   6.631  48.253  1.00  0.00     0.011 A 
HETATM   29 BR1  UNL     1      31.870   6.298  47.922  1.00  0.00    -0.051 Br
HETATM   30  C5  UNL     1      29.138   5.570  48.160  1.00  0.00     0.021 A 
HETATM   31  C6  UNL     1      27.796   5.818  48.400  1.00  0.00     0.031 A 
ENDBRANCH  22  24
ENDBRANCH   1  22
TORSDOF 2
ENDMDL
MODEL 5
REMARK VINA RESULT:      -8.2      3.311      5.507
REMARK  2 active torsions:
REMARK  status: ('A' for Active; 'I' for Inactive)
REMARK    1  A    between atoms: C7_8  and  N1_9 
REMARK    2  A    between atoms: N1_9  and  C8_10 
ROOT
HETATM    1  C8  UNL     1      23.149   1.660  52.582  1.00  0.00     0.132 C 
HETATM    2  C9  UNL     1      24.648   1.503  52.662  1.00  0.00     0.178 C 
HETATM    3  N2  UNL     1      25.438   2.437  51.917  1.00  0.00    -0.293 NA
HETATM    4  C10 UNL     1      24.923   3.442  51.296  1.00  0.00     0.042 C 
HETATM    5  C11 UNL     1      23.888   3.910  52.300  1.00  0.00     0.095 C 
HETATM    6  C12 UNL     1      22.819   2.906  51.862  1.00  0.00    -0.035 C 
HETATM    7  C13 UNL     1      21.972   3.410  51.007  1.00  0.00     0.090 C 
HETATM    8  N3  UNL     1      21.460   4.449  50.215  1.00  0.00    -0.388 N 
HETATM    9  C14 UNL     1      20.676   5.579  50.587  1.00  0.00     0.124 C 
HETATM   10  C15 UNL     1      21.314   6.890  50.293  1.00  0.00     0.050 C 
HETATM   11  C16 UNL     1      22.744   7.128  50.665  1.00  0.00     0.275 C 
HETATM   12  N4  UNL     1      23.604   6.323  49.879  1.00  0.00     0.100 N 
HETATM   13  C17 UNL     1      23.862   7.051  48.632  1.00  0.00     0.299 C 
HETATM   14  C18 UNL     1      24.770   8.213  48.837  1.00  0.00     0.198 C 
HETATM   15  O1  UNL     1      25.807   7.837  49.703  1.00  0.00    -0.387 OA
HETATM   16  C19 UNL     1      25.968   6.472  49.719  1.00  0.00     0.206 C 
HETATM   17  C20 UNL     1      24.786   5.752  50.411  1.00  0.00     0.281 C 
HETATM   18  C21 UNL     1      24.870   4.303  49.995  1.00  0.00     0.204 C 
HETATM   19  O2  UNL     1      23.916   3.955  49.258  1.00  0.00    -0.376 OA
HETATM   20  C22 UNL     1      22.963   3.607  48.521  1.00  0.00     0.188 C 
HETATM   21  C23 UNL     1      21.683   4.468  48.796  1.00  0.00     0.148 C 
ENDROOT
BRANCH   1  22
HETATM   22  N1  UNL     1      22.485   0.554  51.963  1.00  0.00    -0.379 N 
HETATM   23  H7  UNL     1      23.005  -0.063  51.289  1.00  0.00     0.160 HD
BRANCH  22  24
HETATM   24  C7  UNL     1      21.130   0.179  52.170  1.00  0.00     0.034 A 
HETATM   25  C2  UNL     1      20.654  -0.424  53.313  1.00  0.00    -0.034 A 
HETATM   26  C1  UNL     1      21.607  -0.710  54.415  1.00  0.00     0.050 C 
HETATM   27  C3  UNL     1      19.344  -0.790  53.513  1.00  0.00     0.028 A 
HETATM   28  C4  UNL     1      18.424  -0.546  52.520  1.00  0.00     0.011 A 
HETATM   29 BR1  UNL     1      16.578  -1.022  52.716  1.00  0.00    -0.051 Br
HETATM   30  C5  UNL     1      18.815   0.055  51.343  1.00  0.00     0.021 A 
HETATM   31  C6  UNL     1      20.151   0.397  51.208  1.00  0.00     0.031 A 
ENDBRANCH  22  24
ENDBRANCH   1  22
TORSDOF 2
ENDMDL
MODEL 6
REMARK VINA RESULT:      -8.1      3.565      6.302
REMARK  2 active torsions:
REMARK  status: ('A' for Active; 'I' for Inactive)
REMARK    1  A    between atoms: C7_8  and  N1_9 
REMARK    2  A    between atoms: N1_9  and  C8_10 
ROOT
HETATM    1  C8  UNL     1      25.912   4.099  49.537  1.00  0.00     0.132 C 
HETATM    2  C9  UNL     1      26.740   3.230  50.451  1.00  0.00     0.178 C 
HETATM    3  N2  UNL     1      26.037   2.505  51.468  1.00  0.00    -0.293 NA
HETATM    4  C10 UNL     1      24.751   2.486  51.544  1.00  0.00     0.042 C 
HETATM    5  C11 UNL     1      24.371   2.361  50.081  1.00  0.00     0.095 C 
HETATM    6  C12 UNL     1      24.477   3.861  49.791  1.00  0.00    -0.035 C 
HETATM    7  C13 UNL     1      23.327   4.473  49.864  1.00  0.00     0.090 C 
HETATM    8  N3  UNL     1      21.940   4.511  50.071  1.00  0.00    -0.388 N 
HETATM    9  C14 UNL     1      20.877   4.113  49.208  1.00  0.00     0.124 C 
HETATM   10  C15 UNL     1      20.014   3.034  49.759  1.00  0.00     0.050 C 
HETATM   11  C16 UNL     1      20.635   1.823  50.382  1.00  0.00     0.275 C 
HETATM   12  N4  UNL     1      21.295   2.164  51.586  1.00  0.00     0.100 N 
HETATM   13  C17 UNL     1      20.292   2.136  52.656  1.00  0.00     0.299 C 
HETATM   14  C18 UNL     1      19.887   0.747  53.010  1.00  0.00     0.198 C 
HETATM   15  O1  UNL     1      21.028  -0.068  53.043  1.00  0.00    -0.387 OA
HETATM   16  C19 UNL     1      22.166   0.681  53.222  1.00  0.00     0.206 C 
HETATM   17  C20 UNL     1      22.504   1.539  51.981  1.00  0.00     0.281 C 
HETATM   18  C21 UNL     1      23.481   2.592  52.446  1.00  0.00     0.204 C 
HETATM   19  O2  UNL     1      22.997   3.750  52.415  1.00  0.00    -0.376 OA
HETATM   20  C22 UNL     1      22.513   4.906  52.385  1.00  0.00     0.188 C 
HETATM   21  C23 UNL     1      21.394   5.030  51.295  1.00  0.00     0.148 C 
ENDROOT
BRANCH   1  22
HETATM   22  N1  UNL     1      26.198   5.496  49.652  1.00  0.00    -0.379 N 
HETATM   23  H7  UNL     1      25.911   6.023  50.516  1.00  0.00     0.160 HD
BRANCH  22  24
HETATM   24  C7  UNL     1      26.861   6.289  48.677  1.00  0.00     0.034 A 
HETATM   25  C2  UNL     1      26.255   7.279  47.935  1.00  0.00    -0.034 A 
HETATM   26  C1  UNL     1      24.812   7.550  48.155  1.00  0.00     0.050 C 
HETATM   27  C3  UNL     1      26.895   8.045  46.990  1.00  0.00     0.028 A 
HETATM   28  C4  UNL     1      28.232   7.831  46.750  1.00  0.00     0.011 A 
HETATM   29 BR1  UNL     1      29.201   8.854  45.451  1.00  0.00    -0.051 Br
HETATM   30  C5  UNL     1      28.916   6.859  47.449  1.00  0.00     0.021 A 
HETATM   31  C6  UNL     1      28.210   6.123  48.386  1.00  0.00     0.031 A 
ENDBRANCH  22  24
ENDBRANCH   1  22
TORSDOF 2
ENDMDL
MODEL 7
REMARK VINA RESULT:      -8.0      3.429      5.685
REMARK  2 active torsions:
REMARK  status: ('A' for Active; 'I' for Inactive)
REMARK    1  A    between atoms: C7_8  and  N1_9 
REMARK    2  A    between atoms: N1_9  and  C8_10 
ROOT
HETATM    1  C8  UNL     1      23.688   5.532  50.071  1.00  0.00     0.132 C 
HETATM    2  C9  UNL     1      22.873   6.801  50.128  1.00  0.00     0.178 C 
HETATM    3  N2  UNL     1      21.450   6.653  50.212  1.00  0.00    -0.293 NA
HETATM    4  C10 UNL     1      20.878   5.507  50.353  1.00  0.00     0.042 C 
HETATM    5  C11 UNL     1      21.801   4.838  51.353  1.00  0.00     0.095 C 
HETATM    6  C12 UNL     1      22.811   4.368  50.304  1.00  0.00    -0.035 C 
HETATM    7  C13 UNL     1      22.608   3.137  49.922  1.00  0.00     0.090 C 
HETATM    8  N3  UNL     1      21.923   1.912  49.955  1.00  0.00    -0.388 N 
HETATM    9  C14 UNL     1      21.978   0.861  50.916  1.00  0.00     0.124 C 
HETATM   10  C15 UNL     1      20.678   0.569  51.576  1.00  0.00     0.050 C 
HETATM   11  C16 UNL     1      19.837   1.689  52.105  1.00  0.00     0.275 C 
HETATM   12  N4  UNL     1      19.332   2.477  51.043  1.00  0.00     0.100 N 
HETATM   13  C17 UNL     1      18.096   1.839  50.577  1.00  0.00     0.299 C 
HETATM   14  C18 UNL     1      16.974   2.017  51.540  1.00  0.00     0.198 C 
HETATM   15  O1  UNL     1      16.990   3.333  52.025  1.00  0.00    -0.387 OA
HETATM   16  C19 UNL     1      17.670   4.167  51.169  1.00  0.00     0.206 C 
HETATM   17  C20 UNL     1      19.189   3.882  51.157  1.00  0.00     0.281 C 
HETATM   18  C21 UNL     1      19.734   4.540  49.912  1.00  0.00     0.204 C 
HETATM   19  O2  UNL     1      20.144   3.710  49.064  1.00  0.00    -0.376 OA
HETATM   20  C22 UNL     1      20.551   2.880  48.217  1.00  0.00     0.188 C 
HETATM   21  C23 UNL     1      21.019   1.549  48.899  1.00  0.00     0.148 C 
ENDROOT
BRANCH   1  22
HETATM   22  N1  UNL     1      24.404   5.360  48.845  1.00  0.00    -0.379 N 
HETATM   23  H7  UNL     1      23.917   4.964  48.001  1.00  0.00     0.160 HD
BRANCH  22  24
HETATM   24  C7  UNL     1      25.772   5.683  48.631  1.00  0.00     0.034 A 
HETATM   25  C2  UNL     1      26.823   4.831  48.891  1.00  0.00    -0.034 A 
HETATM   26  C1  UNL     1      26.526   3.479  49.430  1.00  0.00     0.050 C 
HETATM   27  C3  UNL     1      28.146   5.142  48.687  1.00  0.00     0.028 A 
HETATM   28  C4  UNL     1      28.471   6.383  48.190  1.00  0.00     0.011 A 
HETATM   29 BR1  UNL     1      30.290   6.900  47.875  1.00  0.00    -0.051 Br
HETATM   30  C5  UNL     1      27.481   7.298  47.902  1.00  0.00     0.021 A 
HETATM   31  C6  UNL     1      26.168   6.918  48.132  1.00  0.00     0.031 A 
ENDBRANCH  22  24
ENDBRANCH   1  22
TORSDOF 2
ENDMDL
MODEL 8
REMARK VINA RESULT:      -7.9      1.830      2.451
REMARK  2 active torsions:
REMARK  status: ('A' for Active; 'I' for Inactive)
REMARK    1  A    between atoms: C7_8  and  N1_9 
REMARK    2  A    between atoms: N1_9  and  C8_10 
ROOT
HETATM    1  C8  UNL     1      23.553   2.086  51.384  1.00  0.00     0.132 C 
HETATM    2  C9  UNL     1      22.071   1.877  51.577  1.00  0.00     0.178 C 
HETATM    3  N2  UNL     1      21.211   2.963  51.209  1.00  0.00    -0.293 NA
HETATM    4  C10 UNL     1      21.646   4.028  50.631  1.00  0.00     0.042 C 
HETATM    5  C11 UNL     1      22.643   3.445  49.648  1.00  0.00     0.095 C 
HETATM    6  C12 UNL     1      23.787   3.352  50.661  1.00  0.00    -0.035 C 
HETATM    7  C13 UNL     1      24.592   4.378  50.610  1.00  0.00     0.090 C 
HETATM    8  N3  UNL     1      25.021   5.608  50.090  1.00  0.00    -0.388 N 
HETATM    9  C14 UNL     1      25.716   5.895  48.880  1.00  0.00     0.124 C 
HETATM   10  C15 UNL     1      24.979   6.791  47.949  1.00  0.00     0.050 C 
HETATM   11  C16 UNL     1      23.534   6.535  47.650  1.00  0.00     0.275 C 
HETATM   12  N4  UNL     1      22.739   6.766  48.798  1.00  0.00     0.100 N 
HETATM   13  C17 UNL     1      22.425   8.199  48.830  1.00  0.00     0.299 C 
HETATM   14  C18 UNL     1      21.430   8.579  47.789  1.00  0.00     0.198 C 
HETATM   15  O1  UNL     1      20.425   7.602  47.738  1.00  0.00    -0.387 OA
HETATM   16  C19 UNL     1      20.371   6.886  48.910  1.00  0.00     0.206 C 
HETATM   17  C20 UNL     1      21.604   5.972  49.094  1.00  0.00     0.281 C 
HETATM   18  C21 UNL     1      21.632   5.588  50.555  1.00  0.00     0.204 C 
HETATM   19  O2  UNL     1      22.611   6.081  51.167  1.00  0.00    -0.376 OA
HETATM   20  C22 UNL     1      23.587   6.575  51.778  1.00  0.00     0.188 C 
HETATM   21  C23 UNL     1      24.797   6.829  50.814  1.00  0.00     0.148 C 
ENDROOT
BRANCH   1  22
HETATM   22  N1  UNL     1      24.301   2.081  52.604  1.00  0.00    -0.379 N 
HETATM   23  H7  UNL     1      23.972   2.649  53.426  1.00  0.00     0.160 HD
BRANCH  22  24
HETATM   24  C7  UNL     1      25.500   1.355  52.838  1.00  0.00     0.034 A 
HETATM   25  C2  UNL     1      25.548   0.041  53.247  1.00  0.00    -0.034 A 
HETATM   26  C1  UNL     1      24.270  -0.684  53.461  1.00  0.00     0.050 C 
HETATM   27  C3  UNL     1      26.707  -0.661  53.477  1.00  0.00     0.028 A 
HETATM   28  C4  UNL     1      27.917  -0.032  53.292  1.00  0.00     0.011 A 
HETATM   29 BR1  UNL     1      29.581  -0.936  53.589  1.00  0.00    -0.051 Br
HETATM   30  C5  UNL     1      27.960   1.284  52.884  1.00  0.00     0.021 A 
HETATM   31  C6  UNL     1      26.754   1.931  52.671  1.00  0.00     0.031 A 
ENDBRANCH  22  24
ENDBRANCH   1  22
TORSDOF 2
ENDMDL
MODEL 9
REMARK VINA RESULT:      -7.7      7.216      9.731
REMARK  2 active torsions:
REMARK  status: ('A' for Active; 'I' for Inactive)
REMARK    1  A    between atoms: C7_8  and  N1_9 
REMARK    2  A    between atoms: N1_9  and  C8_10 
ROOT
HETATM    1  C8  UNL     1      26.184   7.489  49.119  1.00  0.00     0.132 C 
HETATM    2  C9  UNL     1      26.106   8.399  50.320  1.00  0.00     0.178 C 
HETATM    3  N2  UNL     1      27.212   9.285  50.535  1.00  0.00    -0.293 NA
HETATM    4  C10 UNL     1      28.181   9.403  49.694  1.00  0.00     0.042 C 
HETATM    5  C11 UNL     1      27.431   9.382  48.376  1.00  0.00     0.095 C 
HETATM    6  C12 UNL     1      27.353   7.855  48.294  1.00  0.00    -0.035 C 
HETATM    7  C13 UNL     1      28.306   7.338  47.568  1.00  0.00     0.090 C 
HETATM    8  N3  UNL     1      29.445   7.422  46.752  1.00  0.00    -0.388 N 
HETATM    9  C14 UNL     1      29.559   7.789  45.380  1.00  0.00     0.124 C 
HETATM   10  C15 UNL     1      30.412   8.983  45.137  1.00  0.00     0.050 C 
HETATM   11  C16 UNL     1      30.237  10.213  45.973  1.00  0.00     0.275 C 
HETATM   12  N4  UNL     1      30.638   9.968  47.308  1.00  0.00     0.100 N 
HETATM   13  C17 UNL     1      32.086  10.192  47.377  1.00  0.00     0.299 C 
HETATM   14  C18 UNL     1      32.436  11.638  47.299  1.00  0.00     0.198 C 
HETATM   15  O1  UNL     1      31.536  12.369  48.089  1.00  0.00    -0.387 OA
HETATM   16  C19 UNL     1      30.943  11.568  49.036  1.00  0.00     0.206 C 
HETATM   17  C20 UNL     1      29.962  10.549  48.410  1.00  0.00     0.281 C 
HETATM   18  C21 UNL     1      29.722   9.492  49.461  1.00  0.00     0.204 C 
HETATM   19  O2  UNL     1      30.199   8.375  49.142  1.00  0.00    -0.376 OA
HETATM   20  C22 UNL     1      30.676   7.261  48.825  1.00  0.00     0.188 C 
HETATM   21  C23 UNL     1      30.744   7.089  47.269  1.00  0.00     0.148 C 
ENDROOT
BRANCH   1  22
HETATM   22  N1  UNL     1      26.243   6.099  49.450  1.00  0.00    -0.379 N 
HETATM   23  H7  UNL     1      27.115   5.694  49.875  1.00  0.00     0.160 HD
BRANCH  22  24
HETATM   24  C7  UNL     1      25.197   5.156  49.256  1.00  0.00     0.034 A 
HETATM   25  C2  UNL     1      25.256   3.836  49.646  1.00  0.00    -0.034 A 
HETATM   26  C1  UNL     1      26.488   3.347  50.316  1.00  0.00     0.050 C 
HETATM   27  C3  UNL     1      24.247   2.922  49.457  1.00  0.00     0.028 A 
HETATM   28  C4  UNL     1      23.086   3.328  48.839  1.00  0.00     0.011 A 
HETATM   29 BR1  UNL     1      21.629   2.120  48.536  1.00  0.00    -0.051 Br
HETATM   30  C5  UNL     1      22.943   4.632  48.417  1.00  0.00     0.021 A 
HETATM   31  C6  UNL     1      24.001   5.500  48.639  1.00  0.00     0.031 A 
ENDBRANCH  22  24
ENDBRANCH   1  22
TORSDOF 2
ENDMDL
