MODEL 1
REMARK VINA RESULT:      -7.3      0.000      0.000
REMARK  6 active torsions:
REMARK  status: ('A' for Active; 'I' for Inactive)
REMARK    1  A    between atoms: N1_2  and  C2_3 
REMARK    2  A    between atoms: C4_5  and  N2_6 
REMARK    3  A    between atoms: N2_6  and  C5_7 
REMARK    4  A    between atoms: C5_7  and  N3_8 
REMARK    5  A    between atoms: C6_9  and  C7_10 
REMARK    6  A    between atoms: C11_15  and  O1_16 
ROOT
HETATM    1  N3  UNL     1      24.803   1.980  53.116  1.00  0.00    -0.282 NA
HETATM    2  C6  UNL     1      25.709   1.429  52.396  1.00  0.00     0.114 C 
ENDROOT
BRANCH   1   3
HETATM    3  C5  UNL     1      23.443   2.185  52.807  1.00  0.00     0.270 C 
BRANCH   3   4
HETATM    4  N2  UNL     1      22.826   1.115  52.029  1.00  0.00    -0.372 N 
HETATM    5  H6  UNL     1      22.757   0.696  51.076  1.00  0.00     0.161 HD
BRANCH   4   6
HETATM    6  C4  UNL     1      21.967   0.264  52.783  1.00  0.00     0.027 A 
HETATM    7  C3  UNL     1      20.532   0.020  52.802  1.00  0.00     0.053 A 
HETATM    8  C2  UNL     1      20.238  -0.890  53.712  1.00  0.00     0.010 A 
HETATM    9  C14 UNL     1      21.468  -1.356  54.407  1.00  0.00     0.086 A 
HETATM   10  C13 UNL     1      22.502  -0.538  53.717  1.00  0.00     0.008 A 
BRANCH   8  11
HETATM   11  N1  UNL     1      18.843  -1.236  53.845  1.00  0.00    -0.397 N 
HETATM   12  C1  UNL     1      18.046  -0.830  52.700  1.00  0.00     0.146 C 
HETATM   13  H4  UNL     1      18.419  -1.735  54.680  1.00  0.00     0.158 HD
ENDBRANCH   8  11
ENDBRANCH   4   6
ENDBRANCH   3   4
ENDBRANCH   1   3
BRANCH   2  14
HETATM   14  C7  UNL     1      27.055   1.300  52.867  1.00  0.00     0.048 C 
HETATM   15  C8  UNL     1      27.932   0.345  53.094  1.00  0.00     0.040 A 
HETATM   16  C9  UNL     1      29.289   0.645  53.609  1.00  0.00     0.049 A 
HETATM   17  N5  UNL     1      27.736  -1.049  52.896  1.00  0.00    -0.316 N 
HETATM   18  C10 UNL     1      30.162  -0.285  53.837  1.00  0.00     0.123 A 
HETATM   19  N4  UNL     1      29.859  -1.646  53.603  1.00  0.00    -0.221 NA
HETATM   20  C11 UNL     1      28.729  -2.029  53.163  1.00  0.00     0.245 A 
HETATM   21  C12 UNL     1      26.479  -1.520  52.401  1.00  0.00     0.160 C 
BRANCH  20  22
HETATM   22  O1  UNL     1      28.487  -3.380  52.953  1.00  0.00    -0.331 OA
HETATM   23  H13 UNL     1      27.847  -3.886  53.585  1.00  0.00     0.221 HD
ENDBRANCH  20  22
ENDBRANCH   2  14
TORSDOF 6
ENDMDL
MODEL 2
REMARK VINA RESULT:      -7.1      2.046      6.697
REMARK  6 active torsions:
REMARK  status: ('A' for Active; 'I' for Inactive)
REMARK    1  A    between atoms: N1_2  and  C2_3 
REMARK    2  A    between atoms: C4_5  and  N2_6 
REMARK    3  A    between atoms: N2_6  and  C5_7 
REMARK    4  A    between atoms: C5_7  and  N3_8 
REMARK    5  A    between atoms: C6_9  and  C7_10 
REMARK    6  A    between atoms: C11_15  and  O1_16 
ROOT
HETATM    1  N3  UNL     1      25.207   2.259  52.031  1.00  0.00    -0.282 NA
HETATM    2  C6  UNL     1      24.384   1.422  51.516  1.00  0.00     0.114 C 
ENDROOT
BRANCH   1   3
HETATM    3  C5  UNL     1      26.527   2.550  51.631  1.00  0.00     0.270 C 
BRANCH   3   4
HETATM    4  N2  UNL     1      27.492   2.633  52.723  1.00  0.00    -0.372 N 
HETATM    5  H6  UNL     1      27.969   3.289  53.380  1.00  0.00     0.161 HD
BRANCH   4   6
HETATM    6  C4  UNL     1      28.051   1.380  53.106  1.00  0.00     0.027 A 
HETATM    7  C3  UNL     1      27.763  -0.009  52.778  1.00  0.00     0.053 A 
HETATM    8  C2  UNL     1      28.596  -0.809  53.417  1.00  0.00     0.010 A 
HETATM    9  C14 UNL     1      29.545  -0.023  54.252  1.00  0.00     0.086 A 
HETATM   10  C13 UNL     1      29.086   1.363  53.961  1.00  0.00     0.008 A 
BRANCH   8  11
HETATM   11  N1  UNL     1      28.430  -2.224  53.187  1.00  0.00    -0.397 N 
HETATM   12  C1  UNL     1      27.197  -2.544  52.489  1.00  0.00     0.146 C 
HETATM   13  H4  UNL     1      29.120  -2.972  53.487  1.00  0.00     0.158 HD
ENDBRANCH   8  11
ENDBRANCH   4   6
ENDBRANCH   3   4
ENDBRANCH   1   3
BRANCH   2  14
HETATM   14  C7  UNL     1      23.068   1.249  52.052  1.00  0.00     0.048 C 
HETATM   15  C8  UNL     1      22.477   0.571  53.013  1.00  0.00     0.040 A 
HETATM   16  C9  UNL     1      21.018   0.675  53.252  1.00  0.00     0.049 A 
HETATM   17  N5  UNL     1      23.102  -0.322  53.926  1.00  0.00    -0.316 N 
HETATM   18  C10 UNL     1      20.423   0.014  54.194  1.00  0.00     0.123 A 
HETATM   19  N4  UNL     1      21.146  -0.851  55.048  1.00  0.00    -0.221 NA
HETATM   20  C11 UNL     1      22.401  -1.025  54.943  1.00  0.00     0.245 A 
HETATM   21  C12 UNL     1      24.512  -0.544  53.841  1.00  0.00     0.160 C 
BRANCH  20  22
HETATM   22  O1  UNL     1      23.059  -1.887  55.811  1.00  0.00    -0.331 OA
HETATM   23  H13 UNL     1      23.281  -1.571  56.769  1.00  0.00     0.221 HD
ENDBRANCH  20  22
ENDBRANCH   2  14
TORSDOF 6
ENDMDL
MODEL 3
REMARK VINA RESULT:      -6.8      3.363      5.694
REMARK  6 active torsions:
REMARK  status: ('A' for Active; 'I' for Inactive)
REMARK    1  A    between atoms: N1_2  and  C2_3 
REMARK    2  A    between atoms: C4_5  and  N2_6 
REMARK    3  A    between atoms: N2_6  and  C5_7 
REMARK    4  A    between atoms: C5_7  and  N3_8 
REMARK    5  A    between atoms: C6_9  and  C7_10 
REMARK    6  A    between atoms: C11_15  and  O1_16 
ROOT
HETATM    1  N3  UNL     1      24.393   1.198  51.776  1.00  0.00    -0.282 NA
HETATM    2  C6  UNL     1      24.643   0.423  52.766  1.00  0.00     0.114 C 
ENDROOT
BRANCH   1   3
HETATM    3  C5  UNL     1      23.253   1.996  51.554  1.00  0.00     0.270 C 
BRANCH   3   4
HETATM    4  N2  UNL     1      23.228   2.681  50.265  1.00  0.00    -0.372 N 
HETATM    5  H6  UNL     1      22.777   2.693  49.324  1.00  0.00     0.161 HD
BRANCH   4   6
HETATM    6  C4  UNL     1      24.145   3.766  50.162  1.00  0.00     0.027 A 
HETATM    7  C3  UNL     1      24.244   5.080  50.781  1.00  0.00     0.053 A 
HETATM    8  C2  UNL     1      25.311   5.715  50.332  1.00  0.00     0.010 A 
HETATM    9  C14 UNL     1      26.048   4.875  49.349  1.00  0.00     0.086 A 
HETATM   10  C13 UNL     1      25.196   3.655  49.334  1.00  0.00     0.008 A 
BRANCH   8  11
HETATM   11  N1  UNL     1      25.540   7.038  50.860  1.00  0.00    -0.397 N 
HETATM   12  C1  UNL     1      26.279   7.894  49.947  1.00  0.00     0.146 C 
HETATM   13  H4  UNL     1      25.214   7.375  51.812  1.00  0.00     0.158 HD
ENDBRANCH   8  11
ENDBRANCH   4   6
ENDBRANCH   3   4
ENDBRANCH   1   3
BRANCH   2  14
HETATM   14  C7  UNL     1      25.863  -0.323  52.835  1.00  0.00     0.048 C 
HETATM   15  C8  UNL     1      27.117  -0.131  53.185  1.00  0.00     0.040 A 
HETATM   16  C9  UNL     1      28.120  -1.218  53.104  1.00  0.00     0.049 A 
HETATM   17  N5  UNL     1      27.684   1.079  53.670  1.00  0.00    -0.316 N 
HETATM   18  C10 UNL     1      29.358  -1.043  53.445  1.00  0.00     0.123 A 
HETATM   19  N4  UNL     1      29.816   0.209  53.917  1.00  0.00    -0.221 NA
HETATM   20  C11 UNL     1      29.052   1.218  54.031  1.00  0.00     0.245 A 
HETATM   21  C12 UNL     1      26.857   2.237  53.814  1.00  0.00     0.160 C 
BRANCH  20  22
HETATM   22  O1  UNL     1      29.557   2.423  54.500  1.00  0.00    -0.331 OA
HETATM   23  H13 UNL     1      29.318   3.300  54.010  1.00  0.00     0.221 HD
ENDBRANCH  20  22
ENDBRANCH   2  14
TORSDOF 6
ENDMDL
MODEL 4
REMARK VINA RESULT:      -6.8      3.292      5.800
REMARK  6 active torsions:
REMARK  status: ('A' for Active; 'I' for Inactive)
REMARK    1  A    between atoms: N1_2  and  C2_3 
REMARK    2  A    between atoms: C4_5  and  N2_6 
REMARK    3  A    between atoms: N2_6  and  C5_7 
REMARK    4  A    between atoms: C5_7  and  N3_8 
REMARK    5  A    between atoms: C6_9  and  C7_10 
REMARK    6  A    between atoms: C11_15  and  O1_16 
ROOT
HETATM    1  N3  UNL     1      25.385   2.265  52.278  1.00  0.00    -0.282 NA
HETATM    2  C6  UNL     1      25.822   1.824  53.399  1.00  0.00     0.114 C 
ENDROOT
BRANCH   1   3
HETATM    3  C5  UNL     1      24.066   2.620  51.931  1.00  0.00     0.270 C 
BRANCH   3   4
HETATM    4  N2  UNL     1      23.889   3.023  50.538  1.00  0.00    -0.372 N 
HETATM    5  H6  UNL     1      23.288   2.900  49.694  1.00  0.00     0.161 HD
BRANCH   4   6
HETATM    6  C4  UNL     1      24.873   3.937  50.065  1.00  0.00     0.027 A 
HETATM    7  C3  UNL     1      26.192   3.795  49.464  1.00  0.00     0.053 A 
HETATM    8  C2  UNL     1      26.702   4.984  49.200  1.00  0.00     0.010 A 
HETATM    9  C14 UNL     1      25.759   6.062  49.605  1.00  0.00     0.086 A 
HETATM   10  C13 UNL     1      24.630   5.255  50.142  1.00  0.00     0.008 A 
BRANCH   8  11
HETATM   11  N1  UNL     1      28.013   5.000  48.599  1.00  0.00    -0.397 N 
HETATM   12  C1  UNL     1      28.392   6.311  48.099  1.00  0.00     0.146 C 
HETATM   13  H4  UNL     1      28.654   4.158  48.517  1.00  0.00     0.158 HD
ENDBRANCH   8  11
ENDBRANCH   4   6
ENDBRANCH   3   4
ENDBRANCH   1   3
BRANCH   2  14
HETATM   14  C7  UNL     1      27.206   1.509  53.584  1.00  0.00     0.048 C 
HETATM   15  C8  UNL     1      27.995   0.458  53.517  1.00  0.00     0.040 A 
HETATM   16  C9  UNL     1      29.447   0.558  53.796  1.00  0.00     0.049 A 
HETATM   17  N5  UNL     1      27.609  -0.869  53.185  1.00  0.00    -0.316 N 
HETATM   18  C10 UNL     1      30.235  -0.468  53.733  1.00  0.00     0.123 A 
HETATM   19  N4  UNL     1      29.742  -1.749  53.392  1.00  0.00    -0.221 NA
HETATM   20  C11 UNL     1      28.516  -1.962  53.131  1.00  0.00     0.245 A 
HETATM   21  C12 UNL     1      26.239  -1.151  52.884  1.00  0.00     0.160 C 
BRANCH  20  22
HETATM   22  O1  UNL     1      28.088  -3.241  52.801  1.00  0.00    -0.331 OA
HETATM   23  H13 UNL     1      28.258  -4.019  53.459  1.00  0.00     0.221 HD
ENDBRANCH  20  22
ENDBRANCH   2  14
TORSDOF 6
ENDMDL
MODEL 5
REMARK VINA RESULT:      -6.7      6.637      8.944
REMARK  6 active torsions:
REMARK  status: ('A' for Active; 'I' for Inactive)
REMARK    1  A    between atoms: N1_2  and  C2_3 
REMARK    2  A    between atoms: C4_5  and  N2_6 
REMARK    3  A    between atoms: N2_6  and  C5_7 
REMARK    4  A    between atoms: C5_7  and  N3_8 
REMARK    5  A    between atoms: C6_9  and  C7_10 
REMARK    6  A    between atoms: C11_15  and  O1_16 
ROOT
HETATM    1  N3  UNL     1      27.262   4.052  49.296  1.00  0.00    -0.282 NA
HETATM    2  C6  UNL     1      26.925   5.240  48.953  1.00  0.00     0.114 C 
ENDROOT
BRANCH   1   3
HETATM    3  C5  UNL     1      26.512   3.101  50.017  1.00  0.00     0.270 C 
BRANCH   3   4
HETATM    4  N2  UNL     1      26.717   3.132  51.463  1.00  0.00    -0.372 N 
HETATM    5  H6  UNL     1      26.759   3.759  52.296  1.00  0.00     0.161 HD
BRANCH   4   6
HETATM    6  C4  UNL     1      26.962   1.857  52.046  1.00  0.00     0.027 A 
HETATM    7  C3  UNL     1      27.883   1.356  53.057  1.00  0.00     0.053 A 
HETATM    8  C2  UNL     1      27.699   0.062  53.239  1.00  0.00     0.010 A 
HETATM    9  C14 UNL     1      26.617  -0.446  52.352  1.00  0.00     0.086 A 
HETATM   10  C13 UNL     1      26.232   0.805  51.643  1.00  0.00     0.008 A 
BRANCH   8  11
HETATM   11  N1  UNL     1      28.546  -0.575  54.218  1.00  0.00    -0.397 N 
HETATM   12  C1  UNL     1      29.867  -0.895  53.704  1.00  0.00     0.146 C 
HETATM   13  H4  UNL     1      28.259  -0.798  55.215  1.00  0.00     0.158 HD
ENDBRANCH   8  11
ENDBRANCH   4   6
ENDBRANCH   3   4
ENDBRANCH   1   3
BRANCH   2  14
HETATM   14  C7  UNL     1      27.817   6.081  48.214  1.00  0.00     0.048 C 
HETATM   15  C8  UNL     1      28.172   7.347  48.175  1.00  0.00     0.040 A 
HETATM   16  C9  UNL     1      29.183   7.840  47.211  1.00  0.00     0.049 A 
HETATM   17  N5  UNL     1      27.674   8.391  49.003  1.00  0.00    -0.316 N 
HETATM   18  C10 UNL     1      29.542   9.085  47.162  1.00  0.00     0.123 A 
HETATM   19  N4  UNL     1      28.979  10.043  48.037  1.00  0.00    -0.221 NA
HETATM   20  C11 UNL     1      28.103   9.743  48.907  1.00  0.00     0.245 A 
HETATM   21  C12 UNL     1      26.688   8.094  49.995  1.00  0.00     0.160 C 
BRANCH  20  22
HETATM   22  O1  UNL     1      27.585  10.726  49.740  1.00  0.00    -0.331 OA
HETATM   23  H13 UNL     1      26.570  10.914  49.734  1.00  0.00     0.221 HD
ENDBRANCH  20  22
ENDBRANCH   2  14
TORSDOF 6
ENDMDL
MODEL 6
REMARK VINA RESULT:      -6.7      2.446      3.049
REMARK  6 active torsions:
REMARK  status: ('A' for Active; 'I' for Inactive)
REMARK    1  A    between atoms: N1_2  and  C2_3 
REMARK    2  A    between atoms: C4_5  and  N2_6 
REMARK    3  A    between atoms: N2_6  and  C5_7 
REMARK    4  A    between atoms: C5_7  and  N3_8 
REMARK    5  A    between atoms: C6_9  and  C7_10 
REMARK    6  A    between atoms: C11_15  and  O1_16 
ROOT
HETATM    1  N3  UNL     1      23.053   1.565  52.592  1.00  0.00    -0.282 NA
HETATM    2  C6  UNL     1      24.049   0.834  52.252  1.00  0.00     0.114 C 
ENDROOT
BRANCH   1   3
HETATM    3  C5  UNL     1      22.010   2.057  51.782  1.00  0.00     0.270 C 
BRANCH   3   4
HETATM    4  N2  UNL     1      21.374   1.056  50.930  1.00  0.00    -0.372 N 
HETATM    5  H6  UNL     1      21.425   0.583  50.002  1.00  0.00     0.161 HD
BRANCH   4   6
HETATM    6  C4  UNL     1      20.233   0.433  51.512  1.00  0.00     0.027 A 
HETATM    7  C3  UNL     1      20.002  -0.351  52.717  1.00  0.00     0.053 A 
HETATM    8  C2  UNL     1      18.731  -0.700  52.796  1.00  0.00     0.010 A 
HETATM    9  C14 UNL     1      17.968  -0.175  51.630  1.00  0.00     0.086 A 
HETATM   10  C13 UNL     1      19.048   0.530  50.889  1.00  0.00     0.008 A 
BRANCH   8  11
HETATM   11  N1  UNL     1      18.351  -1.485  53.945  1.00  0.00    -0.397 N 
HETATM   12  C1  UNL     1      17.613  -2.686  53.593  1.00  0.00     0.146 C 
HETATM   13  H4  UNL     1      18.575  -1.235  54.951  1.00  0.00     0.158 HD
ENDBRANCH   8  11
ENDBRANCH   4   6
ENDBRANCH   3   4
ENDBRANCH   1   3
BRANCH   2  14
HETATM   14  C7  UNL     1      25.027   0.419  53.211  1.00  0.00     0.048 C 
HETATM   15  C8  UNL     1      26.246   0.749  53.581  1.00  0.00     0.040 A 
HETATM   16  C9  UNL     1      26.945   0.034  54.674  1.00  0.00     0.049 A 
HETATM   17  N5  UNL     1      27.047   1.786  53.028  1.00  0.00    -0.316 N 
HETATM   18  C10 UNL     1      28.145   0.349  55.050  1.00  0.00     0.123 A 
HETATM   19  N4  UNL     1      28.853   1.402  54.426  1.00  0.00    -0.221 NA
HETATM   20  C11 UNL     1      28.361   2.090  53.477  1.00  0.00     0.245 A 
HETATM   21  C12 UNL     1      26.528   2.582  51.959  1.00  0.00     0.160 C 
BRANCH  20  22
HETATM   22  O1  UNL     1      29.102   3.113  52.902  1.00  0.00    -0.331 OA
HETATM   23  H13 UNL     1      29.957   2.884  52.370  1.00  0.00     0.221 HD
ENDBRANCH  20  22
ENDBRANCH   2  14
TORSDOF 6
ENDMDL
MODEL 7
REMARK VINA RESULT:      -6.6      2.378      3.443
REMARK  6 active torsions:
REMARK  status: ('A' for Active; 'I' for Inactive)
REMARK    1  A    between atoms: N1_2  and  C2_3 
REMARK    2  A    between atoms: C4_5  and  N2_6 
REMARK    3  A    between atoms: N2_6  and  C5_7 
REMARK    4  A    between atoms: C5_7  and  N3_8 
REMARK    5  A    between atoms: C6_9  and  C7_10 
REMARK    6  A    between atoms: C11_15  and  O1_16 
ROOT
HETATM    1  N3  UNL     1      25.101   2.658  52.954  1.00  0.00    -0.282 NA
HETATM    2  C6  UNL     1      25.597   1.534  53.319  1.00  0.00     0.114 C 
ENDROOT
BRANCH   1   3
HETATM    3  C5  UNL     1      23.749   2.990  52.734  1.00  0.00     0.270 C 
BRANCH   3   4
HETATM    4  N2  UNL     1      22.880   1.851  52.449  1.00  0.00    -0.372 N 
HETATM    5  H6  UNL     1      22.395   1.031  52.876  1.00  0.00     0.161 HD
BRANCH   4   6
HETATM    6  C4  UNL     1      22.496   1.737  51.082  1.00  0.00     0.027 A 
HETATM    7  C3  UNL     1      22.932   2.365  49.843  1.00  0.00     0.053 A 
HETATM    8  C2  UNL     1      22.234   1.896  48.825  1.00  0.00     0.010 A 
HETATM    9  C14 UNL     1      21.244   0.886  49.287  1.00  0.00     0.086 A 
HETATM   10  C13 UNL     1      21.517   0.880  50.750  1.00  0.00     0.008 A 
BRANCH   8  11
HETATM   11  N1  UNL     1      22.559   2.430  47.525  1.00  0.00    -0.397 N 
HETATM   12  C1  UNL     1      21.534   3.319  47.005  1.00  0.00     0.146 C 
HETATM   13  H4  UNL     1      23.445   2.214  46.984  1.00  0.00     0.158 HD
ENDBRANCH   8  11
ENDBRANCH   4   6
ENDBRANCH   3   4
ENDBRANCH   1   3
BRANCH   2  14
HETATM   14  C7  UNL     1      27.007   1.368  53.498  1.00  0.00     0.048 C 
HETATM   15  C8  UNL     1      27.898   0.400  53.459  1.00  0.00     0.040 A 
HETATM   16  C9  UNL     1      29.334   0.657  53.717  1.00  0.00     0.049 A 
HETATM   17  N5  UNL     1      27.646  -0.971  53.179  1.00  0.00    -0.316 N 
HETATM   18  C10 UNL     1      30.222  -0.286  53.682  1.00  0.00     0.123 A 
HETATM   19  N4  UNL     1      29.859  -1.622  53.392  1.00  0.00    -0.221 NA
HETATM   20  C11 UNL     1      28.659  -1.967  53.153  1.00  0.00     0.245 A 
HETATM   21  C12 UNL     1      26.310  -1.400  52.904  1.00  0.00     0.160 C 
BRANCH  20  22
HETATM   22  O1  UNL     1      28.360  -3.294  52.874  1.00  0.00    -0.331 OA
HETATM   23  H13 UNL     1      27.381  -3.617  52.928  1.00  0.00     0.221 HD
ENDBRANCH  20  22
ENDBRANCH   2  14
TORSDOF 6
ENDMDL
MODEL 8
REMARK VINA RESULT:      -6.5      2.736      4.791
REMARK  6 active torsions:
REMARK  status: ('A' for Active; 'I' for Inactive)
REMARK    1  A    between atoms: N1_2  and  C2_3 
REMARK    2  A    between atoms: C4_5  and  N2_6 
REMARK    3  A    between atoms: N2_6  and  C5_7 
REMARK    4  A    between atoms: C5_7  and  N3_8 
REMARK    5  A    between atoms: C6_9  and  C7_10 
REMARK    6  A    between atoms: C11_15  and  O1_16 
ROOT
HETATM    1  N3  UNL     1      24.687   1.540  51.653  1.00  0.00    -0.282 NA
HETATM    2  C6  UNL     1      25.174   1.015  52.717  1.00  0.00     0.114 C 
ENDROOT
BRANCH   1   3
HETATM    3  C5  UNL     1      23.349   1.542  51.209  1.00  0.00     0.270 C 
BRANCH   3   4
HETATM    4  N2  UNL     1      22.487   2.515  51.874  1.00  0.00    -0.372 N 
HETATM    5  H6  UNL     1      21.694   2.622  52.543  1.00  0.00     0.161 HD
BRANCH   4   6
HETATM    6  C4  UNL     1      22.765   3.870  51.534  1.00  0.00     0.027 A 
HETATM    7  C3  UNL     1      23.737   4.856  51.984  1.00  0.00     0.053 A 
HETATM    8  C2  UNL     1      23.567   5.992  51.333  1.00  0.00     0.010 A 
HETATM    9  C14 UNL     1      22.444   5.880  50.363  1.00  0.00     0.086 A 
HETATM   10  C13 UNL     1      22.020   4.472  50.593  1.00  0.00     0.008 A 
BRANCH   8  11
HETATM   11  N1  UNL     1      24.465   7.068  51.677  1.00  0.00    -0.397 N 
HETATM   12  C1  UNL     1      25.348   7.441  50.585  1.00  0.00     0.146 C 
HETATM   13  H4  UNL     1      24.497   7.554  52.619  1.00  0.00     0.158 HD
ENDBRANCH   8  11
ENDBRANCH   4   6
ENDBRANCH   3   4
ENDBRANCH   1   3
BRANCH   2  14
HETATM   14  C7  UNL     1      26.570   1.107  53.018  1.00  0.00     0.048 C 
HETATM   15  C8  UNL     1      27.599   0.303  53.173  1.00  0.00     0.040 A 
HETATM   16  C9  UNL     1      28.948   0.823  53.498  1.00  0.00     0.049 A 
HETATM   17  N5  UNL     1      27.590  -1.115  53.060  1.00  0.00    -0.316 N 
HETATM   18  C10 UNL     1      29.971   0.042  53.653  1.00  0.00     0.123 A 
HETATM   19  N4  UNL     1      29.847  -1.360  53.518  1.00  0.00    -0.221 NA
HETATM   20  C11 UNL     1      28.743  -1.926  53.241  1.00  0.00     0.245 A 
HETATM   21  C12 UNL     1      26.367  -1.789  52.749  1.00  0.00     0.160 C 
BRANCH  20  22
HETATM   22  O1  UNL     1      28.681  -3.308  53.120  1.00  0.00    -0.331 OA
HETATM   23  H13 UNL     1      28.460  -3.881  53.950  1.00  0.00     0.221 HD
ENDBRANCH  20  22
ENDBRANCH   2  14
TORSDOF 6
ENDMDL
MODEL 9
REMARK VINA RESULT:      -6.5      4.025      7.172
REMARK  6 active torsions:
REMARK  status: ('A' for Active; 'I' for Inactive)
REMARK    1  A    between atoms: N1_2  and  C2_3 
REMARK    2  A    between atoms: C4_5  and  N2_6 
REMARK    3  A    between atoms: N2_6  and  C5_7 
REMARK    4  A    between atoms: C5_7  and  N3_8 
REMARK    5  A    between atoms: C6_9  and  C7_10 
REMARK    6  A    between atoms: C11_15  and  O1_16 
ROOT
HETATM    1  N3  UNL     1      23.968   0.883  52.088  1.00  0.00    -0.282 NA
HETATM    2  C6  UNL     1      23.862   2.156  51.975  1.00  0.00     0.114 C 
ENDROOT
BRANCH   1   3
HETATM    3  C5  UNL     1      23.267   0.018  52.952  1.00  0.00     0.270 C 
BRANCH   3   4
HETATM    4  N2  UNL     1      24.058  -0.510  54.060  1.00  0.00    -0.372 N 
HETATM    5  H6  UNL     1      24.001  -1.012  54.973  1.00  0.00     0.161 HD
BRANCH   4   6
HETATM    6  C4  UNL     1      25.461  -0.305  53.927  1.00  0.00     0.027 A 
HETATM    7  C3  UNL     1      26.415   0.628  54.509  1.00  0.00     0.053 A 
HETATM    8  C2  UNL     1      27.627   0.389  54.042  1.00  0.00     0.010 A 
HETATM    9  C14 UNL     1      27.606  -0.749  53.083  1.00  0.00     0.086 A 
HETATM   10  C13 UNL     1      26.160  -1.100  53.102  1.00  0.00     0.008 A 
BRANCH   8  11
HETATM   11  N1  UNL     1      28.683   1.241  54.533  1.00  0.00    -0.397 N 
HETATM   12  C1  UNL     1      28.847   2.452  53.748  1.00  0.00     0.146 C 
HETATM   13  H4  UNL     1      29.290   1.028  55.377  1.00  0.00     0.158 HD
ENDBRANCH   8  11
ENDBRANCH   4   6
ENDBRANCH   3   4
ENDBRANCH   1   3
BRANCH   2  14
HETATM   14  C7  UNL     1      24.659   2.887  51.037  1.00  0.00     0.048 C 
HETATM   15  C8  UNL     1      24.879   4.139  50.697  1.00  0.00     0.040 A 
HETATM   16  C9  UNL     1      25.830   4.493  49.617  1.00  0.00     0.049 A 
HETATM   17  N5  UNL     1      24.277   5.291  51.273  1.00  0.00    -0.316 N 
HETATM   18  C10 UNL     1      26.056   5.722  49.271  1.00  0.00     0.123 A 
HETATM   19  N4  UNL     1      25.398   6.795  49.915  1.00  0.00    -0.221 NA
HETATM   20  C11 UNL     1      24.561   6.619  50.855  1.00  0.00     0.245 A 
HETATM   21  C12 UNL     1      23.330   5.135  52.334  1.00  0.00     0.160 C 
BRANCH  20  22
HETATM   22  O1  UNL     1      23.945   7.712  51.451  1.00  0.00    -0.331 OA
HETATM   23  H13 UNL     1      24.479   8.298  52.112  1.00  0.00     0.221 HD
ENDBRANCH  20  22
ENDBRANCH   2  14
TORSDOF 6
ENDMDL
