MODEL 1
REMARK VINA RESULT:      -8.9      0.000      0.000
REMARK  7 active torsions:
REMARK  status: ('A' for Active; 'I' for Inactive)
REMARK    1  A    between atoms: O1_2  and  C2_3 
REMARK    2  A    between atoms: C9_10  and  O2_11 
REMARK    3  A    between atoms: S1_15  and  N2_16 
REMARK    4  A    between atoms: N2_16  and  C11_17 
REMARK    5  A    between atoms: C11_17  and  C12_18 
REMARK    6  A    between atoms: C14_21  and  N4_22 
REMARK    7  A    between atoms: N4_22  and  C15_23 
ROOT
HETATM    1  C2  UNL     1      29.868   8.988  48.842  1.00  0.00     0.056 C 
HETATM    2  C3  UNL     1      31.081   8.583  49.306  1.00  0.00     0.033 C 
HETATM    3  C4  UNL     1      32.462   8.060  49.521  1.00  0.00     0.008 C 
HETATM    4  C5  UNL     1      33.178   7.567  48.530  1.00  0.00    -0.050 C 
HETATM    5  C6  UNL     1      33.103   7.333  47.114  1.00  0.00     0.062 C 
HETATM    6  C7  UNL     1      32.417   5.866  47.465  1.00  0.00     0.092 C 
HETATM    7  C8  UNL     1      33.709   5.380  47.488  1.00  0.00     0.061 C 
HETATM    8  C9  UNL     1      34.339   6.596  48.347  1.00  0.00     0.149 C 
HETATM    9  N1  UNL     1      31.151   6.304  47.192  1.00  0.00    -0.346 N 
HETATM   10  C10 UNL     1      29.959   6.214  47.960  1.00  0.00     0.290 C 
HETATM   11  O3  UNL     1      30.348   5.472  48.861  1.00  0.00    -0.259 OA
HETATM   12  S1  UNL     1      28.567   7.225  47.247  1.00  0.00    -0.010 SA
HETATM   13  C22 UNL     1      29.515   8.887  47.376  1.00  0.00     0.161 C 
HETATM   14  H13 UNL     1      30.985   6.752  46.285  1.00  0.00     0.163 HD
ENDROOT
BRANCH  12  15
HETATM   15  N2  UNL     1      27.522   7.237  48.403  1.00  0.00    -0.255 NA
BRANCH  15  16
HETATM   16  C11 UNL     1      26.213   6.711  48.321  1.00  0.00     0.199 C 
BRANCH  16  17
HETATM   17  C12 UNL     1      26.095   5.478  49.153  1.00  0.00    -0.002 A 
HETATM   18  C13 UNL     1      25.104   5.383  50.082  1.00  0.00     0.146 A 
HETATM   19  N3  UNL     1      25.029   4.278  50.797  1.00  0.00    -0.074 NA
HETATM   20  C14 UNL     1      25.833   3.224  50.708  1.00  0.00     0.726 A 
HETATM   21  N5  UNL     1      26.796   3.325  49.798  1.00  0.00    -0.074 NA
HETATM   22  C21 UNL     1      26.942   4.410  49.031  1.00  0.00     0.146 A 
BRANCH  20  23
HETATM   23  N4  UNL     1      25.735   2.047  51.486  1.00  0.00    -0.188 N 
HETATM   24  H17 UNL     1      24.792   1.577  51.533  1.00  0.00     0.184 HD
BRANCH  23  25
HETATM   25  C15 UNL     1      26.746   1.391  52.228  1.00  0.00     0.049 A 
HETATM   26  C16 UNL     1      26.821  -0.002  52.279  1.00  0.00     0.033 A 
HETATM   27  C17 UNL     1      27.781  -0.678  52.984  1.00  0.00     0.044 A 
HETATM   28  C18 UNL     1      28.738  -0.005  53.691  1.00  0.00     0.116 A 
HETATM   29  F1  UNL     1      29.656  -0.732  54.366  1.00  0.00    -0.206 F 
HETATM   30  C19 UNL     1      28.715   1.362  53.679  1.00  0.00     0.044 A 
HETATM   31  C20 UNL     1      27.735   1.998  52.960  1.00  0.00     0.033 A 
ENDBRANCH  23  25
ENDBRANCH  20  23
ENDBRANCH  16  17
ENDBRANCH  15  16
ENDBRANCH  12  15
BRANCH   1  32
HETATM   32  O1  UNL     1      28.780   9.544  49.490  1.00  0.00    -0.359 OA
HETATM   33  C1  UNL     1      28.300  10.790  49.049  1.00  0.00     0.209 C 
ENDBRANCH   1  32
BRANCH   8  34
HETATM   34  O2  UNL     1      35.380   7.154  47.693  1.00  0.00    -0.391 OA
HETATM   35  H12 UNL     1      35.183   8.041  47.316  1.00  0.00     0.210 HD
ENDBRANCH   8  34
TORSDOF 7
ENDMDL
MODEL 2
REMARK VINA RESULT:      -8.4      3.853      8.549
REMARK  7 active torsions:
REMARK  status: ('A' for Active; 'I' for Inactive)
REMARK    1  A    between atoms: O1_2  and  C2_3 
REMARK    2  A    between atoms: C9_10  and  O2_11 
REMARK    3  A    between atoms: S1_15  and  N2_16 
REMARK    4  A    between atoms: N2_16  and  C11_17 
REMARK    5  A    between atoms: C11_17  and  C12_18 
REMARK    6  A    between atoms: C14_21  and  N4_22 
REMARK    7  A    between atoms: N4_22  and  C15_23 
ROOT
HETATM    1  C2  UNL     1      23.102   4.734  48.896  1.00  0.00     0.056 C 
HETATM    2  C3  UNL     1      22.982   3.431  49.266  1.00  0.00     0.033 C 
HETATM    3  C4  UNL     1      22.883   2.113  49.959  1.00  0.00     0.008 C 
HETATM    4  C5  UNL     1      22.966   2.011  51.271  1.00  0.00    -0.050 C 
HETATM    5  C6  UNL     1      23.123   2.831  52.441  1.00  0.00     0.062 C 
HETATM    6  C7  UNL     1      24.760   2.680  52.239  1.00  0.00     0.092 C 
HETATM    7  C8  UNL     1      24.654   1.553  53.029  1.00  0.00     0.061 C 
HETATM    8  C9  UNL     1      23.340   0.953  52.303  1.00  0.00     0.149 C 
HETATM    9  N1  UNL     1      24.884   3.921  51.677  1.00  0.00    -0.346 N 
HETATM   10  C10 UNL     1      25.517   4.328  50.472  1.00  0.00     0.290 C 
HETATM   11  O3  UNL     1      26.078   3.276  50.166  1.00  0.00    -0.259 OA
HETATM   12  S1  UNL     1      25.150   6.099  50.031  1.00  0.00    -0.010 SA
HETATM   13  C22 UNL     1      23.254   5.831  49.924  1.00  0.00     0.161 C 
HETATM   14  H13 UNL     1      24.495   4.719  52.190  1.00  0.00     0.163 HD
ENDROOT
BRANCH  12  15
HETATM   15  N2  UNL     1      25.651   6.199  48.559  1.00  0.00    -0.255 NA
BRANCH  15  16
HETATM   16  C11 UNL     1      26.512   7.203  48.059  1.00  0.00     0.199 C 
BRANCH  16  17
HETATM   17  C12 UNL     1      27.938   6.811  48.254  1.00  0.00    -0.002 A 
HETATM   18  C13 UNL     1      28.282   5.494  48.262  1.00  0.00     0.146 A 
HETATM   19  N3  UNL     1      29.552   5.185  48.435  1.00  0.00    -0.074 NA
HETATM   20  C14 UNL     1      30.555   6.038  48.608  1.00  0.00     0.726 A 
HETATM   21  N5  UNL     1      30.211   7.322  48.598  1.00  0.00    -0.074 NA
HETATM   22  C21 UNL     1      28.946   7.720  48.428  1.00  0.00     0.146 A 
BRANCH  20  23
HETATM   23  N4  UNL     1      31.912   5.686  48.792  1.00  0.00    -0.188 N 
HETATM   24  H17 UNL     1      32.388   6.037  49.666  1.00  0.00     0.184 HD
BRANCH  23  25
HETATM   25  C15 UNL     1      32.746   4.909  47.953  1.00  0.00     0.049 A 
HETATM   26  C16 UNL     1      33.743   5.498  47.175  1.00  0.00     0.033 A 
HETATM   27  C17 UNL     1      34.572   4.786  46.350  1.00  0.00     0.044 A 
HETATM   28  C18 UNL     1      34.460   3.427  46.244  1.00  0.00     0.116 A 
HETATM   29  F1  UNL     1      35.309   2.784  45.411  1.00  0.00    -0.206 F 
HETATM   30  C19 UNL     1      33.500   2.794  46.983  1.00  0.00     0.044 A 
HETATM   31  C20 UNL     1      32.692   3.547  47.796  1.00  0.00     0.033 A 
ENDBRANCH  23  25
ENDBRANCH  20  23
ENDBRANCH  16  17
ENDBRANCH  15  16
ENDBRANCH  12  15
BRANCH   1  32
HETATM   32  O1  UNL     1      23.100   5.335  47.650  1.00  0.00    -0.359 OA
HETATM   33  C1  UNL     1      22.180   6.369  47.404  1.00  0.00     0.209 C 
ENDBRANCH   1  32
BRANCH   8  34
HETATM   34  O2  UNL     1      22.355   0.736  53.200  1.00  0.00    -0.391 OA
HETATM   35  H12 UNL     1      21.999  -0.181  53.185  1.00  0.00     0.210 HD
ENDBRANCH   8  34
TORSDOF 7
ENDMDL
MODEL 3
REMARK VINA RESULT:      -8.4      4.588      9.639
REMARK  7 active torsions:
REMARK  status: ('A' for Active; 'I' for Inactive)
REMARK    1  A    between atoms: O1_2  and  C2_3 
REMARK    2  A    between atoms: C9_10  and  O2_11 
REMARK    3  A    between atoms: S1_15  and  N2_16 
REMARK    4  A    between atoms: N2_16  and  C11_17 
REMARK    5  A    between atoms: C11_17  and  C12_18 
REMARK    6  A    between atoms: C14_21  and  N4_22 
REMARK    7  A    between atoms: N4_22  and  C15_23 
ROOT
HETATM    1  C2  UNL     1      22.183   2.662  50.247  1.00  0.00     0.056 C 
HETATM    2  C3  UNL     1      21.938   1.364  50.568  1.00  0.00     0.033 C 
HETATM    3  C4  UNL     1      21.688   0.040  51.211  1.00  0.00     0.008 C 
HETATM    4  C5  UNL     1      21.672  -0.102  52.521  1.00  0.00    -0.050 C 
HETATM    5  C6  UNL     1      21.813   0.672  53.724  1.00  0.00     0.062 C 
HETATM    6  C7  UNL     1      23.443   0.396  53.627  1.00  0.00     0.092 C 
HETATM    7  C8  UNL     1      23.195  -0.739  54.373  1.00  0.00     0.061 C 
HETATM    8  C9  UNL     1      21.892  -1.213  53.542  1.00  0.00     0.149 C 
HETATM    9  N1  UNL     1      23.702   1.637  53.114  1.00  0.00    -0.346 N 
HETATM   10  C10 UNL     1      24.446   2.023  51.967  1.00  0.00     0.290 C 
HETATM   11  O3  UNL     1      24.942   0.938  51.666  1.00  0.00    -0.259 OA
HETATM   12  S1  UNL     1      24.249   3.830  51.558  1.00  0.00    -0.010 SA
HETATM   13  C22 UNL     1      22.350   3.716  51.317  1.00  0.00     0.161 C 
HETATM   14  H13 UNL     1      23.342   2.450  53.624  1.00  0.00     0.163 HD
ENDROOT
BRANCH  12  15
HETATM   15  N2  UNL     1      24.857   3.928  50.126  1.00  0.00    -0.255 NA
BRANCH  15  16
HETATM   16  C11 UNL     1      24.894   5.099  49.337  1.00  0.00     0.199 C 
BRANCH  16  17
HETATM   17  C12 UNL     1      26.295   5.409  48.930  1.00  0.00    -0.002 A 
HETATM   18  C13 UNL     1      27.237   4.427  48.950  1.00  0.00     0.146 A 
HETATM   19  N3  UNL     1      28.465   4.737  48.583  1.00  0.00    -0.074 NA
HETATM   20  C14 UNL     1      28.892   5.932  48.187  1.00  0.00     0.726 A 
HETATM   21  N5  UNL     1      27.966   6.884  48.170  1.00  0.00    -0.074 NA
HETATM   22  C21 UNL     1      26.698   6.653  48.526  1.00  0.00     0.146 A 
BRANCH  20  23
HETATM   23  N4  UNL     1      30.215   6.244  47.796  1.00  0.00    -0.188 N 
HETATM   24  H17 UNL     1      30.411   7.240  47.511  1.00  0.00     0.184 HD
BRANCH  23  25
HETATM   25  C15 UNL     1      31.343   5.391  47.733  1.00  0.00     0.049 A 
HETATM   26  C16 UNL     1      32.562   5.757  48.304  1.00  0.00     0.033 A 
HETATM   27  C17 UNL     1      33.678   4.964  48.267  1.00  0.00     0.044 A 
HETATM   28  C18 UNL     1      33.653   3.744  47.651  1.00  0.00     0.116 A 
HETATM   29  F1  UNL     1      34.789   3.011  47.649  1.00  0.00    -0.206 F 
HETATM   30  C19 UNL     1      32.485   3.331  47.073  1.00  0.00     0.044 A 
HETATM   31  C20 UNL     1      31.392   4.158  47.134  1.00  0.00     0.033 A 
ENDBRANCH  23  25
ENDBRANCH  20  23
ENDBRANCH  16  17
ENDBRANCH  15  16
ENDBRANCH  12  15
BRANCH   1  32
HETATM   32  O1  UNL     1      22.313   3.294  49.023  1.00  0.00    -0.359 OA
HETATM   33  C1  UNL     1      22.162   2.530  47.853  1.00  0.00     0.209 C 
ENDBRANCH   1  32
BRANCH   8  34
HETATM   34  O2  UNL     1      20.833  -1.374  54.365  1.00  0.00    -0.391 OA
HETATM   35  H12 UNL     1      21.077  -1.650  55.277  1.00  0.00     0.210 HD
ENDBRANCH   8  34
TORSDOF 7
ENDMDL
MODEL 4
REMARK VINA RESULT:      -8.2      2.196      2.662
REMARK  7 active torsions:
REMARK  status: ('A' for Active; 'I' for Inactive)
REMARK    1  A    between atoms: O1_2  and  C2_3 
REMARK    2  A    between atoms: C9_10  and  O2_11 
REMARK    3  A    between atoms: S1_15  and  N2_16 
REMARK    4  A    between atoms: N2_16  and  C11_17 
REMARK    5  A    between atoms: C11_17  and  C12_18 
REMARK    6  A    between atoms: C14_21  and  N4_22 
REMARK    7  A    between atoms: N4_22  and  C15_23 
ROOT
HETATM    1  C2  UNL     1      29.990   8.967  48.838  1.00  0.00     0.056 C 
HETATM    2  C3  UNL     1      31.190   8.530  49.306  1.00  0.00     0.033 C 
HETATM    3  C4  UNL     1      32.557   7.972  49.524  1.00  0.00     0.008 C 
HETATM    4  C5  UNL     1      33.266   7.468  48.535  1.00  0.00    -0.050 C 
HETATM    5  C6  UNL     1      33.193   7.245  47.117  1.00  0.00     0.062 C 
HETATM    6  C7  UNL     1      32.471   5.793  47.454  1.00  0.00     0.092 C 
HETATM    7  C8  UNL     1      33.750   5.276  47.480  1.00  0.00     0.061 C 
HETATM    8  C9  UNL     1      34.405   6.470  48.351  1.00  0.00     0.149 C 
HETATM    9  N1  UNL     1      31.217   6.264  47.177  1.00  0.00    -0.346 N 
HETATM   10  C10 UNL     1      30.019   6.197  47.937  1.00  0.00     0.290 C 
HETATM   11  O3  UNL     1      30.385   5.440  48.836  1.00  0.00    -0.259 OA
HETATM   12  S1  UNL     1      28.656   7.246  47.224  1.00  0.00    -0.010 SA
HETATM   13  C22 UNL     1      29.643   8.884  47.370  1.00  0.00     0.161 C 
HETATM   14  H13 UNL     1      31.067   6.721  46.272  1.00  0.00     0.163 HD
ENDROOT
BRANCH  12  15
HETATM   15  N2  UNL     1      27.605   7.277  48.374  1.00  0.00    -0.255 NA
BRANCH  15  16
HETATM   16  C11 UNL     1      26.284   6.784  48.282  1.00  0.00     0.199 C 
BRANCH  16  17
HETATM   17  C12 UNL     1      26.118   5.575  49.140  1.00  0.00    -0.002 A 
HETATM   18  C13 UNL     1      25.136   5.546  50.083  1.00  0.00     0.146 A 
HETATM   19  N3  UNL     1      25.018   4.461  50.822  1.00  0.00    -0.074 NA
HETATM   20  C14 UNL     1      25.769   3.368  50.746  1.00  0.00     0.726 A 
HETATM   21  N5  UNL     1      26.725   3.404  49.822  1.00  0.00    -0.074 NA
HETATM   22  C21 UNL     1      26.912   4.465  49.031  1.00  0.00     0.146 A 
BRANCH  20  23
HETATM   23  N4  UNL     1      25.626   2.213  51.549  1.00  0.00    -0.188 N 
HETATM   24  H17 UNL     1      26.502   1.812  51.979  1.00  0.00     0.184 HD
BRANCH  23  25
HETATM   25  C15 UNL     1      24.446   1.500  51.870  1.00  0.00     0.049 A 
HETATM   26  C16 UNL     1      24.373   0.689  53.003  1.00  0.00     0.033 A 
HETATM   27  C17 UNL     1      23.254  -0.017  53.352  1.00  0.00     0.044 A 
HETATM   28  C18 UNL     1      22.122   0.037  52.587  1.00  0.00     0.116 A 
HETATM   29  F1  UNL     1      21.051  -0.685  52.986  1.00  0.00    -0.206 F 
HETATM   30  C19 UNL     1      22.133   0.816  51.463  1.00  0.00     0.044 A 
HETATM   31  C20 UNL     1      23.277   1.507  51.152  1.00  0.00     0.033 A 
ENDBRANCH  23  25
ENDBRANCH  20  23
ENDBRANCH  16  17
ENDBRANCH  15  16
ENDBRANCH  12  15
BRANCH   1  32
HETATM   32  O1  UNL     1      28.912   9.545  49.483  1.00  0.00    -0.359 OA
HETATM   33  C1  UNL     1      28.404  10.758  48.988  1.00  0.00     0.209 C 
ENDBRANCH   1  32
BRANCH   8  34
HETATM   34  O2  UNL     1      35.463   7.007  47.707  1.00  0.00    -0.391 OA
HETATM   35  H12 UNL     1      35.989   6.354  47.193  1.00  0.00     0.210 HD
ENDBRANCH   8  34
TORSDOF 7
ENDMDL
MODEL 5
REMARK VINA RESULT:      -8.1      2.107      3.009
REMARK  7 active torsions:
REMARK  status: ('A' for Active; 'I' for Inactive)
REMARK    1  A    between atoms: O1_2  and  C2_3 
REMARK    2  A    between atoms: C9_10  and  O2_11 
REMARK    3  A    between atoms: S1_15  and  N2_16 
REMARK    4  A    between atoms: N2_16  and  C11_17 
REMARK    5  A    between atoms: C11_17  and  C12_18 
REMARK    6  A    between atoms: C14_21  and  N4_22 
REMARK    7  A    between atoms: N4_22  and  C15_23 
ROOT
HETATM    1  C2  UNL     1      32.494   8.063  47.690  1.00  0.00     0.056 C 
HETATM    2  C3  UNL     1      33.403   7.160  48.147  1.00  0.00     0.033 C 
HETATM    3  C4  UNL     1      34.310   6.004  48.404  1.00  0.00     0.008 C 
HETATM    4  C5  UNL     1      34.328   4.947  47.616  1.00  0.00    -0.050 C 
HETATM    5  C6  UNL     1      33.712   4.445  46.418  1.00  0.00     0.062 C 
HETATM    6  C7  UNL     1      32.520   3.814  47.381  1.00  0.00     0.092 C 
HETATM    7  C8  UNL     1      33.316   2.689  47.458  1.00  0.00     0.061 C 
HETATM    8  C9  UNL     1      34.707   3.473  47.707  1.00  0.00     0.149 C 
HETATM    9  N1  UNL     1      31.644   4.823  47.091  1.00  0.00    -0.346 N 
HETATM   10  C10 UNL     1      30.878   5.654  47.952  1.00  0.00     0.290 C 
HETATM   11  O3  UNL     1      31.088   5.091  49.025  1.00  0.00    -0.259 OA
HETATM   12  S1  UNL     1      30.058   7.062  47.049  1.00  0.00    -0.010 SA
HETATM   13  C22 UNL     1      31.708   7.812  46.423  1.00  0.00     0.161 C 
HETATM   14  H13 UNL     1      31.460   5.029  46.103  1.00  0.00     0.163 HD
ENDROOT
BRANCH  12  15
HETATM   15  N2  UNL     1      29.581   7.985  48.210  1.00  0.00    -0.255 NA
BRANCH  15  16
HETATM   16  C11 UNL     1      28.290   8.548  48.324  1.00  0.00     0.199 C 
BRANCH  16  17
HETATM   17  C12 UNL     1      27.331   7.544  48.871  1.00  0.00    -0.002 A 
HETATM   18  C13 UNL     1      26.491   7.895  49.884  1.00  0.00     0.146 A 
HETATM   19  N3  UNL     1      25.657   6.983  50.342  1.00  0.00    -0.074 NA
HETATM   20  C14 UNL     1      25.544   5.730  49.914  1.00  0.00     0.726 A 
HETATM   21  N5  UNL     1      26.366   5.397  48.924  1.00  0.00    -0.074 NA
HETATM   22  C21 UNL     1      27.242   6.261  48.402  1.00  0.00     0.146 A 
BRANCH  20  23
HETATM   23  N4  UNL     1      24.641   4.767  50.419  1.00  0.00    -0.188 N 
HETATM   24  H17 UNL     1      23.616   5.016  50.414  1.00  0.00     0.184 HD
BRANCH  23  25
HETATM   25  C15 UNL     1      24.921   3.481  50.942  1.00  0.00     0.049 A 
HETATM   26  C16 UNL     1      26.223   2.981  50.979  1.00  0.00     0.033 A 
HETATM   27  C17 UNL     1      26.539   1.745  51.476  1.00  0.00     0.044 A 
HETATM   28  C18 UNL     1      25.570   0.918  51.974  1.00  0.00     0.116 A 
HETATM   29  F1  UNL     1      25.949  -0.289  52.449  1.00  0.00    -0.206 F 
HETATM   30  C19 UNL     1      24.275   1.355  51.964  1.00  0.00     0.044 A 
HETATM   31  C20 UNL     1      24.004   2.600  51.456  1.00  0.00     0.033 A 
ENDBRANCH  23  25
ENDBRANCH  20  23
ENDBRANCH  16  17
ENDBRANCH  15  16
ENDBRANCH  12  15
BRANCH   1  32
HETATM   32  O1  UNL     1      32.104   9.296  48.178  1.00  0.00    -0.359 OA
HETATM   33  C1  UNL     1      32.192  10.414  47.330  1.00  0.00     0.209 C 
ENDBRANCH   1  32
BRANCH   8  34
HETATM   34  O2  UNL     1      35.627   3.120  46.784  1.00  0.00    -0.391 OA
HETATM   35  H12 UNL     1      35.596   3.663  45.964  1.00  0.00     0.210 HD
ENDBRANCH   8  34
TORSDOF 7
ENDMDL
MODEL 6
REMARK VINA RESULT:      -8.0      5.316     10.070
REMARK  7 active torsions:
REMARK  status: ('A' for Active; 'I' for Inactive)
REMARK    1  A    between atoms: O1_2  and  C2_3 
REMARK    2  A    between atoms: C9_10  and  O2_11 
REMARK    3  A    between atoms: S1_15  and  N2_16 
REMARK    4  A    between atoms: N2_16  and  C11_17 
REMARK    5  A    between atoms: C11_17  and  C12_18 
REMARK    6  A    between atoms: C14_21  and  N4_22 
REMARK    7  A    between atoms: N4_22  and  C15_23 
ROOT
HETATM    1  C2  UNL     1      23.034   2.308  50.049  1.00  0.00     0.056 C 
HETATM    2  C3  UNL     1      23.394   1.887  51.291  1.00  0.00     0.033 C 
HETATM    3  C4  UNL     1      23.539   1.244  52.630  1.00  0.00     0.008 C 
HETATM    4  C5  UNL     1      22.681   0.341  53.063  1.00  0.00    -0.050 C 
HETATM    5  C6  UNL     1      21.497  -0.357  52.642  1.00  0.00     0.062 C 
HETATM    6  C7  UNL     1      20.619   0.902  53.264  1.00  0.00     0.092 C 
HETATM    7  C8  UNL     1      20.630   0.194  54.449  1.00  0.00     0.061 C 
HETATM    8  C9  UNL     1      22.194  -0.210  54.398  1.00  0.00     0.149 C 
HETATM    9  N1  UNL     1      20.405   1.462  52.035  1.00  0.00    -0.346 N 
HETATM   10  C10 UNL     1      20.605   2.793  51.582  1.00  0.00     0.290 C 
HETATM   11  O3  UNL     1      20.856   3.343  52.654  1.00  0.00    -0.259 OA
HETATM   12  S1  UNL     1      20.421   2.959  49.736  1.00  0.00    -0.010 SA
HETATM   13  C22 UNL     1      21.834   1.724  49.340  1.00  0.00     0.161 C 
HETATM   14  H13 UNL     1      20.010   0.867  51.300  1.00  0.00     0.163 HD
ENDROOT
BRANCH  12  15
HETATM   15  N2  UNL     1      21.002   4.378  49.457  1.00  0.00    -0.255 NA
BRANCH  15  16
HETATM   16  C11 UNL     1      20.753   5.527  50.241  1.00  0.00     0.199 C 
BRANCH  16  17
HETATM   17  C12 UNL     1      21.975   6.380  50.317  1.00  0.00    -0.002 A 
HETATM   18  C13 UNL     1      22.966   6.065  51.195  1.00  0.00     0.146 A 
HETATM   19  N3  UNL     1      24.031   6.841  51.234  1.00  0.00    -0.074 NA
HETATM   20  C14 UNL     1      24.247   7.922  50.492  1.00  0.00     0.726 A 
HETATM   21  N5  UNL     1      23.276   8.221  49.636  1.00  0.00    -0.074 NA
HETATM   22  C21 UNL     1      22.163   7.487  49.534  1.00  0.00     0.146 A 
BRANCH  20  23
HETATM   23  N4  UNL     1      25.398   8.741  50.549  1.00  0.00    -0.188 N 
HETATM   24  H17 UNL     1      25.343   9.611  51.143  1.00  0.00     0.184 HD
BRANCH  23  25
HETATM   25  C15 UNL     1      26.647   8.558  49.908  1.00  0.00     0.049 A 
HETATM   26  C16 UNL     1      26.861   7.497  49.027  1.00  0.00     0.033 A 
HETATM   27  C17 UNL     1      28.051   7.281  48.385  1.00  0.00     0.044 A 
HETATM   28  C18 UNL     1      29.116   8.116  48.580  1.00  0.00     0.116 A 
HETATM   29  F1  UNL     1      30.263   7.847  47.917  1.00  0.00    -0.206 F 
HETATM   30  C19 UNL     1      28.966   9.173  49.434  1.00  0.00     0.044 A 
HETATM   31  C20 UNL     1      27.756   9.351  50.055  1.00  0.00     0.033 A 
ENDBRANCH  23  25
ENDBRANCH  20  23
ENDBRANCH  16  17
ENDBRANCH  15  16
ENDBRANCH  12  15
BRANCH   1  32
HETATM   32  O1  UNL     1      23.598   3.245  49.202  1.00  0.00    -0.359 OA
HETATM   33  C1  UNL     1      24.935   3.624  49.413  1.00  0.00     0.209 C 
ENDBRANCH   1  32
BRANCH   8  34
HETATM   34  O2  UNL     1      22.346  -1.548  54.490  1.00  0.00    -0.391 OA
HETATM   35  H12 UNL     1      21.680  -2.060  53.977  1.00  0.00     0.210 HD
ENDBRANCH   8  34
TORSDOF 7
ENDMDL
MODEL 7
REMARK VINA RESULT:      -7.9      4.310      8.918
REMARK  7 active torsions:
REMARK  status: ('A' for Active; 'I' for Inactive)
REMARK    1  A    between atoms: O1_2  and  C2_3 
REMARK    2  A    between atoms: C9_10  and  O2_11 
REMARK    3  A    between atoms: S1_15  and  N2_16 
REMARK    4  A    between atoms: N2_16  and  C11_17 
REMARK    5  A    between atoms: C11_17  and  C12_18 
REMARK    6  A    between atoms: C14_21  and  N4_22 
REMARK    7  A    between atoms: N4_22  and  C15_23 
ROOT
HETATM    1  C2  UNL     1      23.728   1.142  52.178  1.00  0.00     0.056 C 
HETATM    2  C3  UNL     1      24.757   0.264  52.326  1.00  0.00     0.033 C 
HETATM    3  C4  UNL     1      25.996  -0.486  52.683  1.00  0.00     0.008 C 
HETATM    4  C5  UNL     1      26.883   0.001  53.527  1.00  0.00    -0.050 C 
HETATM    5  C6  UNL     1      27.110   1.152  54.359  1.00  0.00     0.062 C 
HETATM    6  C7  UNL     1      27.835   1.865  53.050  1.00  0.00     0.092 C 
HETATM    7  C8  UNL     1      29.002   1.289  53.509  1.00  0.00     0.061 C 
HETATM    8  C9  UNL     1      28.368  -0.163  53.830  1.00  0.00     0.149 C 
HETATM    9  N1  UNL     1      26.736   2.624  52.757  1.00  0.00    -0.346 N 
HETATM   10  C10 UNL     1      26.037   2.798  51.532  1.00  0.00     0.290 C 
HETATM   11  O3  UNL     1      26.805   2.213  50.769  1.00  0.00    -0.259 OA
HETATM   12  S1  UNL     1      24.435   3.723  51.745  1.00  0.00    -0.010 SA
HETATM   13  C22 UNL     1      23.685   2.438  52.955  1.00  0.00     0.161 C 
HETATM   14  H13 UNL     1      26.336   3.198  53.506  1.00  0.00     0.163 HD
ENDROOT
BRANCH  12  15
HETATM   15  N2  UNL     1      23.719   3.493  50.380  1.00  0.00    -0.255 NA
BRANCH  15  16
HETATM   16  C11 UNL     1      24.308   3.689  49.110  1.00  0.00     0.199 C 
BRANCH  16  17
HETATM   17  C12 UNL     1      24.882   5.062  49.008  1.00  0.00    -0.002 A 
HETATM   18  C13 UNL     1      24.053   6.142  48.998  1.00  0.00     0.146 A 
HETATM   19  N3  UNL     1      24.596   7.340  48.907  1.00  0.00    -0.074 NA
HETATM   20  C14 UNL     1      25.893   7.614  48.824  1.00  0.00     0.726 A 
HETATM   21  N5  UNL     1      26.695   6.555  48.836  1.00  0.00    -0.074 NA
HETATM   22  C21 UNL     1      26.226   5.306  48.925  1.00  0.00     0.146 A 
BRANCH  20  23
HETATM   23  N4  UNL     1      26.456   8.908  48.728  1.00  0.00    -0.188 N 
HETATM   24  H17 UNL     1      25.800   9.728  48.827  1.00  0.00     0.184 HD
BRANCH  23  25
HETATM   25  C15 UNL     1      27.807   9.271  48.514  1.00  0.00     0.049 A 
HETATM   26  C16 UNL     1      28.710   9.366  49.575  1.00  0.00     0.033 A 
HETATM   27  C17 UNL     1      30.025   9.713  49.414  1.00  0.00     0.044 A 
HETATM   28  C18 UNL     1      30.531   9.992  48.175  1.00  0.00     0.116 A 
HETATM   29  F1  UNL     1      31.838  10.328  48.086  1.00  0.00    -0.206 F 
HETATM   30  C19 UNL     1      29.694   9.916  47.097  1.00  0.00     0.044 A 
HETATM   31  C20 UNL     1      28.384   9.564  47.305  1.00  0.00     0.033 A 
ENDBRANCH  23  25
ENDBRANCH  20  23
ENDBRANCH  16  17
ENDBRANCH  15  16
ENDBRANCH  12  15
BRANCH   1  32
HETATM   32  O1  UNL     1      22.587   1.092  51.398  1.00  0.00    -0.359 OA
HETATM   33  C1  UNL     1      21.572   0.185  51.750  1.00  0.00     0.209 C 
ENDBRANCH   1  32
BRANCH   8  34
HETATM   34  O2  UNL     1      28.598  -0.513  55.113  1.00  0.00    -0.391 OA
HETATM   35  H12 UNL     1      29.172   0.121  55.601  1.00  0.00     0.210 HD
ENDBRANCH   8  34
TORSDOF 7
ENDMDL
MODEL 8
REMARK VINA RESULT:      -7.8      5.152     10.293
REMARK  7 active torsions:
REMARK  status: ('A' for Active; 'I' for Inactive)
REMARK    1  A    between atoms: O1_2  and  C2_3 
REMARK    2  A    between atoms: C9_10  and  O2_11 
REMARK    3  A    between atoms: S1_15  and  N2_16 
REMARK    4  A    between atoms: N2_16  and  C11_17 
REMARK    5  A    between atoms: C11_17  and  C12_18 
REMARK    6  A    between atoms: C14_21  and  N4_22 
REMARK    7  A    between atoms: N4_22  and  C15_23 
ROOT
HETATM    1  C2  UNL     1      24.180   2.886  51.051  1.00  0.00     0.056 C 
HETATM    2  C3  UNL     1      23.965   2.167  52.185  1.00  0.00     0.033 C 
HETATM    3  C4  UNL     1      23.513   1.238  53.261  1.00  0.00     0.008 C 
HETATM    4  C5  UNL     1      22.542   0.369  53.065  1.00  0.00    -0.050 C 
HETATM    5  C6  UNL     1      21.645  -0.080  52.035  1.00  0.00     0.062 C 
HETATM    6  C7  UNL     1      20.600   1.109  52.525  1.00  0.00     0.092 C 
HETATM    7  C8  UNL     1      20.092   0.165  53.395  1.00  0.00     0.061 C 
HETATM    8  C9  UNL     1      21.521  -0.397  53.899  1.00  0.00     0.149 C 
HETATM    9  N1  UNL     1      20.942   1.942  51.496  1.00  0.00    -0.346 N 
HETATM   10  C10 UNL     1      21.334   3.307  51.508  1.00  0.00     0.290 C 
HETATM   11  O3  UNL     1      21.107   3.579  52.686  1.00  0.00    -0.259 OA
HETATM   12  S1  UNL     1      21.963   3.888  49.854  1.00  0.00    -0.010 SA
HETATM   13  C22 UNL     1      23.394   2.613  49.789  1.00  0.00     0.161 C 
HETATM   14  H13 UNL     1      20.894   1.569  50.542  1.00  0.00     0.163 HD
ENDROOT
BRANCH  12  15
HETATM   15  N2  UNL     1      22.625   5.256  50.197  1.00  0.00    -0.255 NA
BRANCH  15  16
HETATM   16  C11 UNL     1      22.813   6.320  49.286  1.00  0.00     0.199 C 
BRANCH  16  17
HETATM   17  C12 UNL     1      24.239   6.758  49.284  1.00  0.00    -0.002 A 
HETATM   18  C13 UNL     1      24.776   7.319  50.402  1.00  0.00     0.146 A 
HETATM   19  N3  UNL     1      26.039   7.694  50.364  1.00  0.00    -0.074 NA
HETATM   20  C14 UNL     1      26.865   7.581  49.330  1.00  0.00     0.726 A 
HETATM   21  N5  UNL     1      26.334   7.031  48.243  1.00  0.00    -0.074 NA
HETATM   22  C21 UNL     1      25.062   6.624  48.198  1.00  0.00     0.146 A 
BRANCH  20  23
HETATM   23  N4  UNL     1      28.218   7.989  49.310  1.00  0.00    -0.188 N 
HETATM   24  H17 UNL     1      28.951   7.235  49.398  1.00  0.00     0.184 HD
BRANCH  23  25
HETATM   25  C15 UNL     1      28.746   9.296  49.184  1.00  0.00     0.049 A 
HETATM   26  C16 UNL     1      30.116   9.539  49.296  1.00  0.00     0.033 A 
HETATM   27  C17 UNL     1      30.670  10.786  49.181  1.00  0.00     0.044 A 
HETATM   28  C18 UNL     1      29.888  11.883  48.946  1.00  0.00     0.116 A 
HETATM   29  F1  UNL     1      30.498  13.086  48.844  1.00  0.00    -0.206 F 
HETATM   30  C19 UNL     1      28.538  11.707  48.828  1.00  0.00     0.044 A 
HETATM   31  C20 UNL     1      28.026  10.440  48.950  1.00  0.00     0.033 A 
ENDBRANCH  23  25
ENDBRANCH  20  23
ENDBRANCH  16  17
ENDBRANCH  15  16
ENDBRANCH  12  15
BRANCH   1  32
HETATM   32  O1  UNL     1      25.064   3.912  50.770  1.00  0.00    -0.359 OA
HETATM   33  C1  UNL     1      26.217   3.619  50.021  1.00  0.00     0.209 C 
ENDBRANCH   1  32
BRANCH   8  34
HETATM   34  O2  UNL     1      21.602  -1.732  53.715  1.00  0.00    -0.391 OA
HETATM   35  H12 UNL     1      22.200  -1.996  52.979  1.00  0.00     0.210 HD
ENDBRANCH   8  34
TORSDOF 7
ENDMDL
MODEL 9
REMARK VINA RESULT:      -7.7      4.352      9.257
REMARK  7 active torsions:
REMARK  status: ('A' for Active; 'I' for Inactive)
REMARK    1  A    between atoms: O1_2  and  C2_3 
REMARK    2  A    between atoms: C9_10  and  O2_11 
REMARK    3  A    between atoms: S1_15  and  N2_16 
REMARK    4  A    between atoms: N2_16  and  C11_17 
REMARK    5  A    between atoms: C11_17  and  C12_18 
REMARK    6  A    between atoms: C14_21  and  N4_22 
REMARK    7  A    between atoms: N4_22  and  C15_23 
ROOT
HETATM    1  C2  UNL     1      22.496   4.117  51.444  1.00  0.00     0.056 C 
HETATM    2  C3  UNL     1      22.767   2.785  51.476  1.00  0.00     0.033 C 
HETATM    3  C4  UNL     1      23.301   1.408  51.688  1.00  0.00     0.008 C 
HETATM    4  C5  UNL     1      24.379   1.186  52.413  1.00  0.00    -0.050 C 
HETATM    5  C6  UNL     1      25.354   1.893  53.199  1.00  0.00     0.062 C 
HETATM    6  C7  UNL     1      26.227   2.093  51.805  1.00  0.00     0.092 C 
HETATM    7  C8  UNL     1      26.825   0.891  52.126  1.00  0.00     0.061 C 
HETATM    8  C9  UNL     1      25.463   0.121  52.535  1.00  0.00     0.149 C 
HETATM    9  N1  UNL     1      25.813   3.386  51.639  1.00  0.00    -0.346 N 
HETATM   10  C10 UNL     1      25.253   4.035  50.507  1.00  0.00     0.290 C 
HETATM   11  O3  UNL     1      25.410   3.154  49.662  1.00  0.00    -0.259 OA
HETATM   12  S1  UNL     1      24.603   5.735  50.902  1.00  0.00    -0.010 SA
HETATM   13  C22 UNL     1      23.345   5.108  52.207  1.00  0.00     0.161 C 
HETATM   14  H13 UNL     1      25.934   4.032  52.426  1.00  0.00     0.163 HD
ENDROOT
BRANCH  12  15
HETATM   15  N2  UNL     1      23.765   6.088  49.636  1.00  0.00    -0.255 NA
BRANCH  15  16
HETATM   16  C11 UNL     1      24.068   7.123  48.723  1.00  0.00     0.199 C 
BRANCH  16  17
HETATM   17  C12 UNL     1      25.358   7.778  49.088  1.00  0.00    -0.002 A 
HETATM   18  C13 UNL     1      26.529   7.276  48.610  1.00  0.00     0.146 A 
HETATM   19  N3  UNL     1      27.649   7.882  48.951  1.00  0.00    -0.074 NA
HETATM   20  C14 UNL     1      27.762   8.953  49.729  1.00  0.00     0.726 A 
HETATM   21  N5  UNL     1      26.613   9.437  50.191  1.00  0.00    -0.074 NA
HETATM   22  C21 UNL     1      25.434   8.883  49.892  1.00  0.00     0.146 A 
BRANCH  20  23
HETATM   23  N4  UNL     1      28.974   9.588  50.084  1.00  0.00    -0.188 N 
HETATM   24  H17 UNL     1      29.150   9.754  51.111  1.00  0.00     0.184 HD
BRANCH  23  25
HETATM   25  C15 UNL     1      30.013  10.046  49.238  1.00  0.00     0.049 A 
HETATM   26  C16 UNL     1      30.223  11.408  49.019  1.00  0.00     0.033 A 
HETATM   27  C17 UNL     1      31.215  11.894  48.210  1.00  0.00     0.044 A 
HETATM   28  C18 UNL     1      32.071  11.048  47.561  1.00  0.00     0.116 A 
HETATM   29  F1  UNL     1      33.028  11.593  46.777  1.00  0.00    -0.206 F 
HETATM   30  C19 UNL     1      31.913   9.702  47.737  1.00  0.00     0.044 A 
HETATM   31  C20 UNL     1      30.906   9.259  48.556  1.00  0.00     0.033 A 
ENDBRANCH  23  25
ENDBRANCH  20  23
ENDBRANCH  16  17
ENDBRANCH  15  16
ENDBRANCH  12  15
BRANCH   1  32
HETATM   32  O1  UNL     1      21.498   4.834  50.809  1.00  0.00    -0.359 OA
HETATM   33  C1  UNL     1      20.363   4.144  50.351  1.00  0.00     0.209 C 
ENDBRANCH   1  32
BRANCH   8  34
HETATM   34  O2  UNL     1      25.555  -0.381  53.785  1.00  0.00    -0.391 OA
HETATM   35  H12 UNL     1      24.797  -0.143  54.366  1.00  0.00     0.210 HD
ENDBRANCH   8  34
TORSDOF 7
ENDMDL
