MODEL 1
REMARK VINA RESULT:      -8.1      0.000      0.000
REMARK  4 active torsions:
REMARK  status: ('A' for Active; 'I' for Inactive)
REMARK    1  A    between atoms: C3_3  and  C4_4 
REMARK    2  A    between atoms: C3_3  and  N1_6 
REMARK    3  A    between atoms: C7_11  and  N4_12 
REMARK    4  A    between atoms: C10_15  and  O1_16 
ROOT
HETATM    1  N1  UNL     1      20.511   0.911  52.670  1.00  0.00    -0.276 N 
HETATM    2  C5  UNL     1      20.412   2.431  52.770  1.00  0.00     0.274 C 
HETATM    3  N2  UNL     1      21.362   2.823  51.665  1.00  0.00    -0.350 N 
HETATM    4  C6  UNL     1      22.566   3.304  52.320  1.00  0.00     0.203 C 
HETATM    5  N3  UNL     1      23.867   3.225  52.056  1.00  0.00    -0.255 NA
HETATM    6  C7  UNL     1      24.674   2.018  51.698  1.00  0.00     0.236 C 
HETATM    7  C13 UNL     1      23.758   0.775  51.631  1.00  0.00     0.050 C 
HETATM    8  C14 UNL     1      22.516   0.933  51.021  1.00  0.00     0.057 C 
HETATM    9  N6  UNL     1      21.681   0.240  52.053  1.00  0.00    -0.298 N 
HETATM   10  C15 UNL     1      22.084   1.626  49.784  1.00  0.00     0.195 C 
HETATM   11  O2  UNL     1      21.393   1.120  48.799  1.00  0.00    -0.378 OA
HETATM   12  C16 UNL     1      20.982   2.310  48.107  1.00  0.00     0.170 C 
HETATM   13  C17 UNL     1      20.982   3.433  49.189  1.00  0.00     0.054 C 
HETATM   14  C18 UNL     1      20.956   2.583  50.331  1.00  0.00     0.123 C 
HETATM   15  H21 UNL     1      22.165  -0.669  52.159  1.00  0.00     0.187 HD
ENDROOT
BRANCH   6  16
HETATM   16  N4  UNL     1      25.749   1.843  52.604  1.00  0.00    -0.343 N 
HETATM   17  C8  UNL     1      25.417   1.478  53.997  1.00  0.00     0.129 C 
HETATM   18  C9  UNL     1      26.379   0.492  54.552  1.00  0.00     0.052 C 
HETATM   19  C10 UNL     1      27.823   0.797  54.345  1.00  0.00     0.126 C 
HETATM   20  C11 UNL     1      28.057   0.972  52.854  1.00  0.00     0.109 C 
HETATM   21  C12 UNL     1      27.117   1.999  52.299  1.00  0.00     0.098 C 
HETATM   22  N5  UNL     1      27.476   3.007  51.586  1.00  0.00    -0.288 NA
HETATM   23  H19 UNL     1      26.904   3.743  51.190  1.00  0.00     0.188 HD
BRANCH  19  24
HETATM   24  O1  UNL     1      28.565  -0.295  54.768  1.00  0.00    -0.395 OA
HETATM   25  H16 UNL     1      28.556  -1.029  54.093  1.00  0.00     0.210 HD
ENDBRANCH  19  24
ENDBRANCH   6  16
BRANCH   1  26
HETATM   26  C3  UNL     1      19.731  -0.196  53.060  1.00  0.00     0.054 C 
HETATM   27  C2  UNL     1      18.524  -0.389  52.580  1.00  0.00    -0.002 C 
HETATM   28  C1  UNL     1      17.757  -1.589  53.044  1.00  0.00     0.038 C 
BRANCH  26  29
HETATM   29  C4  UNL     1      20.323  -1.158  54.049  1.00  0.00     0.280 C 
HETATM   30  F1  UNL     1      21.026  -0.460  54.996  1.00  0.00    -0.249 F 
ENDBRANCH  26  29
ENDBRANCH   1  26
TORSDOF 4
ENDMDL
MODEL 2
REMARK VINA RESULT:      -7.8      3.280      6.068
REMARK  4 active torsions:
REMARK  status: ('A' for Active; 'I' for Inactive)
REMARK    1  A    between atoms: C3_3  and  C4_4 
REMARK    2  A    between atoms: C3_3  and  N1_6 
REMARK    3  A    between atoms: C7_11  and  N4_12 
REMARK    4  A    between atoms: C10_15  and  O1_16 
ROOT
HETATM    1  N1  UNL     1      24.284   3.985  49.415  1.00  0.00    -0.276 N 
HETATM    2  C5  UNL     1      23.205   3.510  48.444  1.00  0.00     0.274 C 
HETATM    3  N2  UNL     1      21.981   3.718  49.300  1.00  0.00    -0.350 N 
HETATM    4  C6  UNL     1      21.554   2.394  49.722  1.00  0.00     0.203 C 
HETATM    5  N3  UNL     1      21.027   1.895  50.836  1.00  0.00    -0.255 NA
HETATM    6  C7  UNL     1      21.483   2.080  52.248  1.00  0.00     0.236 C 
HETATM    7  C13 UNL     1      22.714   3.013  52.284  1.00  0.00     0.050 C 
HETATM    8  C14 UNL     1      22.688   4.133  51.456  1.00  0.00     0.057 C 
HETATM    9  N6  UNL     1      24.064   4.007  50.881  1.00  0.00    -0.298 N 
HETATM   10  C15 UNL     1      21.633   5.125  51.141  1.00  0.00     0.195 C 
HETATM   11  O2  UNL     1      21.723   6.425  51.229  1.00  0.00    -0.378 OA
HETATM   12  C16 UNL     1      20.576   6.836  50.470  1.00  0.00     0.170 C 
HETATM   13  C17 UNL     1      20.301   5.665  49.477  1.00  0.00     0.054 C 
HETATM   14  C18 UNL     1      21.581   5.048  49.567  1.00  0.00     0.123 C 
HETATM   15  H21 UNL     1      24.654   3.925  51.729  1.00  0.00     0.187 HD
ENDROOT
BRANCH   6  16
HETATM   16  N4  UNL     1      21.741   0.829  52.862  1.00  0.00    -0.343 N 
HETATM   17  C8  UNL     1      23.108   0.280  52.749  1.00  0.00     0.129 C 
HETATM   18  C9  UNL     1      23.543  -0.380  54.006  1.00  0.00     0.052 C 
HETATM   19  C10 UNL     1      22.569  -1.328  54.619  1.00  0.00     0.126 C 
HETATM   20  C11 UNL     1      21.265  -0.582  54.845  1.00  0.00     0.109 C 
HETATM   21  C12 UNL     1      20.801   0.048  53.566  1.00  0.00     0.098 C 
HETATM   22  N5  UNL     1      19.623  -0.088  53.072  1.00  0.00    -0.288 NA
HETATM   23  H19 UNL     1      19.244   0.294  52.214  1.00  0.00     0.188 HD
BRANCH  19  24
HETATM   24  O1  UNL     1      23.058  -1.716  55.857  1.00  0.00    -0.395 OA
HETATM   25  H16 UNL     1      23.064  -2.709  55.955  1.00  0.00     0.210 HD
ENDBRANCH  19  24
ENDBRANCH   6  16
BRANCH   1  26
HETATM   26  C3  UNL     1      25.612   4.448  49.327  1.00  0.00     0.054 C 
HETATM   27  C2  UNL     1      25.906   5.579  48.729  1.00  0.00    -0.002 C 
HETATM   28  C1  UNL     1      27.342   6.004  48.677  1.00  0.00     0.038 C 
BRANCH  26  29
HETATM   29  C4  UNL     1      26.693   3.604  49.940  1.00  0.00     0.280 C 
HETATM   30  F1  UNL     1      26.776   2.414  49.266  1.00  0.00    -0.249 F 
ENDBRANCH  26  29
ENDBRANCH   1  26
TORSDOF 4
ENDMDL
MODEL 3
REMARK VINA RESULT:      -7.7      2.766      3.635
REMARK  4 active torsions:
REMARK  status: ('A' for Active; 'I' for Inactive)
REMARK    1  A    between atoms: C3_3  and  C4_4 
REMARK    2  A    between atoms: C3_3  and  N1_6 
REMARK    3  A    between atoms: C7_11  and  N4_12 
REMARK    4  A    between atoms: C10_15  and  O1_16 
ROOT
HETATM    1  N1  UNL     1      22.142   2.721  50.997  1.00  0.00    -0.276 N 
HETATM    2  C5  UNL     1      22.141   3.507  52.306  1.00  0.00     0.274 C 
HETATM    3  N2  UNL     1      23.560   4.019  52.300  1.00  0.00    -0.350 N 
HETATM    4  C6  UNL     1      24.277   3.234  53.290  1.00  0.00     0.203 C 
HETATM    5  N3  UNL     1      25.509   2.742  53.377  1.00  0.00    -0.255 NA
HETATM    6  C7  UNL     1      26.274   1.957  52.359  1.00  0.00     0.236 C 
HETATM    7  C13 UNL     1      25.424   1.789  51.079  1.00  0.00     0.050 C 
HETATM    8  C14 UNL     1      24.707   2.900  50.641  1.00  0.00     0.057 C 
HETATM    9  N6  UNL     1      23.397   2.223  50.383  1.00  0.00    -0.298 N 
HETATM   10  C15 UNL     1      25.054   4.337  50.523  1.00  0.00     0.195 C 
HETATM   11  O2  UNL     1      24.943   5.089  49.461  1.00  0.00    -0.378 OA
HETATM   12  C16 UNL     1      25.064   6.400  50.033  1.00  0.00     0.170 C 
HETATM   13  C17 UNL     1      24.594   6.245  51.512  1.00  0.00     0.054 C 
HETATM   14  C18 UNL     1      23.897   5.014  51.353  1.00  0.00     0.123 C 
HETATM   15  H21 UNL     1      23.671   1.431  49.775  1.00  0.00     0.187 HD
ENDROOT
BRANCH   6  16
HETATM   16  N4  UNL     1      26.690   0.712  52.892  1.00  0.00    -0.343 N 
HETATM   17  C8  UNL     1      25.803  -0.451  52.688  1.00  0.00     0.129 C 
HETATM   18  C9  UNL     1      26.573  -1.689  52.404  1.00  0.00     0.052 C 
HETATM   19  C10 UNL     1      27.723  -1.968  53.311  1.00  0.00     0.126 C 
HETATM   20  C11 UNL     1      28.645  -0.762  53.285  1.00  0.00     0.109 C 
HETATM   21  C12 UNL     1      27.879   0.483  53.616  1.00  0.00     0.098 C 
HETATM   22  N5  UNL     1      28.224   1.335  54.515  1.00  0.00    -0.288 NA
HETATM   23  H19 UNL     1      27.754   2.185  54.800  1.00  0.00     0.188 HD
BRANCH  19  24
HETATM   24  O1  UNL     1      28.424  -3.052  52.804  1.00  0.00    -0.395 OA
HETATM   25  H16 UNL     1      29.188  -2.762  52.233  1.00  0.00     0.210 HD
ENDBRANCH  19  24
ENDBRANCH   6  16
BRANCH   1  26
HETATM   26  C3  UNL     1      21.180   2.242  50.086  1.00  0.00     0.054 C 
HETATM   27  C2  UNL     1      20.159   2.980  49.716  1.00  0.00    -0.002 C 
HETATM   28  C1  UNL     1      19.177   2.399  48.745  1.00  0.00     0.038 C 
BRANCH  26  29
HETATM   29  C4  UNL     1      21.354   0.852  49.546  1.00  0.00     0.280 C 
HETATM   30  F1  UNL     1      21.231  -0.051  50.570  1.00  0.00    -0.249 F 
ENDBRANCH  26  29
ENDBRANCH   1  26
TORSDOF 4
ENDMDL
MODEL 4
REMARK VINA RESULT:      -7.7      1.857      2.134
REMARK  4 active torsions:
REMARK  status: ('A' for Active; 'I' for Inactive)
REMARK    1  A    between atoms: C3_3  and  C4_4 
REMARK    2  A    between atoms: C3_3  and  N1_6 
REMARK    3  A    between atoms: C7_11  and  N4_12 
REMARK    4  A    between atoms: C10_15  and  O1_16 
ROOT
HETATM    1  N1  UNL     1      19.086   1.163  51.721  1.00  0.00    -0.276 N 
HETATM    2  C5  UNL     1      19.143   2.669  51.968  1.00  0.00     0.274 C 
HETATM    3  N2  UNL     1      20.356   3.018  51.143  1.00  0.00    -0.350 N 
HETATM    4  C6  UNL     1      21.429   3.273  52.090  1.00  0.00     0.203 C 
HETATM    5  N3  UNL     1      22.737   3.038  52.103  1.00  0.00    -0.255 NA
HETATM    6  C7  UNL     1      23.460   1.767  51.791  1.00  0.00     0.236 C 
HETATM    7  C13 UNL     1      22.446   0.671  51.391  1.00  0.00     0.050 C 
HETATM    8  C14 UNL     1      21.401   1.049  50.551  1.00  0.00     0.057 C 
HETATM    9  N6  UNL     1      20.280   0.393  51.296  1.00  0.00    -0.298 N 
HETATM   10  C15 UNL     1      21.342   1.897  49.337  1.00  0.00     0.195 C 
HETATM   11  O2  UNL     1      20.838   1.576  48.176  1.00  0.00    -0.378 OA
HETATM   12  C16 UNL     1      20.734   2.864  47.551  1.00  0.00     0.170 C 
HETATM   13  C17 UNL     1      20.619   3.882  48.728  1.00  0.00     0.054 C 
HETATM   14  C18 UNL     1      20.238   2.950  49.735  1.00  0.00     0.123 C 
HETATM   15  H21 UNL     1      20.620  -0.580  51.400  1.00  0.00     0.187 HD
ENDROOT
BRANCH   6  16
HETATM   16  N4  UNL     1      24.274   1.370  52.881  1.00  0.00    -0.343 N 
HETATM   17  C8  UNL     1      24.040   0.031  53.458  1.00  0.00     0.129 C 
HETATM   18  C9  UNL     1      25.311  -0.638  53.834  1.00  0.00     0.052 C 
HETATM   19  C10 UNL     1      26.279   0.186  54.613  1.00  0.00     0.126 C 
HETATM   20  C11 UNL     1      26.568   1.448  53.819  1.00  0.00     0.109 C 
HETATM   21  C12 UNL     1      25.288   2.149  53.477  1.00  0.00     0.098 C 
HETATM   22  N5  UNL     1      25.054   3.392  53.703  1.00  0.00    -0.288 NA
HETATM   23  H19 UNL     1      24.215   3.928  53.513  1.00  0.00     0.188 HD
BRANCH  19  24
HETATM   24  O1  UNL     1      27.464  -0.526  54.728  1.00  0.00    -0.395 OA
HETATM   25  H16 UNL     1      27.451  -1.136  55.517  1.00  0.00     0.210 HD
ENDBRANCH  19  24
ENDBRANCH   6  16
BRANCH   1  26
HETATM   26  C3  UNL     1      18.116   0.145  51.808  1.00  0.00     0.054 C 
HETATM   27  C2  UNL     1      18.183  -0.789  52.729  1.00  0.00    -0.002 C 
HETATM   28  C1  UNL     1      17.114  -1.839  52.757  1.00  0.00     0.038 C 
BRANCH  26  29
HETATM   29  C4  UNL     1      16.994   0.155  50.810  1.00  0.00     0.280 C 
HETATM   30  F1  UNL     1      17.392  -0.497  49.673  1.00  0.00    -0.249 F 
ENDBRANCH  26  29
ENDBRANCH   1  26
TORSDOF 4
ENDMDL
MODEL 5
REMARK VINA RESULT:      -7.6      4.277      5.750
REMARK  4 active torsions:
REMARK  status: ('A' for Active; 'I' for Inactive)
REMARK    1  A    between atoms: C3_3  and  C4_4 
REMARK    2  A    between atoms: C3_3  and  N1_6 
REMARK    3  A    between atoms: C7_11  and  N4_12 
REMARK    4  A    between atoms: C10_15  and  O1_16 
ROOT
HETATM    1  N1  UNL     1      24.717   2.342  52.010  1.00  0.00    -0.276 N 
HETATM    2  C5  UNL     1      23.860   3.445  52.627  1.00  0.00     0.274 C 
HETATM    3  N2  UNL     1      23.370   4.122  51.371  1.00  0.00    -0.350 N 
HETATM    4  C6  UNL     1      24.110   5.369  51.271  1.00  0.00     0.203 C 
HETATM    5  N3  UNL     1      24.616   6.076  50.264  1.00  0.00    -0.255 NA
HETATM    6  C7  UNL     1      25.467   5.604  49.128  1.00  0.00     0.236 C 
HETATM    7  C13 UNL     1      25.693   4.079  49.240  1.00  0.00     0.050 C 
HETATM    8  C14 UNL     1      24.597   3.299  49.600  1.00  0.00     0.057 C 
HETATM    9  N6  UNL     1      25.267   2.453  50.637  1.00  0.00    -0.298 N 
HETATM   10  C15 UNL     1      23.175   3.310  49.182  1.00  0.00     0.195 C 
HETATM   11  O2  UNL     1      22.481   2.303  48.723  1.00  0.00    -0.378 OA
HETATM   12  C16 UNL     1      21.143   2.806  48.847  1.00  0.00     0.170 C 
HETATM   13  C17 UNL     1      21.207   3.862  49.993  1.00  0.00     0.054 C 
HETATM   14  C18 UNL     1      22.434   3.428  50.570  1.00  0.00     0.123 C 
HETATM   15  H21 UNL     1      26.096   2.093  50.131  1.00  0.00     0.187 HD
ENDROOT
BRANCH   6  16
HETATM   16  N4  UNL     1      26.687   6.324  49.081  1.00  0.00    -0.343 N 
HETATM   17  C8  UNL     1      27.873   5.626  48.542  1.00  0.00     0.129 C 
HETATM   18  C9  UNL     1      28.711   6.527  47.711  1.00  0.00     0.052 C 
HETATM   19  C10 UNL     1      29.021   7.862  48.299  1.00  0.00     0.126 C 
HETATM   20  C11 UNL     1      27.706   8.541  48.641  1.00  0.00     0.109 C 
HETATM   21  C12 UNL     1      26.877   7.651  49.517  1.00  0.00     0.098 C 
HETATM   22  N5  UNL     1      26.347   8.013  50.632  1.00  0.00    -0.288 NA
HETATM   23  H19 UNL     1      25.790   7.469  51.279  1.00  0.00     0.188 HD
BRANCH  19  24
HETATM   24  O1  UNL     1      29.657   8.627  47.333  1.00  0.00    -0.395 OA
HETATM   25  H16 UNL     1      29.131   9.443  47.105  1.00  0.00     0.210 HD
ENDBRANCH  19  24
ENDBRANCH   6  16
BRANCH   1  26
HETATM   26  C3  UNL     1      25.231   1.095  52.415  1.00  0.00     0.054 C 
HETATM   27  C2  UNL     1      26.366   0.634  51.942  1.00  0.00    -0.002 C 
HETATM   28  C1  UNL     1      26.846  -0.702  52.421  1.00  0.00     0.038 C 
BRANCH  26  29
HETATM   29  C4  UNL     1      24.438   0.297  53.410  1.00  0.00     0.280 C 
HETATM   30  F1  UNL     1      23.393  -0.316  52.770  1.00  0.00    -0.249 F 
ENDBRANCH  26  29
ENDBRANCH   1  26
TORSDOF 4
ENDMDL
MODEL 6
REMARK VINA RESULT:      -7.6      1.709      1.874
REMARK  4 active torsions:
REMARK  status: ('A' for Active; 'I' for Inactive)
REMARK    1  A    between atoms: C3_3  and  C4_4 
REMARK    2  A    between atoms: C3_3  and  N1_6 
REMARK    3  A    between atoms: C7_11  and  N4_12 
REMARK    4  A    between atoms: C10_15  and  O1_16 
ROOT
HETATM    1  N1  UNL     1      20.856   1.981  51.803  1.00  0.00    -0.276 N 
HETATM    2  C5  UNL     1      21.063   3.287  52.567  1.00  0.00     0.274 C 
HETATM    3  N2  UNL     1      22.299   3.799  51.869  1.00  0.00    -0.350 N 
HETATM    4  C6  UNL     1      23.398   3.601  52.798  1.00  0.00     0.203 C 
HETATM    5  N3  UNL     1      24.678   3.261  52.671  1.00  0.00    -0.255 NA
HETATM    6  C7  UNL     1      25.269   2.127  51.897  1.00  0.00     0.236 C 
HETATM    7  C13 UNL     1      24.149   1.342  51.178  1.00  0.00     0.050 C 
HETATM    8  C14 UNL     1      23.139   2.086  50.573  1.00  0.00     0.057 C 
HETATM    9  N6  UNL     1      21.965   1.310  51.083  1.00  0.00    -0.298 N 
HETATM   10  C15 UNL     1      23.155   3.314  49.742  1.00  0.00     0.195 C 
HETATM   11  O2  UNL     1      22.613   3.476  48.565  1.00  0.00    -0.378 OA
HETATM   12  C16 UNL     1      22.631   4.906  48.444  1.00  0.00     0.170 C 
HETATM   13  C17 UNL     1      22.626   5.441  49.909  1.00  0.00     0.054 C 
HETATM   14  C18 UNL     1      22.163   4.249  50.535  1.00  0.00     0.123 C 
HETATM   15  H21 UNL     1      22.208   0.338  50.820  1.00  0.00     0.187 HD
ENDROOT
BRANCH   6  16
HETATM   16  N4  UNL     1      26.049   1.295  52.739  1.00  0.00    -0.343 N 
HETATM   17  C8  UNL     1      25.551  -0.070  53.005  1.00  0.00     0.129 C 
HETATM   18  C9  UNL     1      26.654  -1.063  53.033  1.00  0.00     0.052 C 
HETATM   19  C10 UNL     1      27.846  -0.695  53.849  1.00  0.00     0.126 C 
HETATM   20  C11 UNL     1      28.362   0.644  53.350  1.00  0.00     0.109 C 
HETATM   21  C12 UNL     1      27.260   1.660  53.362  1.00  0.00     0.098 C 
HETATM   22  N5  UNL     1      27.344   2.820  53.910  1.00  0.00    -0.288 NA
HETATM   23  H19 UNL     1      26.644   3.549  53.969  1.00  0.00     0.188 HD
BRANCH  19  24
HETATM   24  O1  UNL     1      28.835  -1.642  53.628  1.00  0.00    -0.395 OA
HETATM   25  H16 UNL     1      28.447  -2.533  53.403  1.00  0.00     0.210 HD
ENDBRANCH  19  24
ENDBRANCH   6  16
BRANCH   1  26
HETATM   26  C3  UNL     1      19.791   1.089  51.565  1.00  0.00     0.054 C 
HETATM   27  C2  UNL     1      18.979   1.248  50.546  1.00  0.00    -0.002 C 
HETATM   28  C1  UNL     1      17.870   0.258  50.359  1.00  0.00     0.038 C 
BRANCH  26  29
HETATM   29  C4  UNL     1      19.609  -0.058  52.517  1.00  0.00     0.280 C 
HETATM   30  F1  UNL     1      19.958   0.342  53.780  1.00  0.00    -0.249 F 
ENDBRANCH  26  29
ENDBRANCH   1  26
TORSDOF 4
ENDMDL
MODEL 7
REMARK VINA RESULT:      -7.5      3.016      5.172
REMARK  4 active torsions:
REMARK  status: ('A' for Active; 'I' for Inactive)
REMARK    1  A    between atoms: C3_3  and  C4_4 
REMARK    2  A    between atoms: C3_3  and  N1_6 
REMARK    3  A    between atoms: C7_11  and  N4_12 
REMARK    4  A    between atoms: C10_15  and  O1_16 
ROOT
HETATM    1  N1  UNL     1      23.310   5.260  50.229  1.00  0.00    -0.276 N 
HETATM    2  C5  UNL     1      23.025   4.168  49.202  1.00  0.00     0.274 C 
HETATM    3  N2  UNL     1      22.438   3.113  50.106  1.00  0.00    -0.350 N 
HETATM    4  C6  UNL     1      23.460   2.089  50.249  1.00  0.00     0.203 C 
HETATM    5  N3  UNL     1      23.859   1.302  51.244  1.00  0.00    -0.255 NA
HETATM    6  C7  UNL     1      24.187   1.675  52.654  1.00  0.00     0.236 C 
HETATM    7  C13 UNL     1      23.968   3.191  52.861  1.00  0.00     0.050 C 
HETATM    8  C14 UNL     1      22.830   3.753  52.287  1.00  0.00     0.057 C 
HETATM    9  N6  UNL     1      23.472   4.957  51.672  1.00  0.00    -0.298 N 
HETATM   10  C15 UNL     1      21.419   3.306  52.207  1.00  0.00     0.195 C 
HETATM   11  O2  UNL     1      20.358   3.980  52.564  1.00  0.00    -0.378 OA
HETATM   12  C16 UNL     1      19.319   3.219  51.930  1.00  0.00     0.170 C 
HETATM   13  C17 UNL     1      20.006   2.515  50.720  1.00  0.00     0.054 C 
HETATM   14  C18 UNL     1      21.155   3.353  50.653  1.00  0.00     0.123 C 
HETATM   15  H21 UNL     1      23.985   5.370  52.471  1.00  0.00     0.187 HD
ENDROOT
BRANCH   6  16
HETATM   16  N4  UNL     1      25.505   1.275  52.987  1.00  0.00    -0.343 N 
HETATM   17  C8  UNL     1      26.623   2.009  52.360  1.00  0.00     0.129 C 
HETATM   18  C9  UNL     1      27.744   2.221  53.310  1.00  0.00     0.052 C 
HETATM   19  C10 UNL     1      28.179   1.025  54.088  1.00  0.00     0.126 C 
HETATM   20  C11 UNL     1      26.968   0.478  54.824  1.00  0.00     0.109 C 
HETATM   21  C12 UNL     1      25.849   0.221  53.860  1.00  0.00     0.098 C 
HETATM   22  N5  UNL     1      25.203  -0.886  53.771  1.00  0.00    -0.288 NA
HETATM   23  H19 UNL     1      24.450  -1.136  53.141  1.00  0.00     0.188 HD
BRANCH  19  24
HETATM   24  O1  UNL     1      29.105   1.434  55.035  1.00  0.00    -0.395 OA
HETATM   25  H16 UNL     1      28.691   2.028  55.722  1.00  0.00     0.210 HD
ENDBRANCH  19  24
ENDBRANCH   6  16
BRANCH   1  26
HETATM   26  C3  UNL     1      23.518   6.654  50.214  1.00  0.00     0.054 C 
HETATM   27  C2  UNL     1      24.726   7.168  50.206  1.00  0.00    -0.002 C 
HETATM   28  C1  UNL     1      24.864   8.660  50.191  1.00  0.00     0.038 C 
BRANCH  26  29
HETATM   29  C4  UNL     1      22.308   7.544  50.210  1.00  0.00     0.280 C 
HETATM   30  F1  UNL     1      21.332   6.987  50.994  1.00  0.00    -0.249 F 
ENDBRANCH  26  29
ENDBRANCH   1  26
TORSDOF 4
ENDMDL
MODEL 8
REMARK VINA RESULT:      -7.5      4.245      6.252
REMARK  4 active torsions:
REMARK  status: ('A' for Active; 'I' for Inactive)
REMARK    1  A    between atoms: C3_3  and  C4_4 
REMARK    2  A    between atoms: C3_3  and  N1_6 
REMARK    3  A    between atoms: C7_11  and  N4_12 
REMARK    4  A    between atoms: C10_15  and  O1_16 
ROOT
HETATM    1  N1  UNL     1      25.248   2.421  52.434  1.00  0.00    -0.276 N 
HETATM    2  C5  UNL     1      24.280   3.304  53.218  1.00  0.00     0.274 C 
HETATM    3  N2  UNL     1      23.289   3.627  52.128  1.00  0.00    -0.350 N 
HETATM    4  C6  UNL     1      23.541   5.008  51.749  1.00  0.00     0.203 C 
HETATM    5  N3  UNL     1      23.512   5.681  50.603  1.00  0.00    -0.255 NA
HETATM    6  C7  UNL     1      24.138   5.321  49.294  1.00  0.00     0.236 C 
HETATM    7  C13 UNL     1      24.857   3.957  49.413  1.00  0.00     0.050 C 
HETATM    8  C14 UNL     1      24.200   2.952  50.120  1.00  0.00     0.057 C 
HETATM    9  N6  UNL     1      25.353   2.491  50.957  1.00  0.00    -0.298 N 
HETATM   10  C15 UNL     1      22.792   2.493  50.139  1.00  0.00     0.195 C 
HETATM   11  O2  UNL     1      22.358   1.275  49.957  1.00  0.00    -0.378 OA
HETATM   12  C16 UNL     1      21.011   1.382  50.443  1.00  0.00     0.170 C 
HETATM   13  C17 UNL     1      21.037   2.562  51.463  1.00  0.00     0.054 C 
HETATM   14  C18 UNL     1      22.445   2.587  51.675  1.00  0.00     0.123 C 
HETATM   15  H21 UNL     1      26.089   2.318  50.249  1.00  0.00     0.187 HD
ENDROOT
BRANCH   6  16
HETATM   16  N4  UNL     1      25.009   6.347  48.852  1.00  0.00    -0.343 N 
HETATM   17  C8  UNL     1      26.440   6.229  49.200  1.00  0.00     0.129 C 
HETATM   18  C9  UNL     1      27.316   6.672  48.087  1.00  0.00     0.052 C 
HETATM   19  C10 UNL     1      26.963   7.974  47.453  1.00  0.00     0.126 C 
HETATM   20  C11 UNL     1      25.522   7.892  46.982  1.00  0.00     0.109 C 
HETATM   21  C12 UNL     1      24.629   7.489  48.116  1.00  0.00     0.098 C 
HETATM   22  N5  UNL     1      23.562   8.116  48.463  1.00  0.00    -0.288 NA
HETATM   23  H19 UNL     1      22.920   7.912  49.219  1.00  0.00     0.188 HD
BRANCH  19  24
HETATM   24  O1  UNL     1      27.768   8.149  46.337  1.00  0.00    -0.395 OA
HETATM   25  H16 UNL     1      28.384   8.926  46.445  1.00  0.00     0.210 HD
ENDBRANCH  19  24
ENDBRANCH   6  16
BRANCH   1  26
HETATM   26  C3  UNL     1      26.219   1.445  52.734  1.00  0.00     0.054 C 
HETATM   27  C2  UNL     1      26.151   0.233  52.233  1.00  0.00    -0.002 C 
HETATM   28  C1  UNL     1      27.222  -0.749  52.600  1.00  0.00     0.038 C 
BRANCH  26  29
HETATM   29  C4  UNL     1      27.343   1.830  53.652  1.00  0.00     0.280 C 
HETATM   30  F1  UNL     1      28.224   2.634  52.977  1.00  0.00    -0.249 F 
ENDBRANCH  26  29
ENDBRANCH   1  26
TORSDOF 4
ENDMDL
MODEL 9
REMARK VINA RESULT:      -7.4      2.619      6.526
REMARK  4 active torsions:
REMARK  status: ('A' for Active; 'I' for Inactive)
REMARK    1  A    between atoms: C3_3  and  C4_4 
REMARK    2  A    between atoms: C3_3  and  N1_6 
REMARK    3  A    between atoms: C7_11  and  N4_12 
REMARK    4  A    between atoms: C10_15  and  O1_16 
ROOT
HETATM    1  N1  UNL     1      25.506   2.155  52.012  1.00  0.00    -0.276 N 
HETATM    2  C5  UNL     1      25.405   2.139  50.488  1.00  0.00     0.274 C 
HETATM    3  N2  UNL     1      24.183   3.003  50.303  1.00  0.00    -0.350 N 
HETATM    4  C6  UNL     1      23.102   2.102  49.939  1.00  0.00     0.203 C 
HETATM    5  N3  UNL     1      21.801   2.049  50.207  1.00  0.00    -0.255 NA
HETATM    6  C7  UNL     1      21.116   2.161  51.531  1.00  0.00     0.236 C 
HETATM    7  C13 UNL     1      22.162   2.395  52.645  1.00  0.00     0.050 C 
HETATM    8  C14 UNL     1      23.197   3.285  52.369  1.00  0.00     0.057 C 
HETATM    9  N6  UNL     1      24.336   2.453  52.872  1.00  0.00    -0.298 N 
HETATM   10  C15 UNL     1      23.231   4.614  51.714  1.00  0.00     0.195 C 
HETATM   11  O2  UNL     1      23.745   5.715  52.192  1.00  0.00    -0.378 OA
HETATM   12  C16 UNL     1      23.812   6.528  51.011  1.00  0.00     0.170 C 
HETATM   13  C17 UNL     1      23.897   5.520  49.824  1.00  0.00     0.054 C 
HETATM   14  C18 UNL     1      24.304   4.385  50.581  1.00  0.00     0.123 C 
HETATM   15  H21 UNL     1      24.024   2.202  53.827  1.00  0.00     0.187 HD
ENDROOT
BRANCH   6  16
HETATM   16  N4  UNL     1      20.313   1.021  51.781  1.00  0.00    -0.343 N 
HETATM   17  C8  UNL     1      20.803   0.043  52.774  1.00  0.00     0.129 C 
HETATM   18  C9  UNL     1      19.699  -0.496  53.608  1.00  0.00     0.052 C 
HETATM   19  C10 UNL     1      18.484  -0.951  52.873  1.00  0.00     0.126 C 
HETATM   20  C11 UNL     1      17.983   0.209  52.030  1.00  0.00     0.109 C 
HETATM   21  C12 UNL     1      19.084   0.726  51.154  1.00  0.00     0.098 C 
HETATM   22  N5  UNL     1      18.985   0.901  49.885  1.00  0.00    -0.288 NA
HETATM   23  H19 UNL     1      19.684   1.232  49.230  1.00  0.00     0.188 HD
BRANCH  19  24
HETATM   24  O1  UNL     1      17.502  -1.258  53.802  1.00  0.00    -0.395 OA
HETATM   25  H16 UNL     1      17.895  -1.573  54.663  1.00  0.00     0.210 HD
ENDBRANCH  19  24
ENDBRANCH   6  16
BRANCH   1  26
HETATM   26  C3  UNL     1      26.505   1.917  52.976  1.00  0.00     0.054 C 
HETATM   27  C2  UNL     1      27.736   2.342  52.808  1.00  0.00    -0.002 C 
HETATM   28  C1  UNL     1      28.742   2.050  53.880  1.00  0.00     0.038 C 
BRANCH  26  29
HETATM   29  C4  UNL     1      26.121   1.157  54.213  1.00  0.00     0.280 C 
HETATM   30  F1  UNL     1      26.230  -0.187  53.971  1.00  0.00    -0.249 F 
ENDBRANCH  26  29
ENDBRANCH   1  26
TORSDOF 4
ENDMDL
