MODEL 1
REMARK VINA RESULT:      -8.4      0.000      0.000
REMARK  5 active torsions:
REMARK  status: ('A' for Active; 'I' for Inactive)
REMARK    1  A    between atoms: C1_2  and  O2_3 
REMARK    2  A    between atoms: C1_2  and  C2_4 
REMARK    3  A    between atoms: C10_13  and  N2_14 
REMARK    4  A    between atoms: N2_14  and  C11_15 
REMARK    5  A    between atoms: C11_15  and  C12_16 
ROOT
HETATM    1  C2  UNL     1      20.400  -0.449  53.200  1.00  0.00     0.038 A 
HETATM    2  C3  UNL     1      21.136  -1.446  53.806  1.00  0.00     0.021 A 
HETATM    3  C4  UNL     1      22.490  -1.208  53.949  1.00  0.00     0.039 A 
HETATM    4  C5  UNL     1      23.084  -0.038  53.511  1.00  0.00     0.086 A 
HETATM    5  C6  UNL     1      22.342   0.953  52.907  1.00  0.00    -0.006 A 
HETATM    6  C7  UNL     1      20.969   0.727  52.756  1.00  0.00     0.029 A 
HETATM    7  C8  UNL     1      22.723   2.276  52.357  1.00  0.00     0.161 C 
HETATM    8  N1  UNL     1      24.044   2.249  51.717  1.00  0.00    -0.379 N 
HETATM    9  C9  UNL     1      25.271   1.795  52.306  1.00  0.00     0.128 A 
HETATM   10  C10 UNL     1      26.332   2.533  51.835  1.00  0.00     0.156 A 
HETATM   11  N3  UNL     1      27.542   2.195  52.307  1.00  0.00    -0.222 NA
HETATM   12  C14 UNL     1      27.716   1.203  53.183  1.00  0.00     0.238 A 
HETATM   13  N4  UNL     1      26.671   0.464  53.657  1.00  0.00    -0.215 NA
HETATM   14  C15 UNL     1      25.410   0.748  53.224  1.00  0.00     0.202 A 
HETATM   15  O3  UNL     1      24.444  -0.078  53.786  1.00  0.00    -0.289 OA
HETATM   16  H7  UNL     1      24.232   2.569  50.723  1.00  0.00     0.160 HD
ENDROOT
BRANCH  10  17
HETATM   17  N2  UNL     1      26.218   3.616  50.912  1.00  0.00    -0.369 N 
HETATM   18  H8  UNL     1      25.954   4.613  51.027  1.00  0.00     0.161 HD
BRANCH  17  19
HETATM   19  C11 UNL     1      26.522   3.335  49.523  1.00  0.00     0.150 C 
BRANCH  19  20
HETATM   20  C12 UNL     1      27.345   4.434  48.919  1.00  0.00     0.024 C 
HETATM   21  C13 UNL     1      27.172   5.711  48.526  1.00  0.00     0.078 C 
HETATM   22 CL1  UNL     1      28.441   6.736  47.827  1.00  0.00    -0.076 Cl
HETATM   23 BR1  UNL     1      25.520   6.659  48.649  1.00  0.00    -0.038 Br
ENDBRANCH  19  20
ENDBRANCH  17  19
ENDBRANCH  10  17
BRANCH   1  24
HETATM   24  C1  UNL     1      18.963  -0.650  53.025  1.00  0.00     0.176 C 
HETATM   25  O1  UNL     1      18.437  -0.383  51.908  1.00  0.00    -0.646 OA
BRANCH  24  26
HETATM   26  O2  UNL     1      18.179  -1.126  54.070  1.00  0.00    -0.773 OA
HETATM   27  H1  UNL     1      17.613  -1.983  53.965  1.00  0.00     0.167 HD
ENDBRANCH  24  26
ENDBRANCH   1  24
TORSDOF 5
ENDMDL
MODEL 2
REMARK VINA RESULT:      -8.3      2.988      5.113
REMARK  5 active torsions:
REMARK  status: ('A' for Active; 'I' for Inactive)
REMARK    1  A    between atoms: C1_2  and  O2_3 
REMARK    2  A    between atoms: C1_2  and  C2_4 
REMARK    3  A    between atoms: C10_13  and  N2_14 
REMARK    4  A    between atoms: N2_14  and  C11_15 
REMARK    5  A    between atoms: C11_15  and  C12_16 
ROOT
HETATM    1  C2  UNL     1      27.015  -0.950  52.977  1.00  0.00     0.038 A 
HETATM    2  C3  UNL     1      25.813  -1.255  53.580  1.00  0.00     0.021 A 
HETATM    3  C4  UNL     1      24.766  -0.386  53.338  1.00  0.00     0.039 A 
HETATM    4  C5  UNL     1      24.908   0.731  52.534  1.00  0.00     0.086 A 
HETATM    5  C6  UNL     1      26.111   1.028  51.934  1.00  0.00    -0.006 A 
HETATM    6  C7  UNL     1      27.180   0.158  52.171  1.00  0.00     0.029 A 
HETATM    7  C8  UNL     1      26.523   2.141  51.045  1.00  0.00     0.161 C 
HETATM    8  N1  UNL     1      25.875   3.408  51.407  1.00  0.00    -0.379 N 
HETATM    9  C9  UNL     1      24.467   3.637  51.554  1.00  0.00     0.128 A 
HETATM   10  C10 UNL     1      24.144   4.914  51.158  1.00  0.00     0.156 A 
HETATM   11  N3  UNL     1      22.849   5.253  51.259  1.00  0.00    -0.222 NA
HETATM   12  C14 UNL     1      21.921   4.408  51.716  1.00  0.00     0.238 A 
HETATM   13  N4  UNL     1      22.231   3.139  52.112  1.00  0.00    -0.215 NA
HETATM   14  C15 UNL     1      23.526   2.721  52.039  1.00  0.00     0.202 A 
HETATM   15  O3  UNL     1      23.699   1.411  52.472  1.00  0.00    -0.289 OA
HETATM   16  H7  UNL     1      26.398   4.309  51.606  1.00  0.00     0.160 HD
ENDROOT
BRANCH  10  17
HETATM   17  N2  UNL     1      25.079   5.863  50.646  1.00  0.00    -0.369 N 
HETATM   18  H8  UNL     1      25.700   6.555  51.104  1.00  0.00     0.161 HD
BRANCH  17  19
HETATM   19  C11 UNL     1      25.244   5.915  49.206  1.00  0.00     0.150 C 
BRANCH  19  20
HETATM   20  C12 UNL     1      26.643   5.544  48.812  1.00  0.00     0.024 C 
HETATM   21  C13 UNL     1      27.779   6.172  48.450  1.00  0.00     0.078 C 
HETATM   22 CL1  UNL     1      29.300   5.356  48.040  1.00  0.00    -0.076 Cl
HETATM   23 BR1  UNL     1      27.962   8.067  48.313  1.00  0.00    -0.038 Br
ENDBRANCH  19  20
ENDBRANCH  17  19
ENDBRANCH  10  17
BRANCH   1  24
HETATM   24  C1  UNL     1      28.155  -1.838  53.201  1.00  0.00     0.176 C 
HETATM   25  O1  UNL     1      29.183  -1.385  53.779  1.00  0.00    -0.646 OA
BRANCH  24  26
HETATM   26  O2  UNL     1      28.116  -3.164  52.786  1.00  0.00    -0.773 OA
HETATM   27  H1  UNL     1      28.820  -3.541  52.133  1.00  0.00     0.167 HD
ENDBRANCH  24  26
ENDBRANCH   1  24
TORSDOF 5
ENDMDL
MODEL 3
REMARK VINA RESULT:      -8.3      3.683      6.632
REMARK  5 active torsions:
REMARK  status: ('A' for Active; 'I' for Inactive)
REMARK    1  A    between atoms: C1_2  and  O2_3 
REMARK    2  A    between atoms: C1_2  and  C2_4 
REMARK    3  A    between atoms: C10_13  and  N2_14 
REMARK    4  A    between atoms: N2_14  and  C11_15 
REMARK    5  A    between atoms: C11_15  and  C12_16 
ROOT
HETATM    1  C2  UNL     1      27.379   1.494  53.976  1.00  0.00     0.038 A 
HETATM    2  C3  UNL     1      27.354   0.447  54.874  1.00  0.00     0.021 A 
HETATM    3  C4  UNL     1      26.176  -0.271  54.946  1.00  0.00     0.039 A 
HETATM    4  C5  UNL     1      25.077   0.035  54.163  1.00  0.00     0.086 A 
HETATM    5  C6  UNL     1      25.110   1.080  53.268  1.00  0.00    -0.006 A 
HETATM    6  C7  UNL     1      26.297   1.818  53.184  1.00  0.00     0.029 A 
HETATM    7  C8  UNL     1      24.092   1.610  52.329  1.00  0.00     0.161 C 
HETATM    8  N1  UNL     1      22.735   1.537  52.886  1.00  0.00    -0.379 N 
HETATM    9  C9  UNL     1      22.089   0.371  53.415  1.00  0.00     0.128 A 
HETATM   10  C10 UNL     1      20.739   0.409  53.154  1.00  0.00     0.156 A 
HETATM   11  N3  UNL     1      20.021  -0.628  53.611  1.00  0.00    -0.222 NA
HETATM   12  C14 UNL     1      20.573  -1.643  54.280  1.00  0.00     0.238 A 
HETATM   13  N4  UNL     1      21.912  -1.691  54.544  1.00  0.00    -0.215 NA
HETATM   14  C15 UNL     1      22.708  -0.673  54.112  1.00  0.00     0.202 A 
HETATM   15  O3  UNL     1      24.045  -0.850  54.448  1.00  0.00    -0.289 OA
HETATM   16  H7  UNL     1      22.076   2.365  52.959  1.00  0.00     0.160 HD
ENDROOT
BRANCH  10  17
HETATM   17  N2  UNL     1      20.084   1.452  52.432  1.00  0.00    -0.369 N 
HETATM   18  H8  UNL     1      19.989   2.471  52.601  1.00  0.00     0.161 HD
BRANCH  17  19
HETATM   19  C11 UNL     1      19.404   1.080  51.207  1.00  0.00     0.150 C 
BRANCH  19  20
HETATM   20  C12 UNL     1      20.345   1.110  50.039  1.00  0.00     0.024 C 
HETATM   21  C13 UNL     1      21.183   1.988  49.453  1.00  0.00     0.078 C 
HETATM   22 CL1  UNL     1      22.173   1.641  48.022  1.00  0.00    -0.076 Cl
HETATM   23 BR1  UNL     1      21.461   3.776  50.059  1.00  0.00    -0.038 Br
ENDBRANCH  19  20
ENDBRANCH  17  19
ENDBRANCH  10  17
BRANCH   1  24
HETATM   24  C1  UNL     1      28.602   2.286  53.860  1.00  0.00     0.176 C 
HETATM   25  O1  UNL     1      29.461   2.230  54.785  1.00  0.00    -0.646 OA
BRANCH  24  26
HETATM   26  O2  UNL     1      28.825   3.093  52.750  1.00  0.00    -0.773 OA
HETATM   27  H1  UNL     1      28.368   4.013  52.657  1.00  0.00     0.167 HD
ENDBRANCH  24  26
ENDBRANCH   1  24
TORSDOF 5
ENDMDL
MODEL 4
REMARK VINA RESULT:      -7.9      2.176      3.583
REMARK  5 active torsions:
REMARK  status: ('A' for Active; 'I' for Inactive)
REMARK    1  A    between atoms: C1_2  and  O2_3 
REMARK    2  A    between atoms: C1_2  and  C2_4 
REMARK    3  A    between atoms: C10_13  and  N2_14 
REMARK    4  A    between atoms: N2_14  and  C11_15 
REMARK    5  A    between atoms: C11_15  and  C12_16 
ROOT
HETATM    1  C2  UNL     1      22.204  -0.318  54.116  1.00  0.00     0.038 A 
HETATM    2  C3  UNL     1      21.003   0.353  54.007  1.00  0.00     0.021 A 
HETATM    3  C4  UNL     1      20.976   1.422  53.131  1.00  0.00     0.039 A 
HETATM    4  C5  UNL     1      22.086   1.804  52.400  1.00  0.00     0.086 A 
HETATM    5  C6  UNL     1      23.280   1.129  52.514  1.00  0.00    -0.006 A 
HETATM    6  C7  UNL     1      23.324   0.044  53.397  1.00  0.00     0.029 A 
HETATM    7  C8  UNL     1      24.595   1.329  51.859  1.00  0.00     0.161 C 
HETATM    8  N1  UNL     1      24.900   2.751  51.653  1.00  0.00    -0.379 N 
HETATM    9  C9  UNL     1      24.073   3.715  50.986  1.00  0.00     0.128 A 
HETATM   10  C10 UNL     1      24.849   4.637  50.324  1.00  0.00     0.156 A 
HETATM   11  N3  UNL     1      24.187   5.602  49.666  1.00  0.00    -0.222 NA
HETATM   12  C14 UNL     1      22.854   5.672  49.650  1.00  0.00     0.238 A 
HETATM   13  N4  UNL     1      22.074   4.762  50.304  1.00  0.00    -0.215 NA
HETATM   14  C15 UNL     1      22.674   3.752  50.995  1.00  0.00     0.202 A 
HETATM   15  O3  UNL     1      21.764   2.900  51.611  1.00  0.00    -0.289 OA
HETATM   16  H7  UNL     1      25.787   3.225  51.989  1.00  0.00     0.160 HD
ENDROOT
BRANCH  10  17
HETATM   17  N2  UNL     1      26.276   4.614  50.285  1.00  0.00    -0.369 N 
HETATM   18  H8  UNL     1      27.002   4.845  50.989  1.00  0.00     0.161 HD
BRANCH  17  19
HETATM   19  C11 UNL     1      26.896   4.188  49.045  1.00  0.00     0.150 C 
BRANCH  19  20
HETATM   20  C12 UNL     1      27.985   5.134  48.635  1.00  0.00     0.024 C 
HETATM   21  C13 UNL     1      28.090   6.381  48.136  1.00  0.00     0.078 C 
HETATM   22 CL1  UNL     1      29.621   7.197  47.764  1.00  0.00    -0.076 Cl
HETATM   23 BR1  UNL     1      26.601   7.506  47.732  1.00  0.00    -0.038 Br
ENDBRANCH  19  20
ENDBRANCH  17  19
ENDBRANCH  10  17
BRANCH   1  24
HETATM   24  C1  UNL     1      22.287  -1.457  55.029  1.00  0.00     0.176 C 
HETATM   25  O1  UNL     1      21.389  -2.345  54.987  1.00  0.00    -0.646 OA
BRANCH  24  26
HETATM   26  O2  UNL     1      23.336  -1.569  55.934  1.00  0.00    -0.773 OA
HETATM   27  H1  UNL     1      23.849  -0.736  56.263  1.00  0.00     0.167 HD
ENDBRANCH  24  26
ENDBRANCH   1  24
TORSDOF 5
ENDMDL
MODEL 5
REMARK VINA RESULT:      -7.8      2.353      3.617
REMARK  5 active torsions:
REMARK  status: ('A' for Active; 'I' for Inactive)
REMARK    1  A    between atoms: C1_2  and  O2_3 
REMARK    2  A    between atoms: C1_2  and  C2_4 
REMARK    3  A    between atoms: C10_13  and  N2_14 
REMARK    4  A    between atoms: N2_14  and  C11_15 
REMARK    5  A    between atoms: C11_15  and  C12_16 
ROOT
HETATM    1  C2  UNL     1      18.072  -0.435  51.737  1.00  0.00     0.038 A 
HETATM    2  C3  UNL     1      17.855  -1.300  52.789  1.00  0.00     0.021 A 
HETATM    3  C4  UNL     1      18.912  -1.486  53.660  1.00  0.00     0.039 A 
HETATM    4  C5  UNL     1      20.125  -0.842  53.493  1.00  0.00     0.086 A 
HETATM    5  C6  UNL     1      20.334   0.020  52.441  1.00  0.00    -0.006 A 
HETATM    6  C7  UNL     1      19.273   0.218  51.550  1.00  0.00     0.029 A 
HETATM    7  C8  UNL     1      21.516   0.821  52.040  1.00  0.00     0.161 C 
HETATM    8  N1  UNL     1      22.777   0.116  52.301  1.00  0.00    -0.379 N 
HETATM    9  C9  UNL     1      23.198  -0.450  53.550  1.00  0.00     0.128 A 
HETATM   10  C10 UNL     1      24.562  -0.346  53.689  1.00  0.00     0.156 A 
HETATM   11  N3  UNL     1      25.080  -0.852  54.819  1.00  0.00    -0.222 NA
HETATM   12  C14 UNL     1      24.325  -1.424  55.759  1.00  0.00     0.238 A 
HETATM   13  N4  UNL     1      22.970  -1.532  55.631  1.00  0.00    -0.215 NA
HETATM   14  C15 UNL     1      22.370  -1.042  54.511  1.00  0.00     0.202 A 
HETATM   15  O3  UNL     1      20.991  -1.218  54.512  1.00  0.00    -0.289 OA
HETATM   16  H7  UNL     1      23.526  -0.056  51.570  1.00  0.00     0.160 HD
ENDROOT
BRANCH  10  17
HETATM   17  N2  UNL     1      25.428   0.266  52.733  1.00  0.00    -0.369 N 
HETATM   18  H8  UNL     1      25.847  -0.071  51.846  1.00  0.00     0.161 HD
BRANCH  17  19
HETATM   19  C11 UNL     1      25.836   1.634  52.993  1.00  0.00     0.150 C 
BRANCH  19  20
HETATM   20  C12 UNL     1      26.344   2.289  51.743  1.00  0.00     0.024 C 
HETATM   21  C13 UNL     1      25.833   2.916  50.665  1.00  0.00     0.078 C 
HETATM   22 CL1  UNL     1      26.796   3.587  49.334  1.00  0.00    -0.076 Cl
HETATM   23 BR1  UNL     1      23.969   3.198  50.370  1.00  0.00    -0.038 Br
ENDBRANCH  19  20
ENDBRANCH  17  19
ENDBRANCH  10  17
BRANCH   1  24
HETATM   24  C1  UNL     1      16.985  -0.203  50.787  1.00  0.00     0.176 C 
HETATM   25  O1  UNL     1      15.817  -0.010  51.225  1.00  0.00    -0.646 OA
BRANCH  24  26
HETATM   26  O2  UNL     1      17.227  -0.195  49.418  1.00  0.00    -0.773 OA
HETATM   27  H1  UNL     1      16.487   0.063  48.747  1.00  0.00     0.167 HD
ENDBRANCH  24  26
ENDBRANCH   1  24
TORSDOF 5
ENDMDL
MODEL 6
REMARK VINA RESULT:      -7.8      2.985      4.703
REMARK  5 active torsions:
REMARK  status: ('A' for Active; 'I' for Inactive)
REMARK    1  A    between atoms: C1_2  and  O2_3 
REMARK    2  A    between atoms: C1_2  and  C2_4 
REMARK    3  A    between atoms: C10_13  and  N2_14 
REMARK    4  A    between atoms: N2_14  and  C11_15 
REMARK    5  A    between atoms: C11_15  and  C12_16 
ROOT
HETATM    1  C2  UNL     1      24.901   0.080  53.896  1.00  0.00     0.038 A 
HETATM    2  C3  UNL     1      23.557   0.094  53.588  1.00  0.00     0.021 A 
HETATM    3  C4  UNL     1      23.180   0.892  52.525  1.00  0.00     0.039 A 
HETATM    4  C5  UNL     1      24.094   1.639  51.803  1.00  0.00     0.086 A 
HETATM    5  C6  UNL     1      25.434   1.619  52.117  1.00  0.00    -0.006 A 
HETATM    6  C7  UNL     1      25.832   0.815  53.191  1.00  0.00     0.029 A 
HETATM    7  C8  UNL     1      26.599   2.312  51.516  1.00  0.00     0.161 C 
HETATM    8  N1  UNL     1      26.264   3.667  51.062  1.00  0.00    -0.379 N 
HETATM    9  C9  UNL     1      25.197   4.033  50.175  1.00  0.00     0.128 A 
HETATM   10  C10 UNL     1      25.566   5.106  49.398  1.00  0.00     0.156 A 
HETATM   11  N3  UNL     1      24.643   5.549  48.530  1.00  0.00    -0.222 NA
HETATM   12  C14 UNL     1      23.436   4.990  48.419  1.00  0.00     0.238 A 
HETATM   13  N4  UNL     1      23.061   3.924  49.186  1.00  0.00    -0.215 NA
HETATM   14  C15 UNL     1      23.943   3.417  50.091  1.00  0.00     0.202 A 
HETATM   15  O3  UNL     1      23.432   2.337  50.802  1.00  0.00    -0.289 OA
HETATM   16  H7  UNL     1      26.788   4.541  51.356  1.00  0.00     0.160 HD
ENDROOT
BRANCH  10  17
HETATM   17  N2  UNL     1      26.842   5.743  49.451  1.00  0.00    -0.369 N 
HETATM   18  H8  UNL     1      27.228   6.496  50.052  1.00  0.00     0.161 HD
BRANCH  17  19
HETATM   19  C11 UNL     1      27.846   5.289  48.508  1.00  0.00     0.150 C 
BRANCH  19  20
HETATM   20  C12 UNL     1      28.632   6.444  47.962  1.00  0.00     0.024 C 
HETATM   21  C13 UNL     1      29.899   6.698  47.579  1.00  0.00     0.078 C 
HETATM   22 CL1  UNL     1      30.475   8.258  46.959  1.00  0.00    -0.076 Cl
HETATM   23 BR1  UNL     1      31.315   5.420  47.633  1.00  0.00    -0.038 Br
ENDBRANCH  19  20
ENDBRANCH  17  19
ENDBRANCH  10  17
BRANCH   1  24
HETATM   24  C1  UNL     1      25.354  -0.749  55.012  1.00  0.00     0.176 C 
HETATM   25  O1  UNL     1      26.526  -0.597  55.455  1.00  0.00    -0.646 OA
BRANCH  24  26
HETATM   26  O2  UNL     1      24.510  -1.696  55.583  1.00  0.00    -0.773 OA
HETATM   27  H1  UNL     1      24.834  -2.309  56.347  1.00  0.00     0.167 HD
ENDBRANCH  24  26
ENDBRANCH   1  24
TORSDOF 5
ENDMDL
MODEL 7
REMARK VINA RESULT:      -7.6      1.555      1.573
REMARK  5 active torsions:
REMARK  status: ('A' for Active; 'I' for Inactive)
REMARK    1  A    between atoms: C1_2  and  O2_3 
REMARK    2  A    between atoms: C1_2  and  C2_4 
REMARK    3  A    between atoms: C10_13  and  N2_14 
REMARK    4  A    between atoms: N2_14  and  C11_15 
REMARK    5  A    between atoms: C11_15  and  C12_16 
ROOT
HETATM    1  C2  UNL     1      20.297  -0.683  53.404  1.00  0.00     0.038 A 
HETATM    2  C3  UNL     1      21.182  -1.351  54.224  1.00  0.00     0.021 A 
HETATM    3  C4  UNL     1      22.488  -0.898  54.217  1.00  0.00     0.039 A 
HETATM    4  C5  UNL     1      22.893   0.169  53.435  1.00  0.00     0.086 A 
HETATM    5  C6  UNL     1      22.003   0.831  52.619  1.00  0.00    -0.006 A 
HETATM    6  C7  UNL     1      20.677   0.383  52.615  1.00  0.00     0.029 A 
HETATM    7  C8  UNL     1      22.174   1.981  51.698  1.00  0.00     0.161 C 
HETATM    8  N1  UNL     1      23.475   1.956  51.018  1.00  0.00    -0.379 N 
HETATM    9  C9  UNL     1      24.764   1.865  51.640  1.00  0.00     0.128 A 
HETATM   10  C10 UNL     1      25.696   2.576  50.921  1.00  0.00     0.156 A 
HETATM   11  N3  UNL     1      26.950   2.559  51.400  1.00  0.00    -0.222 NA
HETATM   12  C14 UNL     1      27.283   1.894  52.509  1.00  0.00     0.238 A 
HETATM   13  N4  UNL     1      26.366   1.185  53.230  1.00  0.00    -0.215 NA
HETATM   14  C15 UNL     1      25.072   1.155  52.807  1.00  0.00     0.202 A 
HETATM   15  O3  UNL     1      24.248   0.399  53.632  1.00  0.00    -0.289 OA
HETATM   16  H7  UNL     1      23.598   1.999  49.965  1.00  0.00     0.160 HD
ENDROOT
BRANCH  10  17
HETATM   17  N2  UNL     1      25.408   3.322  49.738  1.00  0.00    -0.369 N 
HETATM   18  H8  UNL     1      24.672   3.232  49.012  1.00  0.00     0.161 HD
BRANCH  17  19
HETATM   19  C11 UNL     1      26.274   4.446  49.439  1.00  0.00     0.150 C 
BRANCH  19  20
HETATM   20  C12 UNL     1      25.643   5.739  49.863  1.00  0.00     0.024 C 
HETATM   21  C13 UNL     1      24.596   6.506  49.500  1.00  0.00     0.078 C 
HETATM   22 CL1  UNL     1      24.148   8.038  50.276  1.00  0.00    -0.076 Cl
HETATM   23 BR1  UNL     1      23.398   6.085  48.076  1.00  0.00    -0.038 Br
ENDBRANCH  19  20
ENDBRANCH  17  19
ENDBRANCH  10  17
BRANCH   1  24
HETATM   24  C1  UNL     1      18.904  -1.123  53.375  1.00  0.00     0.176 C 
HETATM   25  O1  UNL     1      18.073  -0.487  52.667  1.00  0.00    -0.646 OA
BRANCH  24  26
HETATM   26  O2  UNL     1      18.490  -2.226  54.114  1.00  0.00    -0.773 OA
HETATM   27  H1  UNL     1      17.498  -2.512  54.138  1.00  0.00     0.167 HD
ENDBRANCH  24  26
ENDBRANCH   1  24
TORSDOF 5
ENDMDL
MODEL 8
REMARK VINA RESULT:      -7.6      3.016      4.942
REMARK  5 active torsions:
REMARK  status: ('A' for Active; 'I' for Inactive)
REMARK    1  A    between atoms: C1_2  and  O2_3 
REMARK    2  A    between atoms: C1_2  and  C2_4 
REMARK    3  A    between atoms: C10_13  and  N2_14 
REMARK    4  A    between atoms: N2_14  and  C11_15 
REMARK    5  A    between atoms: C11_15  and  C12_16 
ROOT
HETATM    1  C2  UNL     1      24.300   0.541  53.025  1.00  0.00     0.038 A 
HETATM    2  C3  UNL     1      23.021   1.018  52.823  1.00  0.00     0.021 A 
HETATM    3  C4  UNL     1      22.883   2.027  51.889  1.00  0.00     0.039 A 
HETATM    4  C5  UNL     1      23.962   2.536  51.189  1.00  0.00     0.086 A 
HETATM    5  C6  UNL     1      25.235   2.054  51.395  1.00  0.00    -0.006 A 
HETATM    6  C7  UNL     1      25.392   1.032  52.339  1.00  0.00     0.029 A 
HETATM    7  C8  UNL     1      26.540   2.417  50.791  1.00  0.00     0.161 C 
HETATM    8  N1  UNL     1      26.641   3.857  50.519  1.00  0.00    -0.379 N 
HETATM    9  C9  UNL     1      25.718   4.652  49.762  1.00  0.00     0.128 A 
HETATM   10  C10 UNL     1      26.385   5.647  49.085  1.00  0.00     0.156 A 
HETATM   11  N3  UNL     1      25.623   6.467  48.344  1.00  0.00    -0.222 NA
HETATM   12  C14 UNL     1      24.297   6.335  48.263  1.00  0.00     0.238 A 
HETATM   13  N4  UNL     1      23.627   5.352  48.931  1.00  0.00    -0.215 NA
HETATM   14  C15 UNL     1      24.331   4.478  49.704  1.00  0.00     0.202 A 
HETATM   15  O3  UNL     1      23.525   3.531  50.325  1.00  0.00    -0.289 OA
HETATM   16  H7  UNL     1      27.429   4.475  50.869  1.00  0.00     0.160 HD
ENDROOT
BRANCH  10  17
HETATM   17  N2  UNL     1      27.799   5.837  49.113  1.00  0.00    -0.369 N 
HETATM   18  H8  UNL     1      28.561   5.368  49.638  1.00  0.00     0.161 HD
BRANCH  17  19
HETATM   19  C11 UNL     1      28.343   6.871  48.254  1.00  0.00     0.150 C 
BRANCH  19  20
HETATM   20  C12 UNL     1      29.828   6.988  48.428  1.00  0.00     0.024 C 
HETATM   21  C13 UNL     1      30.719   7.928  48.800  1.00  0.00     0.078 C 
HETATM   22 CL1  UNL     1      32.474   7.681  48.887  1.00  0.00    -0.076 Cl
HETATM   23 BR1  UNL     1      30.255   9.710  49.304  1.00  0.00    -0.038 Br
ENDBRANCH  19  20
ENDBRANCH  17  19
ENDBRANCH  10  17
BRANCH   1  24
HETATM   24  C1  UNL     1      24.501  -0.526  54.003  1.00  0.00     0.176 C 
HETATM   25  O1  UNL     1      23.493  -1.072  54.534  1.00  0.00    -0.646 OA
BRANCH  24  26
HETATM   26  O2  UNL     1      25.782  -0.941  54.351  1.00  0.00    -0.773 OA
HETATM   27  H1  UNL     1      26.463  -0.284  54.763  1.00  0.00     0.167 HD
ENDBRANCH  24  26
ENDBRANCH   1  24
TORSDOF 5
ENDMDL
MODEL 9
REMARK VINA RESULT:      -7.5      2.993      5.566
REMARK  5 active torsions:
REMARK  status: ('A' for Active; 'I' for Inactive)
REMARK    1  A    between atoms: C1_2  and  O2_3 
REMARK    2  A    between atoms: C1_2  and  C2_4 
REMARK    3  A    between atoms: C10_13  and  N2_14 
REMARK    4  A    between atoms: N2_14  and  C11_15 
REMARK    5  A    between atoms: C11_15  and  C12_16 
ROOT
HETATM    1  C2  UNL     1      27.332  -0.392  53.090  1.00  0.00     0.038 A 
HETATM    2  C3  UNL     1      26.256  -1.164  53.475  1.00  0.00     0.021 A 
HETATM    3  C4  UNL     1      25.003  -0.615  53.274  1.00  0.00     0.039 A 
HETATM    4  C5  UNL     1      24.829   0.639  52.717  1.00  0.00     0.086 A 
HETATM    5  C6  UNL     1      25.909   1.404  52.335  1.00  0.00    -0.006 A 
HETATM    6  C7  UNL     1      27.184   0.861  52.532  1.00  0.00     0.029 A 
HETATM    7  C8  UNL     1      25.998   2.753  51.727  1.00  0.00     0.161 C 
HETATM    8  N1  UNL     1      24.962   3.660  52.238  1.00  0.00    -0.379 N 
HETATM    9  C9  UNL     1      23.548   3.421  52.254  1.00  0.00     0.128 A 
HETATM   10  C10 UNL     1      22.861   4.598  52.068  1.00  0.00     0.156 A 
HETATM   11  N3  UNL     1      21.522   4.506  52.073  1.00  0.00    -0.222 NA
HETATM   12  C14 UNL     1      20.885   3.346  52.247  1.00  0.00     0.238 A 
HETATM   13  N4  UNL     1      21.557   2.172  52.432  1.00  0.00    -0.215 NA
HETATM   14  C15 UNL     1      22.919   2.185  52.440  1.00  0.00     0.202 A 
HETATM   15  O3  UNL     1      23.473   0.925  52.637  1.00  0.00    -0.289 OA
HETATM   16  H7  UNL     1      25.161   4.610  52.665  1.00  0.00     0.160 HD
ENDROOT
BRANCH  10  17
HETATM   17  N2  UNL     1      23.475   5.870  51.860  1.00  0.00    -0.369 N 
HETATM   18  H8  UNL     1      24.283   6.342  52.309  1.00  0.00     0.161 HD
BRANCH  17  19
HETATM   19  C11 UNL     1      22.909   6.715  50.826  1.00  0.00     0.150 C 
BRANCH  19  20
HETATM   20  C12 UNL     1      23.936   7.054  49.787  1.00  0.00     0.024 C 
HETATM   21  C13 UNL     1      24.084   6.936  48.453  1.00  0.00     0.078 C 
HETATM   22 CL1  UNL     1      25.506   7.478  47.540  1.00  0.00    -0.076 Cl
HETATM   23 BR1  UNL     1      22.784   6.158  47.292  1.00  0.00    -0.038 Br
ENDBRANCH  19  20
ENDBRANCH  17  19
ENDBRANCH  10  17
BRANCH   1  24
HETATM   24  C1  UNL     1      28.679  -0.926  53.280  1.00  0.00     0.176 C 
HETATM   25  O1  UNL     1      28.838  -2.176  53.369  1.00  0.00    -0.646 OA
BRANCH  24  26
HETATM   26  O2  UNL     1      29.777  -0.077  53.365  1.00  0.00    -0.773 OA
HETATM   27  H1  UNL     1      30.351   0.139  52.535  1.00  0.00     0.167 HD
ENDBRANCH  24  26
ENDBRANCH   1  24
TORSDOF 5
ENDMDL
