MODEL 1
REMARK VINA RESULT:      -7.7      0.000      0.000
REMARK  5 active torsions:
REMARK  status: ('A' for Active; 'I' for Inactive)
REMARK    1  A    between atoms: C3_3  and  C4_5 
REMARK    2  A    between atoms: C5_6  and  N1_7 
REMARK    3  A    between atoms: N1_7  and  C7_9 
REMARK    4  A    between atoms: C7_9  and  C8_10 
REMARK    5  A    between atoms: C8_10  and  O2_11 
ROOT
HETATM    1  C4  UNL     1      22.716   3.345  51.056  1.00  0.00     0.099 C 
HETATM    2  C5  UNL     1      22.048   2.838  49.882  1.00  0.00     0.020 C 
HETATM    3  C9  UNL     1      21.098   2.025  49.468  1.00  0.00     0.034 C 
HETATM    4  C10 UNL     1      20.084   1.088  50.032  1.00  0.00    -0.044 C 
HETATM    5  C11 UNL     1      19.622   2.101  51.047  1.00  0.00     0.049 C 
HETATM    6  C12 UNL     1      19.136   0.212  50.429  1.00  0.00     0.113 C 
HETATM    7  N2  UNL     1      18.853  -0.089  51.820  1.00  0.00    -0.198 N 
HETATM    8  C13 UNL     1      20.047   0.021  52.612  1.00  0.00     0.726 A 
HETATM    9  N3  UNL     1      19.772  -0.110  53.911  1.00  0.00    -0.075 NA
HETATM   10  C14 UNL     1      20.762   0.006  54.849  1.00  0.00     0.139 A 
HETATM   11  C15 UNL     1      22.012   0.262  54.270  1.00  0.00     0.053 A 
HETATM   12  C16 UNL     1      22.321   0.402  52.905  1.00  0.00     0.089 A 
HETATM   13  N4  UNL     1      21.255   0.262  52.124  1.00  0.00    -0.062 NA
HETATM   14  C17 UNL     1      23.678   0.672  52.500  1.00  0.00     0.022 A 
HETATM   15  C18 UNL     1      24.627  -0.290  52.905  1.00  0.00     0.105 A 
HETATM   16  N5  UNL     1      25.869   0.053  52.489  1.00  0.00    -0.359 N 
HETATM   17  C19 UNL     1      27.127  -0.678  52.709  1.00  0.00     0.156 C 
HETATM   18  C20 UNL     1      25.691   1.217  51.833  1.00  0.00     0.045 A 
HETATM   19  C21 UNL     1      26.698   1.943  51.233  1.00  0.00     0.030 A 
HETATM   20  C22 UNL     1      26.350   3.112  50.603  1.00  0.00     0.003 A 
HETATM   21  C23 UNL     1      25.046   3.560  50.559  1.00  0.00     0.009 A 
HETATM   22  C24 UNL     1      24.115   2.773  51.184  1.00  0.00    -0.031 A 
HETATM   23  C25 UNL     1      24.370   1.609  51.828  1.00  0.00     0.012 A 
HETATM   24  H18 UNL     1      17.886  -0.318  51.963  1.00  0.00     0.183 HD
ENDROOT
BRANCH   2  25
HETATM   25  N1  UNL     1      22.533   3.328  48.610  1.00  0.00    -0.386 N 
HETATM   26  C6  UNL     1      22.679   2.313  47.557  1.00  0.00     0.149 C 
BRANCH  25  27
HETATM   27  C7  UNL     1      22.930   4.565  47.967  1.00  0.00     0.148 C 
BRANCH  27  28
HETATM   28  C8  UNL     1      21.879   5.237  47.154  1.00  0.00     0.183 C 
BRANCH  28  29
HETATM   29  O2  UNL     1      20.610   5.249  47.667  1.00  0.00    -0.399 OA
HETATM   30  H12 UNL     1      20.392   6.167  47.979  1.00  0.00     0.209 HD
ENDBRANCH  28  29
ENDBRANCH  27  28
ENDBRANCH  25  27
ENDBRANCH   2  25
BRANCH   1  31
HETATM   31  C3  UNL     1      22.742   4.810  51.198  1.00  0.00    -0.057 A 
HETATM   32  C2  UNL     1      21.423   5.482  51.129  1.00  0.00     0.024 A 
HETATM   33  C1  UNL     1      21.690   6.790  51.271  1.00  0.00     0.010 A 
HETATM   34  O1  UNL     1      22.830   6.082  51.329  1.00  0.00     0.000 OA
ENDBRANCH   1  31
TORSDOF 5
ENDMDL
MODEL 2
REMARK VINA RESULT:      -7.7      2.769      6.221
REMARK  5 active torsions:
REMARK  status: ('A' for Active; 'I' for Inactive)
REMARK    1  A    between atoms: C3_3  and  C4_5 
REMARK    2  A    between atoms: C5_6  and  N1_7 
REMARK    3  A    between atoms: N1_7  and  C7_9 
REMARK    4  A    between atoms: C7_9  and  C8_10 
REMARK    5  A    between atoms: C8_10  and  O2_11 
ROOT
HETATM    1  C4  UNL     1      22.985   4.280  48.469  1.00  0.00     0.099 C 
HETATM    2  C5  UNL     1      22.475   5.479  49.089  1.00  0.00     0.020 C 
HETATM    3  C9  UNL     1      22.788   6.709  49.440  1.00  0.00     0.034 C 
HETATM    4  C10 UNL     1      23.952   7.640  49.386  1.00  0.00    -0.044 C 
HETATM    5  C11 UNL     1      24.207   7.336  47.932  1.00  0.00     0.049 C 
HETATM    6  C12 UNL     1      24.937   8.564  49.396  1.00  0.00     0.113 C 
HETATM    7  N2  UNL     1      26.251   8.342  48.821  1.00  0.00    -0.198 N 
HETATM    8  C13 UNL     1      26.620   6.957  48.927  1.00  0.00     0.726 A 
HETATM    9  N3  UNL     1      27.758   6.716  48.273  1.00  0.00    -0.075 NA
HETATM   10  C14 UNL     1      28.269   5.448  48.208  1.00  0.00     0.139 A 
HETATM   11  C15 UNL     1      27.468   4.519  48.886  1.00  0.00     0.053 A 
HETATM   12  C16 UNL     1      26.268   4.755  49.580  1.00  0.00     0.089 A 
HETATM   13  N4  UNL     1      25.905   6.033  49.552  1.00  0.00    -0.062 NA
HETATM   14  C17 UNL     1      25.578   3.659  50.215  1.00  0.00     0.022 A 
HETATM   15  C18 UNL     1      26.328   2.959  51.182  1.00  0.00     0.105 A 
HETATM   16  N5  UNL     1      25.604   1.946  51.714  1.00  0.00    -0.359 N 
HETATM   17  C19 UNL     1      26.022   0.985  52.745  1.00  0.00     0.156 C 
HETATM   18  C20 UNL     1      24.416   2.019  51.081  1.00  0.00     0.045 A 
HETATM   19  C21 UNL     1      23.353   1.170  51.306  1.00  0.00     0.030 A 
HETATM   20  C22 UNL     1      22.208   1.378  50.576  1.00  0.00     0.003 A 
HETATM   21  C23 UNL     1      22.106   2.393  49.648  1.00  0.00     0.009 A 
HETATM   22  C24 UNL     1      23.213   3.185  49.493  1.00  0.00    -0.031 A 
HETATM   23  C25 UNL     1      24.380   3.050  50.169  1.00  0.00     0.012 A 
HETATM   24  H18 UNL     1      26.651   9.192  48.466  1.00  0.00     0.183 HD
ENDROOT
BRANCH   2  25
HETATM   25  N1  UNL     1      21.109   5.421  49.563  1.00  0.00    -0.386 N 
HETATM   26  C6  UNL     1      20.942   5.532  51.019  1.00  0.00     0.149 C 
BRANCH  25  27
HETATM   27  C7  UNL     1      19.756   5.307  49.058  1.00  0.00     0.148 C 
BRANCH  27  28
HETATM   28  C8  UNL     1      19.252   6.478  48.289  1.00  0.00     0.183 C 
BRANCH  28  29
HETATM   29  O2  UNL     1      18.823   7.557  49.013  1.00  0.00    -0.399 OA
HETATM   30  H12 UNL     1      19.474   7.742  49.742  1.00  0.00     0.209 HD
ENDBRANCH  28  29
ENDBRANCH  27  28
ENDBRANCH  25  27
ENDBRANCH   2  25
BRANCH   1  31
HETATM   31  C3  UNL     1      22.208   3.766  47.328  1.00  0.00    -0.057 A 
HETATM   32  C2  UNL     1      22.086   4.686  46.173  1.00  0.00     0.024 A 
HETATM   33  C1  UNL     1      21.343   4.022  45.275  1.00  0.00     0.010 A 
HETATM   34  O1  UNL     1      21.523   3.264  46.369  1.00  0.00     0.000 OA
ENDBRANCH   1  31
TORSDOF 5
ENDMDL
MODEL 3
REMARK VINA RESULT:      -7.5      3.130      6.822
REMARK  5 active torsions:
REMARK  status: ('A' for Active; 'I' for Inactive)
REMARK    1  A    between atoms: C3_3  and  C4_5 
REMARK    2  A    between atoms: C5_6  and  N1_7 
REMARK    3  A    between atoms: N1_7  and  C7_9 
REMARK    4  A    between atoms: C7_9  and  C8_10 
REMARK    5  A    between atoms: C8_10  and  O2_11 
ROOT
HETATM    1  C4  UNL     1      23.060   4.378  49.234  1.00  0.00     0.099 C 
HETATM    2  C5  UNL     1      22.539   4.930  50.461  1.00  0.00     0.020 C 
HETATM    3  C9  UNL     1      21.874   5.947  50.970  1.00  0.00     0.034 C 
HETATM    4  C10 UNL     1      21.221   7.211  50.523  1.00  0.00    -0.044 C 
HETATM    5  C11 UNL     1      20.505   6.516  49.394  1.00  0.00     0.049 C 
HETATM    6  C12 UNL     1      20.606   8.378  50.234  1.00  0.00     0.113 C 
HETATM    7  N2  UNL     1      20.481   8.909  48.889  1.00  0.00    -0.198 N 
HETATM    8  C13 UNL     1      21.611   8.523  48.089  1.00  0.00     0.726 A 
HETATM    9  N3  UNL     1      21.438   8.880  46.815  1.00  0.00    -0.075 NA
HETATM   10  C14 UNL     1      22.377   8.569  45.869  1.00  0.00     0.139 A 
HETATM   11  C15 UNL     1      23.464   7.872  46.413  1.00  0.00     0.053 A 
HETATM   12  C16 UNL     1      23.664   7.488  47.751  1.00  0.00     0.089 A 
HETATM   13  N4  UNL     1      22.666   7.863  48.544  1.00  0.00    -0.062 NA
HETATM   14  C17 UNL     1      24.855   6.764  48.120  1.00  0.00     0.022 A 
HETATM   15  C18 UNL     1      26.070   7.421  47.833  1.00  0.00     0.105 A 
HETATM   16  N5  UNL     1      27.128   6.663  48.204  1.00  0.00    -0.359 N 
HETATM   17  C19 UNL     1      28.557   6.986  48.073  1.00  0.00     0.156 C 
HETATM   18  C20 UNL     1      26.575   5.546  48.716  1.00  0.00     0.045 A 
HETATM   19  C21 UNL     1      27.285   4.479  49.225  1.00  0.00     0.030 A 
HETATM   20  C22 UNL     1      26.568   3.413  49.711  1.00  0.00     0.003 A 
HETATM   21  C23 UNL     1      25.189   3.392  49.701  1.00  0.00     0.009 A 
HETATM   22  C24 UNL     1      24.571   4.496  49.176  1.00  0.00    -0.031 A 
HETATM   23  C25 UNL     1      25.198   5.588  48.675  1.00  0.00     0.012 A 
HETATM   24  H18 UNL     1      19.639   9.443  48.775  1.00  0.00     0.183 HD
ENDROOT
BRANCH   2  25
HETATM   25  N1  UNL     1      22.802   4.172  51.665  1.00  0.00    -0.386 N 
HETATM   26  C6  UNL     1      23.525   4.896  52.721  1.00  0.00     0.149 C 
BRANCH  25  27
HETATM   27  C7  UNL     1      22.559   2.862  52.235  1.00  0.00     0.148 C 
BRANCH  27  28
HETATM   28  C8  UNL     1      21.134   2.433  52.286  1.00  0.00     0.183 C 
BRANCH  28  29
HETATM   29  O2  UNL     1      20.225   3.354  52.729  1.00  0.00    -0.399 OA
HETATM   30  H12 UNL     1      20.384   4.221  52.268  1.00  0.00     0.209 HD
ENDBRANCH  28  29
ENDBRANCH  27  28
ENDBRANCH  25  27
ENDBRANCH   2  25
BRANCH   1  31
HETATM   31  C3  UNL     1      22.637   3.004  48.918  1.00  0.00    -0.057 A 
HETATM   32  C2  UNL     1      21.185   2.821  48.684  1.00  0.00     0.024 A 
HETATM   33  C1  UNL     1      21.035   1.513  48.427  1.00  0.00     0.010 A 
HETATM   34  O1  UNL     1      22.330   1.789  48.647  1.00  0.00     0.000 OA
ENDBRANCH   1  31
TORSDOF 5
ENDMDL
MODEL 4
REMARK VINA RESULT:      -7.5      8.472     11.975
REMARK  5 active torsions:
REMARK  status: ('A' for Active; 'I' for Inactive)
REMARK    1  A    between atoms: C3_3  and  C4_5 
REMARK    2  A    between atoms: C5_6  and  N1_7 
REMARK    3  A    between atoms: N1_7  and  C7_9 
REMARK    4  A    between atoms: C7_9  and  C8_10 
REMARK    5  A    between atoms: C8_10  and  O2_11 
ROOT
HETATM    1  C4  UNL     1      31.213   8.285  46.142  1.00  0.00     0.099 C 
HETATM    2  C5  UNL     1      32.072   8.883  47.136  1.00  0.00     0.020 C 
HETATM    3  C9  UNL     1      33.067   8.640  47.964  1.00  0.00     0.034 C 
HETATM    4  C10 UNL     1      33.948   7.509  48.375  1.00  0.00    -0.044 C 
HETATM    5  C11 UNL     1      34.237   7.132  46.945  1.00  0.00     0.049 C 
HETATM    6  C12 UNL     1      34.795   6.559  48.828  1.00  0.00     0.113 C 
HETATM    7  N2  UNL     1      34.819   5.198  48.326  1.00  0.00    -0.198 N 
HETATM    8  C13 UNL     1      33.503   4.791  47.913  1.00  0.00     0.726 A 
HETATM    9  N3  UNL     1      33.539   3.599  47.316  1.00  0.00    -0.075 NA
HETATM   10  C14 UNL     1      32.398   3.040  46.805  1.00  0.00     0.139 A 
HETATM   11  C15 UNL     1      31.277   3.858  46.996  1.00  0.00     0.053 A 
HETATM   12  C16 UNL     1      31.221   5.116  47.624  1.00  0.00     0.089 A 
HETATM   13  N4  UNL     1      32.407   5.519  48.066  1.00  0.00    -0.062 NA
HETATM   14  C17 UNL     1      29.963   5.814  47.720  1.00  0.00     0.022 A 
HETATM   15  C18 UNL     1      28.941   5.117  48.398  1.00  0.00     0.105 A 
HETATM   16  N5  UNL     1      27.800   5.845  48.429  1.00  0.00    -0.359 N 
HETATM   17  C19 UNL     1      26.511   5.474  49.035  1.00  0.00     0.156 C 
HETATM   18  C20 UNL     1      28.112   6.982  47.777  1.00  0.00     0.045 A 
HETATM   19  C21 UNL     1      27.241   8.029  47.563  1.00  0.00     0.030 A 
HETATM   20  C22 UNL     1      27.716   9.121  46.877  1.00  0.00     0.003 A 
HETATM   21  C23 UNL     1      29.013   9.187  46.414  1.00  0.00     0.009 A 
HETATM   22  C24 UNL     1      29.804   8.099  46.674  1.00  0.00    -0.031 A 
HETATM   23  C25 UNL     1      29.418   6.984  47.340  1.00  0.00     0.012 A 
HETATM   24  H18 UNL     1      35.740   4.802  48.365  1.00  0.00     0.183 HD
ENDROOT
BRANCH   2  25
HETATM   25  N1  UNL     1      31.831  10.278  47.432  1.00  0.00    -0.386 N 
HETATM   26  C6  UNL     1      32.828  11.218  46.899  1.00  0.00     0.149 C 
BRANCH  25  27
HETATM   27  C7  UNL     1      30.865  11.127  48.100  1.00  0.00     0.148 C 
BRANCH  27  28
HETATM   28  C8  UNL     1      30.639  10.839  49.543  1.00  0.00     0.183 C 
BRANCH  28  29
HETATM   29  O2  UNL     1      29.909   9.721  49.846  1.00  0.00    -0.399 OA
HETATM   30  H12 UNL     1      30.438   9.138  50.453  1.00  0.00     0.209 HD
ENDBRANCH  28  29
ENDBRANCH  27  28
ENDBRANCH  25  27
ENDBRANCH   2  25
BRANCH   1  31
HETATM   31  C3  UNL     1      31.185   8.954  44.831  1.00  0.00    -0.057 A 
HETATM   32  C2  UNL     1      32.401   8.782  44.001  1.00  0.00     0.024 A 
HETATM   33  C1  UNL     1      32.157   9.472  42.877  1.00  0.00     0.010 A 
HETATM   34  O1  UNL     1      31.101   9.556  43.703  1.00  0.00     0.000 OA
ENDBRANCH   1  31
TORSDOF 5
ENDMDL
MODEL 5
REMARK VINA RESULT:      -7.3      2.030      5.200
REMARK  5 active torsions:
REMARK  status: ('A' for Active; 'I' for Inactive)
REMARK    1  A    between atoms: C3_3  and  C4_5 
REMARK    2  A    between atoms: C5_6  and  N1_7 
REMARK    3  A    between atoms: N1_7  and  C7_9 
REMARK    4  A    between atoms: C7_9  and  C8_10 
REMARK    5  A    between atoms: C8_10  and  O2_11 
ROOT
HETATM    1  C4  UNL     1      21.023   2.341  49.975  1.00  0.00     0.099 C 
HETATM    2  C5  UNL     1      20.907   3.642  50.588  1.00  0.00     0.020 C 
HETATM    3  C9  UNL     1      21.462   4.458  51.460  1.00  0.00     0.034 C 
HETATM    4  C10 UNL     1      22.631   4.501  52.386  1.00  0.00    -0.044 C 
HETATM    5  C11 UNL     1      23.575   4.016  51.317  1.00  0.00     0.049 C 
HETATM    6  C12 UNL     1      23.649   4.648  53.261  1.00  0.00     0.113 C 
HETATM    7  N2  UNL     1      24.681   3.649  53.469  1.00  0.00    -0.198 N 
HETATM    8  C13 UNL     1      24.151   2.329  53.262  1.00  0.00     0.726 A 
HETATM    9  N3  UNL     1      25.121   1.414  53.306  1.00  0.00    -0.075 NA
HETATM   10  C14 UNL     1      24.843   0.091  53.089  1.00  0.00     0.139 A 
HETATM   11  C15 UNL     1      23.483  -0.128  52.835  1.00  0.00     0.053 A 
HETATM   12  C16 UNL     1      22.448   0.822  52.786  1.00  0.00     0.089 A 
HETATM   13  N4  UNL     1      22.878   2.058  53.017  1.00  0.00    -0.062 NA
HETATM   14  C17 UNL     1      21.098   0.400  52.502  1.00  0.00     0.022 A 
HETATM   15  C18 UNL     1      20.565  -0.548  53.399  1.00  0.00     0.105 A 
HETATM   16  N5  UNL     1      19.303  -0.890  53.047  1.00  0.00    -0.359 N 
HETATM   17  C19 UNL     1      18.408  -1.844  53.719  1.00  0.00     0.156 C 
HETATM   18  C20 UNL     1      19.057  -0.160  51.942  1.00  0.00     0.045 A 
HETATM   19  C21 UNL     1      17.877  -0.187  51.229  1.00  0.00     0.030 A 
HETATM   20  C22 UNL     1      17.785   0.620  50.121  1.00  0.00     0.003 A 
HETATM   21  C23 UNL     1      18.823   1.434  49.720  1.00  0.00     0.009 A 
HETATM   22  C24 UNL     1      19.956   1.393  50.489  1.00  0.00    -0.031 A 
HETATM   23  C25 UNL     1      20.132   0.629  51.594  1.00  0.00     0.012 A 
HETATM   24  H18 UNL     1      25.559   4.066  53.718  1.00  0.00     0.183 HD
ENDROOT
BRANCH   2  25
HETATM   25  N1  UNL     1      19.775   4.443  50.177  1.00  0.00    -0.386 N 
HETATM   26  C6  UNL     1      18.624   4.423  51.091  1.00  0.00     0.149 C 
BRANCH  25  27
HETATM   27  C7  UNL     1      19.368   5.339  49.113  1.00  0.00     0.148 C 
BRANCH  27  28
HETATM   28  C8  UNL     1      18.215   4.881  48.288  1.00  0.00     0.183 C 
BRANCH  28  29
HETATM   29  O2  UNL     1      18.490   4.016  47.265  1.00  0.00    -0.399 OA
HETATM   30  H12 UNL     1      19.216   3.397  47.544  1.00  0.00     0.209 HD
ENDBRANCH  28  29
ENDBRANCH  27  28
ENDBRANCH  25  27
ENDBRANCH   2  25
BRANCH   1  31
HETATM   31  C3  UNL     1      21.060   2.326  48.503  1.00  0.00    -0.057 A 
HETATM   32  C2  UNL     1      22.117   3.158  47.882  1.00  0.00     0.024 A 
HETATM   33  C1  UNL     1      21.956   2.999  46.560  1.00  0.00     0.010 A 
HETATM   34  O1  UNL     1      21.042   2.271  47.223  1.00  0.00     0.000 OA
ENDBRANCH   1  31
TORSDOF 5
ENDMDL
MODEL 6
REMARK VINA RESULT:      -7.1      9.485     12.900
REMARK  5 active torsions:
REMARK  status: ('A' for Active; 'I' for Inactive)
REMARK    1  A    between atoms: C3_3  and  C4_5 
REMARK    2  A    between atoms: C5_6  and  N1_7 
REMARK    3  A    between atoms: N1_7  and  C7_9 
REMARK    4  A    between atoms: C7_9  and  C8_10 
REMARK    5  A    between atoms: C8_10  and  O2_11 
ROOT
HETATM    1  C4  UNL     1      32.224   8.449  47.300  1.00  0.00     0.099 C 
HETATM    2  C5  UNL     1      32.305   8.739  45.889  1.00  0.00     0.020 C 
HETATM    3  C9  UNL     1      32.078   9.665  44.980  1.00  0.00     0.034 C 
HETATM    4  C10 UNL     1      31.567  11.063  44.890  1.00  0.00    -0.044 C 
HETATM    5  C11 UNL     1      32.445  11.523  46.025  1.00  0.00     0.049 C 
HETATM    6  C12 UNL     1      31.116  12.320  44.690  1.00  0.00     0.113 C 
HETATM    7  N2  UNL     1      30.682  13.198  45.760  1.00  0.00    -0.198 N 
HETATM    8  C13 UNL     1      30.107  12.436  46.834  1.00  0.00     0.726 A 
HETATM    9  N3  UNL     1      29.839  13.217  47.883  1.00  0.00    -0.075 NA
HETATM   10  C14 UNL     1      29.325  12.686  49.035  1.00  0.00     0.139 A 
HETATM   11  C15 UNL     1      29.140  11.300  48.941  1.00  0.00     0.053 A 
HETATM   12  C16 UNL     1      29.415  10.462  47.846  1.00  0.00     0.089 A 
HETATM   13  N4  UNL     1      29.907  11.126  46.806  1.00  0.00    -0.062 NA
HETATM   14  C17 UNL     1      29.160   9.046  47.943  1.00  0.00     0.022 A 
HETATM   15  C18 UNL     1      27.825   8.696  48.235  1.00  0.00     0.105 A 
HETATM   16  N5  UNL     1      27.685   7.351  48.316  1.00  0.00    -0.359 N 
HETATM   17  C19 UNL     1      26.461   6.589  48.604  1.00  0.00     0.156 C 
HETATM   18  C20 UNL     1      28.922   6.873  48.077  1.00  0.00     0.045 A 
HETATM   19  C21 UNL     1      29.258   5.536  48.060  1.00  0.00     0.030 A 
HETATM   20  C22 UNL     1      30.568   5.213  47.800  1.00  0.00     0.003 A 
HETATM   21  C23 UNL     1      31.526   6.176  47.560  1.00  0.00     0.009 A 
HETATM   22  C24 UNL     1      31.099   7.477  47.599  1.00  0.00    -0.031 A 
HETATM   23  C25 UNL     1      29.830   7.884  47.848  1.00  0.00     0.012 A 
HETATM   24  H18 UNL     1      30.862  14.163  45.547  1.00  0.00     0.183 HD
ENDROOT
BRANCH   2  25
HETATM   25  N1  UNL     1      32.794   7.670  45.045  1.00  0.00    -0.386 N 
HETATM   26  C6  UNL     1      31.823   7.132  44.082  1.00  0.00     0.149 C 
BRANCH  25  27
HETATM   27  C7  UNL     1      34.003   6.913  44.790  1.00  0.00     0.148 C 
BRANCH  27  28
HETATM   28  C8  UNL     1      34.013   5.517  45.309  1.00  0.00     0.183 C 
BRANCH  28  29
HETATM   29  O2  UNL     1      34.817   5.262  46.387  1.00  0.00    -0.399 OA
HETATM   30  H12 UNL     1      35.175   6.120  46.739  1.00  0.00     0.209 HD
ENDBRANCH  28  29
ENDBRANCH  27  28
ENDBRANCH  25  27
ENDBRANCH   2  25
BRANCH   1  31
HETATM   31  C3  UNL     1      33.474   8.003  47.937  1.00  0.00    -0.057 A 
HETATM   32  C2  UNL     1      34.658   8.859  47.688  1.00  0.00     0.024 A 
HETATM   33  C1  UNL     1      35.664   8.264  48.347  1.00  0.00     0.010 A 
HETATM   34  O1  UNL     1      34.529   7.566  48.518  1.00  0.00     0.000 OA
ENDBRANCH   1  31
TORSDOF 5
ENDMDL
MODEL 7
REMARK VINA RESULT:      -7.0      7.872     11.379
REMARK  5 active torsions:
REMARK  status: ('A' for Active; 'I' for Inactive)
REMARK    1  A    between atoms: C3_3  and  C4_5 
REMARK    2  A    between atoms: C5_6  and  N1_7 
REMARK    3  A    between atoms: N1_7  and  C7_9 
REMARK    4  A    between atoms: C7_9  and  C8_10 
REMARK    5  A    between atoms: C8_10  and  O2_11 
ROOT
HETATM    1  C4  UNL     1      27.446   8.838  47.019  1.00  0.00     0.099 C 
HETATM    2  C5  UNL     1      27.353   9.775  48.113  1.00  0.00     0.020 C 
HETATM    3  C9  UNL     1      27.773  10.946  48.547  1.00  0.00     0.034 C 
HETATM    4  C10 UNL     1      28.657  12.065  48.111  1.00  0.00    -0.044 C 
HETATM    5  C11 UNL     1      28.028  12.110  46.742  1.00  0.00     0.049 C 
HETATM    6  C12 UNL     1      29.434  13.131  47.821  1.00  0.00     0.113 C 
HETATM    7  N2  UNL     1      30.175  13.272  46.582  1.00  0.00    -0.198 N 
HETATM    8  C13 UNL     1      30.581  11.984  46.089  1.00  0.00     0.726 A 
HETATM    9  N3  UNL     1      31.134  12.090  44.879  1.00  0.00    -0.075 NA
HETATM   10  C14 UNL     1      31.552  10.975  44.204  1.00  0.00     0.139 A 
HETATM   11  C15 UNL     1      31.325   9.799  44.931  1.00  0.00     0.053 A 
HETATM   12  C16 UNL     1      30.746   9.669  46.206  1.00  0.00     0.089 A 
HETATM   13  N4  UNL     1      30.393  10.839  46.728  1.00  0.00    -0.062 NA
HETATM   14  C17 UNL     1      30.589   8.362  46.794  1.00  0.00     0.022 A 
HETATM   15  C18 UNL     1      31.784   7.630  46.954  1.00  0.00     0.105 A 
HETATM   16  N5  UNL     1      31.537   6.417  47.502  1.00  0.00    -0.359 N 
HETATM   17  C19 UNL     1      32.508   5.360  47.825  1.00  0.00     0.156 C 
HETATM   18  C20 UNL     1      30.202   6.397  47.679  1.00  0.00     0.045 A 
HETATM   19  C21 UNL     1      29.495   5.342  48.216  1.00  0.00     0.030 A 
HETATM   20  C22 UNL     1      28.133   5.480  48.330  1.00  0.00     0.003 A 
HETATM   21  C23 UNL     1      27.478   6.625  47.928  1.00  0.00     0.009 A 
HETATM   22  C24 UNL     1      28.262   7.620  47.406  1.00  0.00    -0.031 A 
HETATM   23  C25 UNL     1      29.608   7.567  47.257  1.00  0.00     0.012 A 
HETATM   24  H18 UNL     1      30.266  14.234  46.309  1.00  0.00     0.183 HD
ENDROOT
BRANCH   2  25
HETATM   25  N1  UNL     1      26.520   9.376  49.226  1.00  0.00    -0.386 N 
HETATM   26  C6  UNL     1      27.214   9.240  50.515  1.00  0.00     0.149 C 
BRANCH  25  27
HETATM   27  C7  UNL     1      25.138   9.066  49.533  1.00  0.00     0.148 C 
BRANCH  27  28
HETATM   28  C8  UNL     1      24.915   7.832  50.335  1.00  0.00     0.183 C 
BRANCH  28  29
HETATM   29  O2  UNL     1      24.101   7.943  51.429  1.00  0.00    -0.399 OA
HETATM   30  H12 UNL     1      23.762   7.042  51.678  1.00  0.00     0.209 HD
ENDBRANCH  28  29
ENDBRANCH  27  28
ENDBRANCH  25  27
ENDBRANCH   2  25
BRANCH   1  31
HETATM   31  C3  UNL     1      26.168   8.431  46.412  1.00  0.00    -0.057 A 
HETATM   32  C2  UNL     1      26.087   8.574  44.939  1.00  0.00     0.024 A 
HETATM   33  C1  UNL     1      24.853   8.159  44.616  1.00  0.00     0.010 A 
HETATM   34  O1  UNL     1      25.035   8.061  45.943  1.00  0.00     0.000 OA
ENDBRANCH   1  31
TORSDOF 5
ENDMDL
MODEL 8
REMARK VINA RESULT:      -6.9      9.401     13.314
REMARK  5 active torsions:
REMARK  status: ('A' for Active; 'I' for Inactive)
REMARK    1  A    between atoms: C3_3  and  C4_5 
REMARK    2  A    between atoms: C5_6  and  N1_7 
REMARK    3  A    between atoms: N1_7  and  C7_9 
REMARK    4  A    between atoms: C7_9  and  C8_10 
REMARK    5  A    between atoms: C8_10  and  O2_11 
ROOT
HETATM    1  C4  UNL     1      32.702   6.163  46.679  1.00  0.00     0.099 C 
HETATM    2  C5  UNL     1      32.810   5.061  45.753  1.00  0.00     0.020 C 
HETATM    3  C9  UNL     1      33.046   4.750  44.495  1.00  0.00     0.034 C 
HETATM    4  C10 UNL     1      33.368   5.422  43.204  1.00  0.00    -0.044 C 
HETATM    5  C11 UNL     1      34.445   6.263  43.838  1.00  0.00     0.049 C 
HETATM    6  C12 UNL     1      33.655   5.922  41.982  1.00  0.00     0.113 C 
HETATM    7  N2  UNL     1      33.856   7.335  41.720  1.00  0.00    -0.198 N 
HETATM    8  C13 UNL     1      33.050   8.131  42.605  1.00  0.00     0.726 A 
HETATM    9  N3  UNL     1      33.336   9.428  42.473  1.00  0.00    -0.075 NA
HETATM   10  C14 UNL     1      32.713  10.362  43.256  1.00  0.00     0.139 A 
HETATM   11  C15 UNL     1      31.800   9.783  44.147  1.00  0.00     0.053 A 
HETATM   12  C16 UNL     1      31.486   8.421  44.299  1.00  0.00     0.089 A 
HETATM   13  N4  UNL     1      32.172   7.642  43.468  1.00  0.00    -0.062 NA
HETATM   14  C17 UNL     1      30.514   8.013  45.283  1.00  0.00     0.022 A 
HETATM   15  C18 UNL     1      29.232   8.581  45.130  1.00  0.00     0.105 A 
HETATM   16  N5  UNL     1      28.394   8.149  46.102  1.00  0.00    -0.359 N 
HETATM   17  C19 UNL     1      26.981   8.507  46.297  1.00  0.00     0.156 C 
HETATM   18  C20 UNL     1      29.150   7.322  46.851  1.00  0.00     0.045 A 
HETATM   19  C21 UNL     1      28.706   6.646  47.967  1.00  0.00     0.030 A 
HETATM   20  C22 UNL     1      29.605   5.839  48.621  1.00  0.00     0.003 A 
HETATM   21  C23 UNL     1      30.908   5.697  48.192  1.00  0.00     0.009 A 
HETATM   22  C24 UNL     1      31.258   6.409  47.075  1.00  0.00    -0.031 A 
HETATM   23  C25 UNL     1      30.438   7.226  46.371  1.00  0.00     0.012 A 
HETATM   24  H18 UNL     1      34.511   7.487  40.974  1.00  0.00     0.183 HD
ENDROOT
BRANCH   2  25
HETATM   25  N1  UNL     1      32.571   3.743  46.299  1.00  0.00    -0.386 N 
HETATM   26  C6  UNL     1      33.766   3.029  46.771  1.00  0.00     0.149 C 
BRANCH  25  27
HETATM   27  C7  UNL     1      31.479   2.832  46.582  1.00  0.00     0.148 C 
BRANCH  27  28
HETATM   28  C8  UNL     1      31.813   1.382  46.517  1.00  0.00     0.183 C 
BRANCH  28  29
HETATM   29  O2  UNL     1      30.897   0.561  45.920  1.00  0.00    -0.399 OA
HETATM   30  H12 UNL     1      31.361  -0.239  45.555  1.00  0.00     0.209 HD
ENDBRANCH  28  29
ENDBRANCH  27  28
ENDBRANCH  25  27
ENDBRANCH   2  25
BRANCH   1  31
HETATM   31  C3  UNL     1      33.559   6.084  47.873  1.00  0.00    -0.057 A 
HETATM   32  C2  UNL     1      34.940   6.594  47.703  1.00  0.00     0.024 A 
HETATM   33  C1  UNL     1      35.527   6.418  48.896  1.00  0.00     0.010 A 
HETATM   34  O1  UNL     1      34.254   5.991  48.945  1.00  0.00     0.000 OA
ENDBRANCH   1  31
TORSDOF 5
ENDMDL
MODEL 9
REMARK VINA RESULT:      -6.8      2.690      4.603
REMARK  5 active torsions:
REMARK  status: ('A' for Active; 'I' for Inactive)
REMARK    1  A    between atoms: C3_3  and  C4_5 
REMARK    2  A    between atoms: C5_6  and  N1_7 
REMARK    3  A    between atoms: N1_7  and  C7_9 
REMARK    4  A    between atoms: C7_9  and  C8_10 
REMARK    5  A    between atoms: C8_10  and  O2_11 
ROOT
HETATM    1  C4  UNL     1      22.766   6.251  48.788  1.00  0.00     0.099 C 
HETATM    2  C5  UNL     1      22.132   5.480  47.746  1.00  0.00     0.020 C 
HETATM    3  C9  UNL     1      21.700   4.277  47.428  1.00  0.00     0.034 C 
HETATM    4  C10 UNL     1      21.609   2.912  48.022  1.00  0.00    -0.044 C 
HETATM    5  C11 UNL     1      21.042   3.445  49.313  1.00  0.00     0.049 C 
HETATM    6  C12 UNL     1      21.480   1.640  48.456  1.00  0.00     0.113 C 
HETATM    7  N2  UNL     1      21.887   1.196  49.776  1.00  0.00    -0.198 N 
HETATM    8  C13 UNL     1      23.014   1.958  50.238  1.00  0.00     0.726 A 
HETATM    9  N3  UNL     1      23.303   1.660  51.506  1.00  0.00    -0.075 NA
HETATM   10  C14 UNL     1      24.318   2.304  52.161  1.00  0.00     0.139 A 
HETATM   11  C15 UNL     1      24.954   3.252  51.347  1.00  0.00     0.053 A 
HETATM   12  C16 UNL     1      24.664   3.578  50.010  1.00  0.00     0.089 A 
HETATM   13  N4  UNL     1      23.655   2.867  49.518  1.00  0.00    -0.062 NA
HETATM   14  C17 UNL     1      25.433   4.595  49.336  1.00  0.00     0.022 A 
HETATM   15  C18 UNL     1      26.821   4.351  49.270  1.00  0.00     0.105 A 
HETATM   16  N5  UNL     1      27.458   5.360  48.631  1.00  0.00    -0.359 N 
HETATM   17  C19 UNL     1      28.898   5.488  48.359  1.00  0.00     0.156 C 
HETATM   18  C20 UNL     1      26.474   6.221  48.304  1.00  0.00     0.045 A 
HETATM   19  C21 UNL     1      26.662   7.411  47.633  1.00  0.00     0.030 A 
HETATM   20  C22 UNL     1      25.551   8.178  47.376  1.00  0.00     0.003 A 
HETATM   21  C23 UNL     1      24.287   7.789  47.765  1.00  0.00     0.009 A 
HETATM   22  C24 UNL     1      24.199   6.592  48.427  1.00  0.00    -0.031 A 
HETATM   23  C25 UNL     1      25.239   5.776  48.722  1.00  0.00     0.012 A 
HETATM   24  H18 UNL     1      21.310   0.445  50.111  1.00  0.00     0.183 HD
ENDROOT
BRANCH   2  25
HETATM   25  N1  UNL     1      21.821   6.192  46.525  1.00  0.00    -0.386 N 
HETATM   26  C6  UNL     1      22.362   5.599  45.294  1.00  0.00     0.149 C 
BRANCH  25  27
HETATM   27  C7  UNL     1      21.088   7.355  46.067  1.00  0.00     0.148 C 
BRANCH  27  28
HETATM   28  C8  UNL     1      19.614   7.312  46.270  1.00  0.00     0.183 C 
BRANCH  28  29
HETATM   29  O2  UNL     1      18.878   6.644  45.329  1.00  0.00    -0.399 OA
HETATM   30  H12 UNL     1      19.490   6.131  44.737  1.00  0.00     0.209 HD
ENDBRANCH  28  29
ENDBRANCH  27  28
ENDBRANCH  25  27
ENDBRANCH   2  25
BRANCH   1  31
HETATM   31  C3  UNL     1      22.042   7.456  49.225  1.00  0.00    -0.057 A 
HETATM   32  C2  UNL     1      20.692   7.221  49.789  1.00  0.00     0.024 A 
HETATM   33  C1  UNL     1      20.229   8.440  50.105  1.00  0.00     0.010 A 
HETATM   34  O1  UNL     1      21.464   8.541  49.588  1.00  0.00     0.000 OA
ENDBRANCH   1  31
TORSDOF 5
ENDMDL
