MODEL 1
REMARK VINA RESULT:      -7.8      0.000      0.000
REMARK  4 active torsions:
REMARK  status: ('A' for Active; 'I' for Inactive)
REMARK    1  A    between atoms: C4_5  and  N1_6 
REMARK    2  A    between atoms: N1_6  and  C5_7 
REMARK    3  A    between atoms: C9_11  and  O1_12 
REMARK    4  A    between atoms: O1_12  and  C10_13 
ROOT
HETATM    1  C5  UNL     1      24.993   2.719  51.846  1.00  0.00     0.029 A 
HETATM    2  C6  UNL     1      23.841   2.628  51.075  1.00  0.00    -0.021 A 
HETATM    3  C7  UNL     1      23.196   2.467  49.807  1.00  0.00     0.013 C 
HETATM    4  C8  UNL     1      22.215   1.592  50.200  1.00  0.00     0.037 C 
HETATM    5  C9  UNL     1      22.048   1.176  51.630  1.00  0.00     0.066 C 
HETATM    6  C14 UNL     1      22.717   1.594  52.734  1.00  0.00     0.025 C 
HETATM    7  C15 UNL     1      23.748   2.664  52.555  1.00  0.00     0.096 A 
ENDROOT
BRANCH   1   8
HETATM    8  N1  UNL     1      26.377   2.745  52.110  1.00  0.00    -0.358 N 
HETATM    9  H3  UNL     1      27.051   3.495  51.989  1.00  0.00     0.166 HD
BRANCH   8  10
HETATM   10  C4  UNL     1      27.203   1.712  52.621  1.00  0.00     0.034 A 
HETATM   11  C3  UNL     1      28.335   2.088  53.321  1.00  0.00     0.032 A 
HETATM   12  C2  UNL     1      29.145   1.082  53.813  1.00  0.00     0.046 A 
HETATM   13  C1  UNL     1      28.838  -0.256  53.614  1.00  0.00     0.138 A 
HETATM   14  F1  UNL     1      29.617  -1.256  54.087  1.00  0.00    -0.204 F 
HETATM   15  C17 UNL     1      27.687  -0.596  52.903  1.00  0.00     0.074 A 
HETATM   16  C16 UNL     1      26.870   0.388  52.407  1.00  0.00     0.056 A 
HETATM   17 CL1  UNL     1      27.216  -2.251  52.598  1.00  0.00    -0.081 Cl
ENDBRANCH   8  10
ENDBRANCH   1   8
BRANCH   5  18
HETATM   18  O1  UNL     1      21.055   0.206  51.904  1.00  0.00    -0.344 OA
BRANCH  18  19
HETATM   19  C10 UNL     1      19.970   0.502  52.757  1.00  0.00     0.154 C 
HETATM   20  C11 UNL     1      18.931   1.170  51.842  1.00  0.00     0.061 C 
HETATM   21  C12 UNL     1      18.321  -0.110  51.253  1.00  0.00     0.170 C 
HETATM   22  O2  UNL     1      18.153  -0.938  52.359  1.00  0.00    -0.389 OA
HETATM   23  C13 UNL     1      19.201  -0.692  53.219  1.00  0.00     0.200 C 
ENDBRANCH  18  19
ENDBRANCH   5  18
TORSDOF 4
ENDMDL
MODEL 2
REMARK VINA RESULT:      -7.7      4.968      8.621
REMARK  4 active torsions:
REMARK  status: ('A' for Active; 'I' for Inactive)
REMARK    1  A    between atoms: C4_5  and  N1_6 
REMARK    2  A    between atoms: N1_6  and  C5_7 
REMARK    3  A    between atoms: C9_11  and  O1_12 
REMARK    4  A    between atoms: O1_12  and  C10_13 
ROOT
HETATM    1  C5  UNL     1      20.930  -0.456  53.154  1.00  0.00     0.029 A 
HETATM    2  C6  UNL     1      21.839   0.165  52.306  1.00  0.00    -0.021 A 
HETATM    3  C7  UNL     1      22.193   1.232  51.420  1.00  0.00     0.013 C 
HETATM    4  C8  UNL     1      23.470   1.443  51.873  1.00  0.00     0.037 C 
HETATM    5  C9  UNL     1      24.088   0.584  52.935  1.00  0.00     0.066 C 
HETATM    6  C14 UNL     1      23.590  -0.517  53.553  1.00  0.00     0.025 C 
HETATM    7  C15 UNL     1      22.251  -1.014  53.107  1.00  0.00     0.096 A 
ENDROOT
BRANCH   1   8
HETATM    8  N1  UNL     1      19.715  -0.633  53.845  1.00  0.00    -0.358 N 
HETATM    9  H3  UNL     1      19.453  -0.360  54.787  1.00  0.00     0.166 HD
BRANCH   8  10
HETATM   10  C4  UNL     1      18.521  -1.250  53.394  1.00  0.00     0.034 A 
HETATM   11  C3  UNL     1      17.713  -0.525  52.537  1.00  0.00     0.032 A 
HETATM   12  C2  UNL     1      16.544  -1.122  52.103  1.00  0.00     0.046 A 
HETATM   13  C1  UNL     1      16.191  -2.401  52.511  1.00  0.00     0.138 A 
HETATM   14  F1  UNL     1      15.052  -3.003  52.098  1.00  0.00    -0.204 F 
HETATM   15  C17 UNL     1      17.032  -3.101  53.375  1.00  0.00     0.074 A 
HETATM   16  C16 UNL     1      18.196  -2.525  53.817  1.00  0.00     0.056 A 
HETATM   17 CL1  UNL     1      16.673  -4.713  53.946  1.00  0.00    -0.081 Cl
ENDBRANCH   8  10
ENDBRANCH   1   8
BRANCH   5  18
HETATM   18  O1  UNL     1      25.381   0.945  53.381  1.00  0.00    -0.344 OA
BRANCH  18  19
HETATM   19  C10 UNL     1      26.312  -0.039  53.778  1.00  0.00     0.154 C 
HETATM   20  C11 UNL     1      27.494   0.135  52.812  1.00  0.00     0.061 C 
HETATM   21  C12 UNL     1      28.183   1.301  53.536  1.00  0.00     0.170 C 
HETATM   22  O2  UNL     1      28.156   0.923  54.876  1.00  0.00    -0.389 OA
HETATM   23  C13 UNL     1      26.982   0.234  55.085  1.00  0.00     0.200 C 
ENDBRANCH  18  19
ENDBRANCH   5  18
TORSDOF 4
ENDMDL
MODEL 3
REMARK VINA RESULT:      -7.7      5.272      7.565
REMARK  4 active torsions:
REMARK  status: ('A' for Active; 'I' for Inactive)
REMARK    1  A    between atoms: C4_5  and  N1_6 
REMARK    2  A    between atoms: N1_6  and  C5_7 
REMARK    3  A    between atoms: C9_11  and  O1_12 
REMARK    4  A    between atoms: O1_12  and  C10_13 
ROOT
HETATM    1  C5  UNL     1      25.922   3.462  50.720  1.00  0.00     0.029 A 
HETATM    2  C6  UNL     1      25.402   4.267  49.714  1.00  0.00    -0.021 A 
HETATM    3  C7  UNL     1      24.414   5.186  49.235  1.00  0.00     0.013 C 
HETATM    4  C8  UNL     1      25.258   6.059  48.595  1.00  0.00     0.037 C 
HETATM    5  C9  UNL     1      26.733   5.812  48.502  1.00  0.00     0.066 C 
HETATM    6  C14 UNL     1      27.459   4.746  48.924  1.00  0.00     0.025 C 
HETATM    7  C15 UNL     1      26.714   3.599  49.533  1.00  0.00     0.096 A 
ENDROOT
BRANCH   1   8
HETATM    8  N1  UNL     1      25.993   2.863  51.994  1.00  0.00    -0.358 N 
HETATM    9  H3  UNL     1      25.459   3.054  52.836  1.00  0.00     0.166 HD
BRANCH   8  10
HETATM   10  C4  UNL     1      26.845   1.821  52.438  1.00  0.00     0.034 A 
HETATM   11  C3  UNL     1      28.014   2.184  53.082  1.00  0.00     0.032 A 
HETATM   12  C2  UNL     1      28.850   1.169  53.508  1.00  0.00     0.046 A 
HETATM   13  C1  UNL     1      28.532  -0.166  53.299  1.00  0.00     0.138 A 
HETATM   14  F1  UNL     1      29.336  -1.174  53.707  1.00  0.00    -0.204 F 
HETATM   15  C17 UNL     1      27.344  -0.492  52.646  1.00  0.00     0.074 A 
HETATM   16  C16 UNL     1      26.501   0.501  52.215  1.00  0.00     0.056 A 
HETATM   17 CL1  UNL     1      26.857  -2.141  52.333  1.00  0.00    -0.081 Cl
ENDBRANCH   8  10
ENDBRANCH   1   8
BRANCH   5  18
HETATM   18  O1  UNL     1      27.515   6.820  47.890  1.00  0.00    -0.344 OA
BRANCH  18  19
HETATM   19  C10 UNL     1      28.812   7.116  48.361  1.00  0.00     0.154 C 
HETATM   20  C11 UNL     1      29.684   7.150  47.095  1.00  0.00     0.061 C 
HETATM   21  C12 UNL     1      29.349   8.582  46.651  1.00  0.00     0.170 C 
HETATM   22  O2  UNL     1      29.431   9.322  47.827  1.00  0.00    -0.389 OA
HETATM   23  C13 UNL     1      28.988   8.516  48.852  1.00  0.00     0.200 C 
ENDBRANCH  18  19
ENDBRANCH   5  18
TORSDOF 4
ENDMDL
MODEL 4
REMARK VINA RESULT:      -7.6      5.488      7.620
REMARK  4 active torsions:
REMARK  status: ('A' for Active; 'I' for Inactive)
REMARK    1  A    between atoms: C4_5  and  N1_6 
REMARK    2  A    between atoms: N1_6  and  C5_7 
REMARK    3  A    between atoms: C9_11  and  O1_12 
REMARK    4  A    between atoms: O1_12  and  C10_13 
ROOT
HETATM    1  C5  UNL     1      26.420   3.899  50.064  1.00  0.00     0.029 A 
HETATM    2  C6  UNL     1      25.553   4.620  49.252  1.00  0.00    -0.021 A 
HETATM    3  C7  UNL     1      24.252   5.150  48.973  1.00  0.00     0.013 C 
HETATM    4  C8  UNL     1      24.640   6.396  48.549  1.00  0.00     0.037 C 
HETATM    5  C9  UNL     1      26.083   6.779  48.423  1.00  0.00     0.066 C 
HETATM    6  C14 UNL     1      27.196   6.025  48.610  1.00  0.00     0.025 C 
HETATM    7  C15 UNL     1      27.004   4.579  48.945  1.00  0.00     0.096 A 
ENDROOT
BRANCH   1   8
HETATM    8  N1  UNL     1      26.814   3.130  51.177  1.00  0.00    -0.358 N 
HETATM    9  H3  UNL     1      27.661   3.176  51.735  1.00  0.00     0.166 HD
BRANCH   8  10
HETATM   10  C4  UNL     1      26.117   2.075  51.818  1.00  0.00     0.034 A 
HETATM   11  C3  UNL     1      24.880   2.366  52.362  1.00  0.00     0.032 A 
HETATM   12  C2  UNL     1      24.202   1.340  52.994  1.00  0.00     0.046 A 
HETATM   13  C1  UNL     1      24.741   0.065  53.082  1.00  0.00     0.138 A 
HETATM   14  F1  UNL     1      24.095  -0.953  53.696  1.00  0.00    -0.204 F 
HETATM   15  C17 UNL     1      25.992  -0.190  52.520  1.00  0.00     0.074 A 
HETATM   16  C16 UNL     1      26.680   0.814  51.889  1.00  0.00     0.056 A 
HETATM   17 CL1  UNL     1      26.754  -1.762  52.581  1.00  0.00    -0.081 Cl
ENDBRANCH   8  10
ENDBRANCH   1   8
BRANCH   5  18
HETATM   18  O1  UNL     1      26.363   8.117  48.055  1.00  0.00    -0.344 OA
BRANCH  18  19
HETATM   19  C10 UNL     1      25.875   9.196  48.823  1.00  0.00     0.154 C 
HETATM   20  C11 UNL     1      26.588   9.059  50.177  1.00  0.00     0.061 C 
HETATM   21  C12 UNL     1      27.911   9.733  49.783  1.00  0.00     0.170 C 
HETATM   22  O2  UNL     1      27.510  10.867  49.082  1.00  0.00    -0.389 OA
HETATM   23  C13 UNL     1      26.367  10.537  48.388  1.00  0.00     0.200 C 
ENDBRANCH  18  19
ENDBRANCH   5  18
TORSDOF 4
ENDMDL
MODEL 5
REMARK VINA RESULT:      -7.5      4.717      6.859
REMARK  4 active torsions:
REMARK  status: ('A' for Active; 'I' for Inactive)
REMARK    1  A    between atoms: C4_5  and  N1_6 
REMARK    2  A    between atoms: N1_6  and  C5_7 
REMARK    3  A    between atoms: C9_11  and  O1_12 
REMARK    4  A    between atoms: O1_12  and  C10_13 
ROOT
HETATM    1  C5  UNL     1      26.082   3.060  51.118  1.00  0.00     0.029 A 
HETATM    2  C6  UNL     1      25.290   3.600  50.112  1.00  0.00    -0.021 A 
HETATM    3  C7  UNL     1      24.038   4.119  49.652  1.00  0.00     0.013 C 
HETATM    4  C8  UNL     1      24.523   5.189  48.942  1.00  0.00     0.037 C 
HETATM    5  C9  UNL     1      25.992   5.438  48.786  1.00  0.00     0.066 C 
HETATM    6  C14 UNL     1      27.044   4.691  49.207  1.00  0.00     0.025 C 
HETATM    7  C15 UNL     1      26.742   3.393  49.890  1.00  0.00     0.096 A 
ENDROOT
BRANCH   1   8
HETATM    8  N1  UNL     1      26.392   2.580  52.406  1.00  0.00    -0.358 N 
HETATM    9  H3  UNL     1      26.071   2.896  53.316  1.00  0.00     0.166 HD
BRANCH   8  10
HETATM   10  C4  UNL     1      27.247   1.510  52.772  1.00  0.00     0.034 A 
HETATM   11  C3  UNL     1      28.456   1.833  53.361  1.00  0.00     0.032 A 
HETATM   12  C2  UNL     1      29.295   0.791  53.711  1.00  0.00     0.046 A 
HETATM   13  C1  UNL     1      28.940  -0.531  53.481  1.00  0.00     0.138 A 
HETATM   14  F1  UNL     1      29.746  -1.564  53.816  1.00  0.00    -0.204 F 
HETATM   15  C17 UNL     1      27.712  -0.817  52.885  1.00  0.00     0.074 A 
HETATM   16  C16 UNL     1      26.866   0.203  52.531  1.00  0.00     0.056 A 
HETATM   17 CL1  UNL     1      27.178  -2.447  52.552  1.00  0.00    -0.081 Cl
ENDBRANCH   8  10
ENDBRANCH   1   8
BRANCH   5  18
HETATM   18  O1  UNL     1      26.375   6.616  48.103  1.00  0.00    -0.344 OA
BRANCH  18  19
HETATM   19  C10 UNL     1      27.549   7.312  48.461  1.00  0.00     0.154 C 
HETATM   20  C11 UNL     1      27.961   8.058  47.182  1.00  0.00     0.061 C 
HETATM   21  C12 UNL     1      27.017   9.260  47.330  1.00  0.00     0.170 C 
HETATM   22  O2  UNL     1      27.145   9.620  48.668  1.00  0.00    -0.389 OA
HETATM   23  C13 UNL     1      27.330   8.461  49.390  1.00  0.00     0.200 C 
ENDBRANCH  18  19
ENDBRANCH   5  18
TORSDOF 4
ENDMDL
MODEL 6
REMARK VINA RESULT:      -7.5      2.455      3.434
REMARK  4 active torsions:
REMARK  status: ('A' for Active; 'I' for Inactive)
REMARK    1  A    between atoms: C4_5  and  N1_6 
REMARK    2  A    between atoms: N1_6  and  C5_7 
REMARK    3  A    between atoms: C9_11  and  O1_12 
REMARK    4  A    between atoms: O1_12  and  C10_13 
ROOT
HETATM    1  C5  UNL     1      23.830  -0.612  53.853  1.00  0.00     0.029 A 
HETATM    2  C6  UNL     1      22.447  -0.739  53.894  1.00  0.00    -0.021 A 
HETATM    3  C7  UNL     1      21.242  -1.061  54.598  1.00  0.00     0.013 C 
HETATM    4  C8  UNL     1      20.477  -0.011  54.159  1.00  0.00     0.037 C 
HETATM    5  C9  UNL     1      20.986   0.978  53.155  1.00  0.00     0.066 C 
HETATM    6  C14 UNL     1      22.165   0.997  52.483  1.00  0.00     0.025 C 
HETATM    7  C15 UNL     1      23.107  -0.145  52.706  1.00  0.00     0.096 A 
ENDROOT
BRANCH   1   8
HETATM    8  N1  UNL     1      25.151  -0.660  54.342  1.00  0.00    -0.358 N 
HETATM    9  H3  UNL     1      25.595  -1.335  54.957  1.00  0.00     0.166 HD
BRANCH   8  10
HETATM   10  C4  UNL     1      26.221   0.237  54.097  1.00  0.00     0.034 A 
HETATM   11  C3  UNL     1      25.918   1.584  54.020  1.00  0.00     0.032 A 
HETATM   12  C2  UNL     1      26.960   2.459  53.773  1.00  0.00     0.046 A 
HETATM   13  C1  UNL     1      28.260   2.007  53.607  1.00  0.00     0.138 A 
HETATM   14  F1  UNL     1      29.293   2.846  53.364  1.00  0.00    -0.204 F 
HETATM   15  C17 UNL     1      28.526   0.640  53.692  1.00  0.00     0.074 A 
HETATM   16  C16 UNL     1      27.507  -0.244  53.936  1.00  0.00     0.056 A 
HETATM   17 CL1  UNL     1      30.129  -0.027  53.495  1.00  0.00    -0.081 Cl
ENDBRANCH   8  10
ENDBRANCH   1   8
BRANCH   5  18
HETATM   18  O1  UNL     1      20.139   2.066  52.837  1.00  0.00    -0.344 OA
BRANCH  18  19
HETATM   19  C10 UNL     1      20.020   2.528  51.509  1.00  0.00     0.154 C 
HETATM   20  C11 UNL     1      18.847   1.726  50.925  1.00  0.00     0.061 C 
HETATM   21  C12 UNL     1      17.706   2.585  51.491  1.00  0.00     0.170 C 
HETATM   22  O2  UNL     1      18.121   3.891  51.245  1.00  0.00    -0.389 OA
HETATM   23  C13 UNL     1      19.492   3.919  51.382  1.00  0.00     0.200 C 
ENDBRANCH  18  19
ENDBRANCH   5  18
TORSDOF 4
ENDMDL
MODEL 7
REMARK VINA RESULT:      -7.4      5.789      7.973
REMARK  4 active torsions:
REMARK  status: ('A' for Active; 'I' for Inactive)
REMARK    1  A    between atoms: C4_5  and  N1_6 
REMARK    2  A    between atoms: N1_6  and  C5_7 
REMARK    3  A    between atoms: C9_11  and  O1_12 
REMARK    4  A    between atoms: O1_12  and  C10_13 
ROOT
HETATM    1  C5  UNL     1      26.581   3.783  50.085  1.00  0.00     0.029 A 
HETATM    2  C6  UNL     1      25.802   4.591  49.266  1.00  0.00    -0.021 A 
HETATM    3  C7  UNL     1      24.576   5.278  48.991  1.00  0.00     0.013 C 
HETATM    4  C8  UNL     1      25.114   6.454  48.531  1.00  0.00     0.037 C 
HETATM    5  C9  UNL     1      26.593   6.644  48.377  1.00  0.00     0.066 C 
HETATM    6  C14 UNL     1      27.602   5.756  48.569  1.00  0.00     0.025 C 
HETATM    7  C15 UNL     1      27.230   4.356  48.942  1.00  0.00     0.096 A 
ENDROOT
BRANCH   1   8
HETATM    8  N1  UNL     1      26.890   2.995  51.212  1.00  0.00    -0.358 N 
HETATM    9  H3  UNL     1      27.715   2.997  51.803  1.00  0.00     0.166 HD
BRANCH   8  10
HETATM   10  C4  UNL     1      26.115   1.978  51.823  1.00  0.00     0.034 A 
HETATM   11  C3  UNL     1      26.757   0.798  52.151  1.00  0.00     0.032 A 
HETATM   12  C2  UNL     1      26.000  -0.199  52.740  1.00  0.00     0.046 A 
HETATM   13  C1  UNL     1      24.647  -0.025  52.992  1.00  0.00     0.138 A 
HETATM   14  F1  UNL     1      23.889  -0.987  53.567  1.00  0.00    -0.204 F 
HETATM   15  C17 UNL     1      24.035   1.180  52.647  1.00  0.00     0.074 A 
HETATM   16  C16 UNL     1      24.769   2.180  52.062  1.00  0.00     0.056 A 
HETATM   17 CL1  UNL     1      22.338   1.493  52.922  1.00  0.00    -0.081 Cl
ENDBRANCH   8  10
ENDBRANCH   1   8
BRANCH   5  18
HETATM   18  O1  UNL     1      27.037   7.925  47.972  1.00  0.00    -0.344 OA
BRANCH  18  19
HETATM   19  C10 UNL     1      28.072   8.585  48.667  1.00  0.00     0.154 C 
HETATM   20  C11 UNL     1      28.433   9.783  47.775  1.00  0.00     0.061 C 
HETATM   21  C12 UNL     1      27.312  10.727  48.232  1.00  0.00     0.170 C 
HETATM   22  O2  UNL     1      27.313  10.598  49.618  1.00  0.00    -0.389 OA
HETATM   23  C13 UNL     1      27.633   9.290  49.909  1.00  0.00     0.200 C 
ENDBRANCH  18  19
ENDBRANCH   5  18
TORSDOF 4
ENDMDL
MODEL 8
REMARK VINA RESULT:      -7.4      4.591      6.740
REMARK  4 active torsions:
REMARK  status: ('A' for Active; 'I' for Inactive)
REMARK    1  A    between atoms: C4_5  and  N1_6 
REMARK    2  A    between atoms: N1_6  and  C5_7 
REMARK    3  A    between atoms: C9_11  and  O1_12 
REMARK    4  A    between atoms: O1_12  and  C10_13 
ROOT
HETATM    1  C5  UNL     1      23.227   4.442  52.246  1.00  0.00     0.029 A 
HETATM    2  C6  UNL     1      22.909   3.095  52.377  1.00  0.00    -0.021 A 
HETATM    3  C7  UNL     1      22.149   1.947  51.984  1.00  0.00     0.013 C 
HETATM    4  C8  UNL     1      23.172   1.032  51.981  1.00  0.00     0.037 C 
HETATM    5  C9  UNL     1      24.562   1.393  52.408  1.00  0.00     0.066 C 
HETATM    6  C14 UNL     1      25.035   2.563  52.907  1.00  0.00     0.025 C 
HETATM    7  C15 UNL     1      24.052   3.669  53.128  1.00  0.00     0.096 A 
ENDROOT
BRANCH   1   8
HETATM    8  N1  UNL     1      23.145   5.748  51.722  1.00  0.00    -0.358 N 
HETATM    9  H3  UNL     1      22.407   6.440  51.806  1.00  0.00     0.166 HD
BRANCH   8  10
HETATM   10  C4  UNL     1      24.089   6.445  50.927  1.00  0.00     0.034 A 
HETATM   11  C3  UNL     1      23.989   7.823  50.881  1.00  0.00     0.032 A 
HETATM   12  C2  UNL     1      24.904   8.505  50.100  1.00  0.00     0.046 A 
HETATM   13  C1  UNL     1      25.886   7.834  49.386  1.00  0.00     0.138 A 
HETATM   14  F1  UNL     1      26.791   8.481  48.616  1.00  0.00    -0.204 F 
HETATM   15  C17 UNL     1      25.955   6.442  49.458  1.00  0.00     0.074 A 
HETATM   16  C16 UNL     1      25.057   5.749  50.227  1.00  0.00     0.056 A 
HETATM   17 CL1  UNL     1      27.153   5.508  48.594  1.00  0.00    -0.081 Cl
ENDBRANCH   8  10
ENDBRANCH   1   8
BRANCH   5  18
HETATM   18  O1  UNL     1      25.552   0.390  52.286  1.00  0.00    -0.344 OA
BRANCH  18  19
HETATM   19  C10 UNL     1      25.625  -0.672  53.213  1.00  0.00     0.154 C 
HETATM   20  C11 UNL     1      26.773  -1.555  52.700  1.00  0.00     0.061 C 
HETATM   21  C12 UNL     1      27.936  -0.748  53.296  1.00  0.00     0.170 C 
HETATM   22  O2  UNL     1      27.518  -0.471  54.594  1.00  0.00    -0.389 OA
HETATM   23  C13 UNL     1      26.153  -0.287  54.556  1.00  0.00     0.200 C 
ENDBRANCH  18  19
ENDBRANCH   5  18
TORSDOF 4
ENDMDL
MODEL 9
REMARK VINA RESULT:      -7.4      5.693      8.013
REMARK  4 active torsions:
REMARK  status: ('A' for Active; 'I' for Inactive)
REMARK    1  A    between atoms: C4_5  and  N1_6 
REMARK    2  A    between atoms: N1_6  and  C5_7 
REMARK    3  A    between atoms: C9_11  and  O1_12 
REMARK    4  A    between atoms: O1_12  and  C10_13 
ROOT
HETATM    1  C5  UNL     1      25.830   3.704  50.474  1.00  0.00     0.029 A 
HETATM    2  C6  UNL     1      25.571   4.682  49.521  1.00  0.00    -0.021 A 
HETATM    3  C7  UNL     1      24.875   5.858  49.095  1.00  0.00     0.013 C 
HETATM    4  C8  UNL     1      25.938   6.516  48.529  1.00  0.00     0.037 C 
HETATM    5  C9  UNL     1      27.299   5.895  48.438  1.00  0.00     0.066 C 
HETATM    6  C14 UNL     1      27.705   4.650  48.792  1.00  0.00     0.025 C 
HETATM    7  C15 UNL     1      26.667   3.704  49.309  1.00  0.00     0.096 A 
ENDROOT
BRANCH   1   8
HETATM    8  N1  UNL     1      25.702   3.027  51.703  1.00  0.00    -0.358 N 
HETATM    9  H3  UNL     1      25.032   3.158  52.454  1.00  0.00     0.166 HD
BRANCH   8  10
HETATM   10  C4  UNL     1      26.491   1.968  52.218  1.00  0.00     0.034 A 
HETATM   11  C3  UNL     1      26.167   0.682  51.825  1.00  0.00     0.032 A 
HETATM   12  C2  UNL     1      26.930  -0.353  52.333  1.00  0.00     0.046 A 
HETATM   13  C1  UNL     1      27.982  -0.115  53.205  1.00  0.00     0.138 A 
HETATM   14  F1  UNL     1      28.741  -1.113  53.714  1.00  0.00    -0.204 F 
HETATM   15  C17 UNL     1      28.279   1.196  53.578  1.00  0.00     0.074 A 
HETATM   16  C16 UNL     1      27.534   2.236  53.085  1.00  0.00     0.056 A 
HETATM   17 CL1  UNL     1      29.582   1.597  54.672  1.00  0.00    -0.081 Cl
ENDBRANCH   8  10
ENDBRANCH   1   8
BRANCH   5  18
HETATM   18  O1  UNL     1      28.336   6.698  47.908  1.00  0.00    -0.344 OA
BRANCH  18  19
HETATM   19  C10 UNL     1      28.114   8.057  47.599  1.00  0.00     0.154 C 
HETATM   20  C11 UNL     1      28.916   8.830  48.657  1.00  0.00     0.061 C 
HETATM   21  C12 UNL     1      30.292   8.739  47.981  1.00  0.00     0.170 C 
HETATM   22  O2  UNL     1      30.028   9.041  46.648  1.00  0.00    -0.389 OA
HETATM   23  C13 UNL     1      28.785   8.526  46.349  1.00  0.00     0.200 C 
ENDBRANCH  18  19
ENDBRANCH   5  18
TORSDOF 4
ENDMDL
