MODEL 1
REMARK VINA RESULT:      -7.4      0.000      0.000
REMARK  7 active torsions:
REMARK  status: ('A' for Active; 'I' for Inactive)
REMARK    1  A    between atoms: O1_2  and  C2_3 
REMARK    2  A    between atoms: C2_3  and  O2_4 
REMARK    3  A    between atoms: O2_4  and  C3_5 
REMARK    4  A    between atoms: C3_5  and  C4_6 
REMARK    5  A    between atoms: C7_10  and  N1_11 
REMARK    6  A    between atoms: N1_11  and  C8_12 
REMARK    7  A    between atoms: C13_19  and  O4_20 
ROOT
HETATM    1  N1  UNL     1      25.494   3.629  49.393  1.00  0.00    -0.364 N 
HETATM    2  H12 UNL     1      25.497   2.990  48.574  1.00  0.00     0.162 HD
ENDROOT
BRANCH   1   3
HETATM    3  C7  UNL     1      25.333   3.062  50.710  1.00  0.00     0.130 C 
HETATM    4  C6  UNL     1      23.954   2.448  50.822  1.00  0.00     0.203 C 
HETATM    5  O3  UNL     1      23.569   2.394  52.208  1.00  0.00    -0.360 OA
HETATM    6  C5  UNL     1      24.336   1.716  53.176  1.00  0.00     0.143 C 
HETATM    7  C4  UNL     1      25.536   1.183  53.286  1.00  0.00    -0.013 C 
HETATM    8  C17 UNL     1      26.409   1.269  52.078  1.00  0.00     0.009 C 
HETATM    9  C16 UNL     1      26.390   2.028  50.960  1.00  0.00     0.001 C 
BRANCH   7  10
HETATM   10  C3  UNL     1      26.340   0.479  54.297  1.00  0.00     0.211 C 
BRANCH  10  11
HETATM   11  O2  UNL     1      27.484   1.084  54.664  1.00  0.00    -0.362 OA
BRANCH  11  12
HETATM   12  C2  UNL     1      28.589   0.335  54.915  1.00  0.00     0.337 C 
BRANCH  12  13
HETATM   13  O1  UNL     1      28.478  -0.889  54.217  1.00  0.00    -0.372 OA
HETATM   14  C1  UNL     1      29.653  -1.129  53.490  1.00  0.00     0.204 C 
ENDBRANCH  12  13
ENDBRANCH  11  12
ENDBRANCH  10  11
ENDBRANCH   7  10
ENDBRANCH   1   3
BRANCH   1  15
HETATM   15  C8  UNL     1      25.640   5.035  49.305  1.00  0.00     0.138 A 
HETATM   16  N2  UNL     1      24.612   5.845  49.609  1.00  0.00    -0.224 NA
HETATM   17  C9  UNL     1      24.697   7.184  49.543  1.00  0.00     0.235 A 
HETATM   18  N3  UNL     1      25.842   7.816  49.159  1.00  0.00    -0.241 NA
HETATM   19  C10 UNL     1      26.924   7.060  48.835  1.00  0.00     0.072 A 
HETATM   20  C11 UNL     1      28.102   7.661  48.442  1.00  0.00     0.035 A 
HETATM   21  C15 UNL     1      26.790   5.691  48.918  1.00  0.00     0.041 A 
HETATM   22  C12 UNL     1      29.209   6.899  48.110  1.00  0.00     0.039 A 
HETATM   23  C13 UNL     1      29.083   5.528  48.191  1.00  0.00     0.066 A 
HETATM   24  C14 UNL     1      27.890   4.966  48.589  1.00  0.00     0.054 A 
BRANCH  23  25
HETATM   25  O4  UNL     1      30.242   4.831  47.842  1.00  0.00    -0.361 OA
HETATM   26  H16 UNL     1      30.544   4.112  48.513  1.00  0.00     0.217 HD
ENDBRANCH  23  25
ENDBRANCH   1  15
TORSDOF 7
ENDMDL
MODEL 2
REMARK VINA RESULT:      -7.4      4.653      7.817
REMARK  7 active torsions:
REMARK  status: ('A' for Active; 'I' for Inactive)
REMARK    1  A    between atoms: O1_2  and  C2_3 
REMARK    2  A    between atoms: C2_3  and  O2_4 
REMARK    3  A    between atoms: O2_4  and  C3_5 
REMARK    4  A    between atoms: C3_5  and  C4_6 
REMARK    5  A    between atoms: C7_10  and  N1_11 
REMARK    6  A    between atoms: N1_11  and  C8_12 
REMARK    7  A    between atoms: C13_19  and  O4_20 
ROOT
HETATM    1  N1  UNL     1      21.859   0.975  52.914  1.00  0.00    -0.364 N 
HETATM    2  H12 UNL     1      21.585   1.085  53.910  1.00  0.00     0.162 HD
ENDROOT
BRANCH   1   3
HETATM    3  C7  UNL     1      23.253   0.772  52.600  1.00  0.00     0.130 C 
HETATM    4  C6  UNL     1      23.979   2.097  52.678  1.00  0.00     0.203 C 
HETATM    5  O3  UNL     1      25.162   2.039  51.861  1.00  0.00    -0.360 OA
HETATM    6  C5  UNL     1      26.169   1.073  52.061  1.00  0.00     0.143 C 
HETATM    7  C4  UNL     1      26.337  -0.050  52.729  1.00  0.00    -0.013 C 
HETATM    8  C17 UNL     1      25.176  -0.512  53.546  1.00  0.00     0.009 C 
HETATM    9  C16 UNL     1      23.858  -0.216  53.553  1.00  0.00     0.001 C 
BRANCH   7  10
HETATM   10  C3  UNL     1      27.385  -1.062  52.937  1.00  0.00     0.211 C 
BRANCH  10  11
HETATM   11  O2  UNL     1      28.087  -0.955  54.079  1.00  0.00    -0.362 OA
BRANCH  11  12
HETATM   12  C2  UNL     1      29.198  -0.174  54.114  1.00  0.00     0.337 C 
BRANCH  12  13
HETATM   13  O1  UNL     1      28.923   0.974  54.890  1.00  0.00    -0.372 OA
HETATM   14  C1  UNL     1      29.080   2.126  54.106  1.00  0.00     0.204 C 
ENDBRANCH  12  13
ENDBRANCH  11  12
ENDBRANCH  10  11
ENDBRANCH   7  10
ENDBRANCH   1   3
BRANCH   1  15
HETATM   15  C8  UNL     1      20.947   1.010  51.831  1.00  0.00     0.138 A 
HETATM   16  N2  UNL     1      21.269   1.650  50.694  1.00  0.00    -0.224 NA
HETATM   17  C9  UNL     1      20.441   1.713  49.637  1.00  0.00     0.235 A 
HETATM   18  N3  UNL     1      19.211   1.127  49.648  1.00  0.00    -0.241 NA
HETATM   19  C10 UNL     1      18.817   0.463  50.766  1.00  0.00     0.072 A 
HETATM   20  C11 UNL     1      17.580  -0.144  50.818  1.00  0.00     0.035 A 
HETATM   21  C15 UNL     1      19.699   0.425  51.824  1.00  0.00     0.041 A 
HETATM   22  C12 UNL     1      17.170  -0.823  51.953  1.00  0.00     0.039 A 
HETATM   23  C13 UNL     1      18.047  -0.866  53.016  1.00  0.00     0.066 A 
HETATM   24  C14 UNL     1      19.274  -0.249  52.926  1.00  0.00     0.054 A 
BRANCH  23  25
HETATM   25  O4  UNL     1      17.562  -1.570  54.122  1.00  0.00    -0.361 OA
HETATM   26  H16 UNL     1      17.614  -1.070  55.020  1.00  0.00     0.217 HD
ENDBRANCH  23  25
ENDBRANCH   1  15
TORSDOF 7
ENDMDL
MODEL 3
REMARK VINA RESULT:      -7.3      4.303      7.757
REMARK  7 active torsions:
REMARK  status: ('A' for Active; 'I' for Inactive)
REMARK    1  A    between atoms: O1_2  and  C2_3 
REMARK    2  A    between atoms: C2_3  and  O2_4 
REMARK    3  A    between atoms: O2_4  and  C3_5 
REMARK    4  A    between atoms: C3_5  and  C4_6 
REMARK    5  A    between atoms: C7_10  and  N1_11 
REMARK    6  A    between atoms: N1_11  and  C8_12 
REMARK    7  A    between atoms: C13_19  and  O4_20 
ROOT
HETATM    1  N1  UNL     1      25.383   0.666  53.007  1.00  0.00    -0.364 N 
HETATM    2  H12 UNL     1      24.975  -0.288  53.057  1.00  0.00     0.162 HD
ENDROOT
BRANCH   1   3
HETATM    3  C7  UNL     1      24.536   1.757  52.588  1.00  0.00     0.130 C 
HETATM    4  C6  UNL     1      24.799   2.059  51.128  1.00  0.00     0.203 C 
HETATM    5  O3  UNL     1      24.426   3.421  50.850  1.00  0.00    -0.360 OA
HETATM    6  C5  UNL     1      23.124   3.908  51.083  1.00  0.00     0.143 C 
HETATM    7  C4  UNL     1      22.029   3.530  51.709  1.00  0.00    -0.013 C 
HETATM    8  C17 UNL     1      22.086   2.208  52.400  1.00  0.00     0.009 C 
HETATM    9  C16 UNL     1      23.094   1.403  52.801  1.00  0.00     0.001 C 
BRANCH   7  10
HETATM   10  C3  UNL     1      20.670   4.039  51.956  1.00  0.00     0.211 C 
BRANCH  10  11
HETATM   11  O2  UNL     1      19.770   3.131  52.373  1.00  0.00    -0.362 OA
BRANCH  11  12
HETATM   12  C2  UNL     1      18.650   2.908  51.636  1.00  0.00     0.337 C 
BRANCH  12  13
HETATM   13  O1  UNL     1      17.636   3.791  52.071  1.00  0.00    -0.372 OA
HETATM   14  C1  UNL     1      16.506   3.656  51.252  1.00  0.00     0.204 C 
ENDBRANCH  12  13
ENDBRANCH  11  12
ENDBRANCH  10  11
ENDBRANCH   7  10
ENDBRANCH   1   3
BRANCH   1  15
HETATM   15  C8  UNL     1      26.728   0.973  53.326  1.00  0.00     0.138 A 
HETATM   16  N2  UNL     1      27.081   2.232  53.640  1.00  0.00    -0.224 NA
HETATM   17  C9  UNL     1      28.341   2.576  53.951  1.00  0.00     0.235 A 
HETATM   18  N3  UNL     1      29.356   1.666  53.969  1.00  0.00    -0.241 NA
HETATM   19  C10 UNL     1      29.073   0.373  53.661  1.00  0.00     0.072 A 
HETATM   20  C11 UNL     1      30.070  -0.580  53.668  1.00  0.00     0.035 A 
HETATM   21  C15 UNL     1      27.766   0.066  53.349  1.00  0.00     0.041 A 
HETATM   22  C12 UNL     1      29.791  -1.900  53.355  1.00  0.00     0.039 A 
HETATM   23  C13 UNL     1      28.486  -2.215  53.042  1.00  0.00     0.066 A 
HETATM   24  C14 UNL     1      27.518  -1.235  53.047  1.00  0.00     0.054 A 
BRANCH  23  25
HETATM   25  O4  UNL     1      28.286  -3.564  52.740  1.00  0.00    -0.361 OA
HETATM   26  H16 UNL     1      27.843  -3.751  51.830  1.00  0.00     0.217 HD
ENDBRANCH  23  25
ENDBRANCH   1  15
TORSDOF 7
ENDMDL
MODEL 4
REMARK VINA RESULT:      -7.3      4.928      7.620
REMARK  7 active torsions:
REMARK  status: ('A' for Active; 'I' for Inactive)
REMARK    1  A    between atoms: O1_2  and  C2_3 
REMARK    2  A    between atoms: C2_3  and  O2_4 
REMARK    3  A    between atoms: O2_4  and  C3_5 
REMARK    4  A    between atoms: C3_5  and  C4_6 
REMARK    5  A    between atoms: C7_10  and  N1_11 
REMARK    6  A    between atoms: N1_11  and  C8_12 
REMARK    7  A    between atoms: C13_19  and  O4_20 
ROOT
HETATM    1  N1  UNL     1      25.088  -0.023  54.062  1.00  0.00    -0.364 N 
HETATM    2  H12 UNL     1      24.899  -0.832  54.685  1.00  0.00     0.162 HD
ENDROOT
BRANCH   1   3
HETATM    3  C7  UNL     1      24.006   0.501  53.263  1.00  0.00     0.130 C 
HETATM    4  C6  UNL     1      24.514   0.794  51.868  1.00  0.00     0.203 C 
HETATM    5  O3  UNL     1      23.674   1.791  51.257  1.00  0.00    -0.360 OA
HETATM    6  C5  UNL     1      22.286   1.611  51.096  1.00  0.00     0.143 C 
HETATM    7  C4  UNL     1      21.342   0.798  51.525  1.00  0.00    -0.013 C 
HETATM    8  C17 UNL     1      21.778  -0.288  52.453  1.00  0.00     0.009 C 
HETATM    9  C16 UNL     1      22.875  -0.484  53.216  1.00  0.00     0.001 C 
BRANCH   7  10
HETATM   10  C3  UNL     1      19.892   0.611  51.362  1.00  0.00     0.211 C 
BRANCH  10  11
HETATM   11  O2  UNL     1      19.276  -0.081  52.337  1.00  0.00    -0.362 OA
BRANCH  11  12
HETATM   12  C2  UNL     1      17.976  -0.447  52.182  1.00  0.00     0.337 C 
BRANCH  12  13
HETATM   13  O1  UNL     1      17.491  -0.936  53.416  1.00  0.00    -0.372 OA
HETATM   14  C1  UNL     1      17.906  -2.263  53.597  1.00  0.00     0.204 C 
ENDBRANCH  12  13
ENDBRANCH  11  12
ENDBRANCH  10  11
ENDBRANCH   7  10
ENDBRANCH   1   3
BRANCH   1  15
HETATM   15  C8  UNL     1      26.349   0.609  53.941  1.00  0.00     0.138 A 
HETATM   16  N2  UNL     1      26.452   1.945  54.047  1.00  0.00    -0.224 NA
HETATM   17  C9  UNL     1      27.623   2.594  53.941  1.00  0.00     0.235 A 
HETATM   18  N3  UNL     1      28.796   1.936  53.717  1.00  0.00    -0.241 NA
HETATM   19  C10 UNL     1      28.768   0.583  53.597  1.00  0.00     0.072 A 
HETATM   20  C11 UNL     1      29.933  -0.121  53.370  1.00  0.00     0.035 A 
HETATM   21  C15 UNL     1      27.545  -0.040  53.713  1.00  0.00     0.041 A 
HETATM   22  C12 UNL     1      29.914  -1.500  53.247  1.00  0.00     0.039 A 
HETATM   23  C13 UNL     1      28.693  -2.131  53.362  1.00  0.00     0.066 A 
HETATM   24  C14 UNL     1      27.553  -1.393  53.590  1.00  0.00     0.054 A 
BRANCH  23  25
HETATM   25  O4  UNL     1      28.758  -3.520  53.227  1.00  0.00    -0.361 OA
HETATM   26  H16 UNL     1      28.146  -4.053  53.859  1.00  0.00     0.217 HD
ENDBRANCH  23  25
ENDBRANCH   1  15
TORSDOF 7
ENDMDL
MODEL 5
REMARK VINA RESULT:      -7.2      3.316      7.877
REMARK  7 active torsions:
REMARK  status: ('A' for Active; 'I' for Inactive)
REMARK    1  A    between atoms: O1_2  and  C2_3 
REMARK    2  A    between atoms: C2_3  and  O2_4 
REMARK    3  A    between atoms: O2_4  and  C3_5 
REMARK    4  A    between atoms: C3_5  and  C4_6 
REMARK    5  A    between atoms: C7_10  and  N1_11 
REMARK    6  A    between atoms: N1_11  and  C8_12 
REMARK    7  A    between atoms: C13_19  and  O4_20 
ROOT
HETATM    1  N1  UNL     1      24.277   1.358  51.715  1.00  0.00    -0.364 N 
HETATM    2  H12 UNL     1      25.047   0.837  52.179  1.00  0.00     0.162 HD
ENDROOT
BRANCH   1   3
HETATM    3  C7  UNL     1      24.597   2.575  51.007  1.00  0.00     0.130 C 
HETATM    4  C6  UNL     1      24.340   3.760  51.913  1.00  0.00     0.203 C 
HETATM    5  O3  UNL     1      24.106   4.930  51.109  1.00  0.00    -0.360 OA
HETATM    6  C5  UNL     1      25.047   5.400  50.171  1.00  0.00     0.143 C 
HETATM    7  C4  UNL     1      26.147   4.977  49.584  1.00  0.00    -0.013 C 
HETATM    8  C17 UNL     1      26.617   3.612  49.965  1.00  0.00     0.009 C 
HETATM    9  C16 UNL     1      26.029   2.552  50.562  1.00  0.00     0.001 C 
BRANCH   7  10
HETATM   10  C3  UNL     1      27.129   5.464  48.601  1.00  0.00     0.211 C 
BRANCH  10  11
HETATM   11  O2  UNL     1      28.300   4.804  48.564  1.00  0.00    -0.362 OA
BRANCH  11  12
HETATM   12  C2  UNL     1      29.415   5.439  48.117  1.00  0.00     0.337 C 
BRANCH  12  13
HETATM   13  O1  UNL     1      30.417   5.353  49.109  1.00  0.00    -0.372 OA
HETATM   14  C1  UNL     1      31.488   6.195  48.777  1.00  0.00     0.204 C 
ENDBRANCH  12  13
ENDBRANCH  11  12
ENDBRANCH  10  11
ENDBRANCH   7  10
ENDBRANCH   1   3
BRANCH   1  15
HETATM   15  C8  UNL     1      22.921   0.952  51.729  1.00  0.00     0.138 A 
HETATM   16  N2  UNL     1      22.085   1.341  50.750  1.00  0.00    -0.224 NA
HETATM   17  C9  UNL     1      20.791   0.984  50.716  1.00  0.00     0.235 A 
HETATM   18  N3  UNL     1      20.233   0.197  51.678  1.00  0.00    -0.241 NA
HETATM   19  C10 UNL     1      21.018  -0.234  52.700  1.00  0.00     0.072 A 
HETATM   20  C11 UNL     1      20.493  -1.033  53.694  1.00  0.00     0.035 A 
HETATM   21  C15 UNL     1      22.339   0.157  52.694  1.00  0.00     0.041 A 
HETATM   22  C12 UNL     1      21.285  -1.477  54.740  1.00  0.00     0.039 A 
HETATM   23  C13 UNL     1      22.609  -1.090  54.740  1.00  0.00     0.066 A 
HETATM   24  C14 UNL     1      23.096  -0.292  53.729  1.00  0.00     0.054 A 
BRANCH  23  25
HETATM   25  O4  UNL     1      23.341  -1.578  55.825  1.00  0.00    -0.361 OA
HETATM   26  H16 UNL     1      23.450  -0.926  56.614  1.00  0.00     0.217 HD
ENDBRANCH  23  25
ENDBRANCH   1  15
TORSDOF 7
ENDMDL
MODEL 6
REMARK VINA RESULT:      -7.2      4.574      7.765
REMARK  7 active torsions:
REMARK  status: ('A' for Active; 'I' for Inactive)
REMARK    1  A    between atoms: O1_2  and  C2_3 
REMARK    2  A    between atoms: C2_3  and  O2_4 
REMARK    3  A    between atoms: O2_4  and  C3_5 
REMARK    4  A    between atoms: C3_5  and  C4_6 
REMARK    5  A    between atoms: C7_10  and  N1_11 
REMARK    6  A    between atoms: N1_11  and  C8_12 
REMARK    7  A    between atoms: C13_19  and  O4_20 
ROOT
HETATM    1  N1  UNL     1      23.914   1.432  52.142  1.00  0.00    -0.364 N 
HETATM    2  H12 UNL     1      24.421   1.980  51.419  1.00  0.00     0.162 HD
ENDROOT
BRANCH   1   3
HETATM    3  C7  UNL     1      22.471   1.456  52.142  1.00  0.00     0.130 C 
HETATM    4  C6  UNL     1      21.997   2.893  52.100  1.00  0.00     0.203 C 
HETATM    5  O3  UNL     1      20.669   2.971  52.649  1.00  0.00    -0.360 OA
HETATM    6  C5  UNL     1      19.592   2.228  52.123  1.00  0.00     0.143 C 
HETATM    7  C4  UNL     1      19.401   1.226  51.291  1.00  0.00    -0.013 C 
HETATM    8  C17 UNL     1      20.626   0.643  50.667  1.00  0.00     0.009 C 
HETATM    9  C16 UNL     1      21.943   0.693  50.963  1.00  0.00     0.001 C 
BRANCH   7  10
HETATM   10  C3  UNL     1      18.279   0.447  50.744  1.00  0.00     0.211 C 
BRANCH  10  11
HETATM   11  O2  UNL     1      17.968  -0.681  51.406  1.00  0.00    -0.362 OA
BRANCH  11  12
HETATM   12  C2  UNL     1      16.936  -0.679  52.289  1.00  0.00     0.337 C 
BRANCH  12  13
HETATM   13  O1  UNL     1      17.437  -0.976  53.577  1.00  0.00    -0.372 OA
HETATM   14  C1  UNL     1      17.914  -2.294  53.608  1.00  0.00     0.204 C 
ENDBRANCH  12  13
ENDBRANCH  11  12
ENDBRANCH  10  11
ENDBRANCH   7  10
ENDBRANCH   1   3
BRANCH   1  15
HETATM   15  C8  UNL     1      24.551   0.655  53.140  1.00  0.00     0.138 A 
HETATM   16  N2  UNL     1      23.877  -0.322  53.772  1.00  0.00    -0.224 NA
HETATM   17  C9  UNL     1      24.433  -1.088  54.725  1.00  0.00     0.235 A 
HETATM   18  N3  UNL     1      25.728  -0.925  55.119  1.00  0.00    -0.241 NA
HETATM   19  C10 UNL     1      26.470   0.045  54.524  1.00  0.00     0.072 A 
HETATM   20  C11 UNL     1      27.784   0.244  54.893  1.00  0.00     0.035 A 
HETATM   21  C15 UNL     1      25.858   0.806  53.552  1.00  0.00     0.041 A 
HETATM   22  C12 UNL     1      28.548   1.230  54.293  1.00  0.00     0.039 A 
HETATM   23  C13 UNL     1      27.943   1.995  53.319  1.00  0.00     0.066 A 
HETATM   24  C14 UNL     1      26.629   1.767  52.977  1.00  0.00     0.054 A 
BRANCH  23  25
HETATM   25  O4  UNL     1      28.778   2.967  52.761  1.00  0.00    -0.361 OA
HETATM   26  H16 UNL     1      28.422   3.931  52.802  1.00  0.00     0.217 HD
ENDBRANCH  23  25
ENDBRANCH   1  15
TORSDOF 7
ENDMDL
MODEL 7
REMARK VINA RESULT:      -7.0      3.959      7.850
REMARK  7 active torsions:
REMARK  status: ('A' for Active; 'I' for Inactive)
REMARK    1  A    between atoms: O1_2  and  C2_3 
REMARK    2  A    between atoms: C2_3  and  O2_4 
REMARK    3  A    between atoms: O2_4  and  C3_5 
REMARK    4  A    between atoms: C3_5  and  C4_6 
REMARK    5  A    between atoms: C7_10  and  N1_11 
REMARK    6  A    between atoms: N1_11  and  C8_12 
REMARK    7  A    between atoms: C13_19  and  O4_20 
ROOT
HETATM    1  N1  UNL     1      24.709   1.607  51.485  1.00  0.00    -0.364 N 
HETATM    2  H12 UNL     1      25.134   1.548  50.539  1.00  0.00     0.162 HD
ENDROOT
BRANCH   1   3
HETATM    3  C7  UNL     1      23.627   2.539  51.699  1.00  0.00     0.130 C 
HETATM    4  C6  UNL     1      24.119   3.943  51.421  1.00  0.00     0.203 C 
HETATM    5  O3  UNL     1      23.297   4.884  52.135  1.00  0.00    -0.360 OA
HETATM    6  C5  UNL     1      21.901   4.955  51.952  1.00  0.00     0.143 C 
HETATM    7  C4  UNL     1      20.943   4.244  51.395  1.00  0.00    -0.013 C 
HETATM    8  C17 UNL     1      21.365   2.973  50.732  1.00  0.00     0.009 C 
HETATM    9  C16 UNL     1      22.470   2.200  50.807  1.00  0.00     0.001 C 
BRANCH   7  10
HETATM   10  C3  UNL     1      19.486   4.314  51.206  1.00  0.00     0.211 C 
BRANCH  10  11
HETATM   11  O2  UNL     1      18.753   3.480  51.965  1.00  0.00    -0.362 OA
BRANCH  11  12
HETATM   12  C2  UNL     1      17.459   3.233  51.635  1.00  0.00     0.337 C 
BRANCH  12  13
HETATM   13  O1  UNL     1      16.626   4.102  52.375  1.00  0.00    -0.372 OA
HETATM   14  C1  UNL     1      15.304   3.993  51.921  1.00  0.00     0.204 C 
ENDBRANCH  12  13
ENDBRANCH  11  12
ENDBRANCH  10  11
ENDBRANCH   7  10
ENDBRANCH   1   3
BRANCH   1  15
HETATM   15  C8  UNL     1      25.122   0.826  52.592  1.00  0.00     0.138 A 
HETATM   16  N2  UNL     1      24.314  -0.126  53.090  1.00  0.00    -0.224 NA
HETATM   17  C9  UNL     1      24.657  -0.894  54.137  1.00  0.00     0.235 A 
HETATM   18  N3  UNL     1      25.856  -0.759  54.770  1.00  0.00    -0.241 NA
HETATM   19  C10 UNL     1      26.724   0.185  54.321  1.00  0.00     0.072 A 
HETATM   20  C11 UNL     1      27.949   0.354  54.933  1.00  0.00     0.035 A 
HETATM   21  C15 UNL     1      26.330   0.949  53.244  1.00  0.00     0.041 A 
HETATM   22  C12 UNL     1      28.840   1.314  54.482  1.00  0.00     0.039 A 
HETATM   23  C13 UNL     1      28.453   2.082  53.405  1.00  0.00     0.066 A 
HETATM   24  C14 UNL     1      27.222   1.883  52.820  1.00  0.00     0.054 A 
BRANCH  23  25
HETATM   25  O4  UNL     1      29.405   3.025  53.010  1.00  0.00    -0.361 OA
HETATM   26  H16 UNL     1      29.410   3.900  53.552  1.00  0.00     0.217 HD
ENDBRANCH  23  25
ENDBRANCH   1  15
TORSDOF 7
ENDMDL
MODEL 8
REMARK VINA RESULT:      -7.0      3.185      4.105
REMARK  7 active torsions:
REMARK  status: ('A' for Active; 'I' for Inactive)
REMARK    1  A    between atoms: O1_2  and  C2_3 
REMARK    2  A    between atoms: C2_3  and  O2_4 
REMARK    3  A    between atoms: O2_4  and  C3_5 
REMARK    4  A    between atoms: C3_5  and  C4_6 
REMARK    5  A    between atoms: C7_10  and  N1_11 
REMARK    6  A    between atoms: N1_11  and  C8_12 
REMARK    7  A    between atoms: C13_19  and  O4_20 
ROOT
HETATM    1  N1  UNL     1      22.383   2.404  52.346  1.00  0.00    -0.364 N 
HETATM    2  H12 UNL     1      21.607   2.762  52.936  1.00  0.00     0.162 HD
ENDROOT
BRANCH   1   3
HETATM    3  C7  UNL     1      23.337   1.495  52.936  1.00  0.00     0.130 C 
HETATM    4  C6  UNL     1      22.698   0.131  53.084  1.00  0.00     0.203 C 
HETATM    5  O3  UNL     1      23.371  -0.597  54.127  1.00  0.00    -0.360 OA
HETATM    6  C5  UNL     1      24.755  -0.857  54.093  1.00  0.00     0.143 C 
HETATM    7  C4  UNL     1      25.815  -0.462  53.417  1.00  0.00    -0.013 C 
HETATM    8  C17 UNL     1      25.576   0.555  52.350  1.00  0.00     0.009 C 
HETATM    9  C16 UNL     1      24.567   1.411  52.081  1.00  0.00     0.001 C 
BRANCH   7  10
HETATM   10  C3  UNL     1      27.261  -0.729  53.382  1.00  0.00     0.211 C 
BRANCH  10  11
HETATM   11  O2  UNL     1      27.916  -0.577  54.547  1.00  0.00    -0.362 OA
BRANCH  11  12
HETATM   12  C2  UNL     1      28.801   0.444  54.692  1.00  0.00     0.337 C 
BRANCH  12  13
HETATM   13  O1  UNL     1      28.933   1.112  53.454  1.00  0.00    -0.372 OA
HETATM   14  C1  UNL     1      28.746   2.490  53.635  1.00  0.00     0.204 C 
ENDBRANCH  12  13
ENDBRANCH  11  12
ENDBRANCH  10  11
ENDBRANCH   7  10
ENDBRANCH   1   3
BRANCH   1  15
HETATM   15  C8  UNL     1      22.571   2.750  50.986  1.00  0.00     0.138 A 
HETATM   16  N2  UNL     1      22.210   1.897  50.012  1.00  0.00    -0.224 NA
HETATM   17  C9  UNL     1      22.366   2.176  48.707  1.00  0.00     0.235 A 
HETATM   18  N3  UNL     1      22.906   3.352  48.280  1.00  0.00    -0.241 NA
HETATM   19  C10 UNL     1      23.295   4.264  49.209  1.00  0.00     0.072 A 
HETATM   20  C11 UNL     1      23.846   5.467  48.819  1.00  0.00     0.035 A 
HETATM   21  C15 UNL     1      23.116   3.934  50.535  1.00  0.00     0.041 A 
HETATM   22  C12 UNL     1      24.245   6.401  49.759  1.00  0.00     0.039 A 
HETATM   23  C13 UNL     1      24.069   6.079  51.088  1.00  0.00     0.066 A 
HETATM   24  C14 UNL     1      23.514   4.868  51.438  1.00  0.00     0.054 A 
BRANCH  23  25
HETATM   25  O4  UNL     1      24.495   7.072  51.974  1.00  0.00    -0.361 OA
HETATM   26  H16 UNL     1      23.780   7.417  52.628  1.00  0.00     0.217 HD
ENDBRANCH  23  25
ENDBRANCH   1  15
TORSDOF 7
ENDMDL
MODEL 9
REMARK VINA RESULT:      -6.9      3.682      7.147
REMARK  7 active torsions:
REMARK  status: ('A' for Active; 'I' for Inactive)
REMARK    1  A    between atoms: O1_2  and  C2_3 
REMARK    2  A    between atoms: C2_3  and  O2_4 
REMARK    3  A    between atoms: O2_4  and  C3_5 
REMARK    4  A    between atoms: C3_5  and  C4_6 
REMARK    5  A    between atoms: C7_10  and  N1_11 
REMARK    6  A    between atoms: N1_11  and  C8_12 
REMARK    7  A    between atoms: C13_19  and  O4_20 
ROOT
HETATM    1  N1  UNL     1      25.030   2.908  53.423  1.00  0.00    -0.364 N 
HETATM    2  H12 UNL     1      25.306   3.609  54.138  1.00  0.00     0.162 HD
ENDROOT
BRANCH   1   3
HETATM    3  C7  UNL     1      24.158   3.322  52.350  1.00  0.00     0.130 C 
HETATM    4  C6  UNL     1      23.457   4.604  52.745  1.00  0.00     0.203 C 
HETATM    5  O3  UNL     1      22.233   4.725  51.999  1.00  0.00    -0.360 OA
HETATM    6  C5  UNL     1      22.206   4.728  50.590  1.00  0.00     0.143 C 
HETATM    7  C4  UNL     1      23.017   4.453  49.589  1.00  0.00    -0.013 C 
HETATM    8  C17 UNL     1      24.393   4.005  49.958  1.00  0.00     0.009 C 
HETATM    9  C16 UNL     1      24.948   3.520  51.090  1.00  0.00     0.001 C 
BRANCH   7  10
HETATM   10  C3  UNL     1      22.991   4.451  48.118  1.00  0.00     0.211 C 
BRANCH  10  11
HETATM   11  O2  UNL     1      22.039   3.691  47.548  1.00  0.00    -0.362 OA
BRANCH  11  12
HETATM   12  C2  UNL     1      22.142   2.338  47.595  1.00  0.00     0.337 C 
BRANCH  12  13
HETATM   13  O1  UNL     1      20.996   1.815  48.236  1.00  0.00    -0.372 OA
HETATM   14  C1  UNL     1      21.383   1.008  49.316  1.00  0.00     0.204 C 
ENDBRANCH  12  13
ENDBRANCH  11  12
ENDBRANCH  10  11
ENDBRANCH   7  10
ENDBRANCH   1   3
BRANCH   1  15
HETATM   15  C8  UNL     1      25.455   1.557  53.430  1.00  0.00     0.138 A 
HETATM   16  N2  UNL     1      24.578   0.568  53.185  1.00  0.00    -0.224 NA
HETATM   17  C9  UNL     1      24.930  -0.729  53.179  1.00  0.00     0.235 A 
HETATM   18  N3  UNL     1      26.209  -1.132  53.423  1.00  0.00    -0.241 NA
HETATM   19  C10 UNL     1      27.149  -0.186  53.680  1.00  0.00     0.072 A 
HETATM   20  C11 UNL     1      28.456  -0.551  53.931  1.00  0.00     0.035 A 
HETATM   21  C15 UNL     1      26.743   1.131  53.675  1.00  0.00     0.041 A 
HETATM   22  C12 UNL     1      29.421   0.406  54.194  1.00  0.00     0.039 A 
HETATM   23  C13 UNL     1      29.023   1.726  54.191  1.00  0.00     0.066 A 
HETATM   24  C14 UNL     1      27.709   2.051  53.935  1.00  0.00     0.054 A 
BRANCH  23  25
HETATM   25  O4  UNL     1      30.053   2.629  54.464  1.00  0.00    -0.361 OA
HETATM   26  H16 UNL     1      29.847   3.613  54.242  1.00  0.00     0.217 HD
ENDBRANCH  23  25
ENDBRANCH   1  15
TORSDOF 7
ENDMDL
