MODEL 1
REMARK VINA RESULT:      -9.8      0.000      0.000
REMARK  4 active torsions:
REMARK  status: ('A' for Active; 'I' for Inactive)
REMARK    1  A    between atoms: N4_23  and  C18_24 
REMARK    2  A    between atoms: C18_24  and  C19_25 
REMARK    3  A    between atoms: C19_25  and  C20_26 
REMARK    4  A    between atoms: C20_26  and  N5_27 
ROOT
HETATM    1  O1  UNL     1      21.453  -2.359  54.970  1.00  0.00    -0.271 OA
HETATM    2  C1  UNL     1      21.563  -1.283  54.331  1.00  0.00     0.248 C 
HETATM    3  C2  UNL     1      20.363  -0.812  53.611  1.00  0.00     0.279 C 
HETATM    4  O2  UNL     1      20.666   0.078  52.575  1.00  0.00    -0.339 OA
HETATM    5  C3  UNL     1      21.787   0.869  52.467  1.00  0.00     0.108 A 
HETATM    6  C4  UNL     1      22.772   0.558  53.295  1.00  0.00     0.072 A 
HETATM    7  C5  UNL     1      23.834   1.541  52.980  1.00  0.00     0.047 A 
HETATM    8  C6  UNL     1      23.415   2.338  52.021  1.00  0.00     0.008 A 
HETATM    9  C7  UNL     1      22.158   2.005  51.634  1.00  0.00     0.030 A 
HETATM   10  C8  UNL     1      21.400   2.596  50.662  1.00  0.00     0.133 C 
HETATM   11  N1  UNL     1      21.682   3.872  50.291  1.00  0.00    -0.253 NA
HETATM   12  C9  UNL     1      21.323   4.856  51.169  1.00  0.00     0.233 C 
HETATM   13  N2  UNL     1      22.001   4.581  52.292  1.00  0.00    -0.237 NA
HETATM   14  C10 UNL     1      23.145   5.242  52.530  1.00  0.00     0.215 C 
HETATM   15  N3  UNL     1      23.960   4.704  51.572  1.00  0.00    -0.316 N 
HETATM   16  C11 UNL     1      24.242   3.365  51.544  1.00  0.00     0.051 C 
HETATM   17  C12 UNL     1      25.272   2.611  51.127  1.00  0.00     0.030 C 
HETATM   18  C13 UNL     1      26.547   2.965  50.494  1.00  0.00    -0.001 C 
HETATM   19  C14 UNL     1      26.807   3.903  49.578  1.00  0.00    -0.023 C 
HETATM   20  C15 UNL     1      26.064   4.932  48.825  1.00  0.00     0.055 C 
HETATM   21  C16 UNL     1      25.232   5.821  49.630  1.00  0.00    -0.005 C 
HETATM   22  C17 UNL     1      24.434   5.711  50.680  1.00  0.00     0.094 C 
HETATM   23  N4  UNL     1      22.749  -0.491  54.249  1.00  0.00    -0.314 N 
ENDROOT
BRANCH  23  24
HETATM   24  C18 UNL     1      23.835  -0.809  55.140  1.00  0.00     0.134 C 
BRANCH  24  25
HETATM   25  C19 UNL     1      25.098  -0.883  54.280  1.00  0.00     0.050 C 
BRANCH  25  26
HETATM   26  C20 UNL     1      26.269  -0.252  54.955  1.00  0.00     0.274 C 
BRANCH  26  27
HETATM   27  N5  UNL     1      27.145   0.449  54.043  1.00  0.00     0.092 N 
HETATM   28  C21 UNL     1      27.230  -0.202  52.753  1.00  0.00     0.298 C 
HETATM   29  C22 UNL     1      27.953  -1.507  52.757  1.00  0.00     0.198 C 
HETATM   30  O3  UNL     1      28.839  -1.581  53.824  1.00  0.00    -0.388 OA
HETATM   31  C23 UNL     1      29.451  -0.308  53.885  1.00  0.00     0.198 C 
HETATM   32  C24 UNL     1      28.445   0.572  54.630  1.00  0.00     0.298 C 
ENDBRANCH  26  27
ENDBRANCH  25  26
ENDBRANCH  24  25
ENDBRANCH  23  24
TORSDOF 4
ENDMDL
MODEL 2
REMARK VINA RESULT:      -9.6      2.455      3.758
REMARK  4 active torsions:
REMARK  status: ('A' for Active; 'I' for Inactive)
REMARK    1  A    between atoms: N4_23  and  C18_24 
REMARK    2  A    between atoms: C18_24  and  C19_25 
REMARK    3  A    between atoms: C19_25  and  C20_26 
REMARK    4  A    between atoms: C20_26  and  N5_27 
ROOT
HETATM    1  O1  UNL     1      21.800   0.251  51.119  1.00  0.00    -0.271 OA
HETATM    2  C1  UNL     1      22.208   1.378  50.743  1.00  0.00     0.248 C 
HETATM    3  C2  UNL     1      21.240   2.228  50.021  1.00  0.00     0.279 C 
HETATM    4  O2  UNL     1      21.859   3.210  49.239  1.00  0.00    -0.339 OA
HETATM    5  C3  UNL     1      23.114   3.742  49.424  1.00  0.00     0.108 A 
HETATM    6  C4  UNL     1      23.888   3.072  50.263  1.00  0.00     0.072 A 
HETATM    7  C5  UNL     1      25.154   3.841  50.281  1.00  0.00     0.047 A 
HETATM    8  C6  UNL     1      25.042   4.877  49.479  1.00  0.00     0.008 A 
HETATM    9  C7  UNL     1      23.816   4.906  48.900  1.00  0.00     0.030 A 
HETATM   10  C8  UNL     1      23.338   5.823  48.004  1.00  0.00     0.133 C 
HETATM   11  N1  UNL     1      23.911   7.053  47.951  1.00  0.00    -0.253 NA
HETATM   12  C9  UNL     1      23.623   7.907  48.978  1.00  0.00     0.233 C 
HETATM   13  N2  UNL     1      24.062   7.282  50.079  1.00  0.00    -0.237 NA
HETATM   14  C10 UNL     1      25.264   7.619  50.574  1.00  0.00     0.215 C 
HETATM   15  N3  UNL     1      26.092   7.108  49.612  1.00  0.00    -0.316 N 
HETATM   16  C11 UNL     1      26.112   5.770  49.325  1.00  0.00     0.051 C 
HETATM   17  C12 UNL     1      27.028   4.902  48.864  1.00  0.00     0.030 C 
HETATM   18  C13 UNL     1      28.427   5.082  48.460  1.00  0.00    -0.001 C 
HETATM   19  C14 UNL     1      28.994   6.097  47.802  1.00  0.00    -0.023 C 
HETATM   20  C15 UNL     1      28.583   7.388  47.216  1.00  0.00     0.055 C 
HETATM   21  C16 UNL     1      27.828   8.267  48.103  1.00  0.00    -0.005 C 
HETATM   22  C17 UNL     1      26.877   8.137  49.014  1.00  0.00     0.094 C 
HETATM   23  N4  UNL     1      23.523   1.892  50.960  1.00  0.00    -0.314 N 
ENDROOT
BRANCH  23  24
HETATM   24  C18 UNL     1      24.384   1.181  51.869  1.00  0.00     0.134 C 
BRANCH  24  25
HETATM   25  C19 UNL     1      24.395   1.979  53.175  1.00  0.00     0.050 C 
BRANCH  25  26
HETATM   26  C20 UNL     1      25.720   1.914  53.856  1.00  0.00     0.274 C 
BRANCH  26  27
HETATM   27  N5  UNL     1      26.751   1.313  53.040  1.00  0.00     0.092 N 
HETATM   28  C21 UNL     1      27.169   0.022  53.543  1.00  0.00     0.298 C 
HETATM   29  C22 UNL     1      27.931   0.066  54.824  1.00  0.00     0.198 C 
HETATM   30  O3  UNL     1      28.543   1.300  54.996  1.00  0.00    -0.388 OA
HETATM   31  C23 UNL     1      29.064   1.635  53.725  1.00  0.00     0.198 C 
HETATM   32  C24 UNL     1      27.869   2.203  52.954  1.00  0.00     0.298 C 
ENDBRANCH  26  27
ENDBRANCH  25  26
ENDBRANCH  24  25
ENDBRANCH  23  24
TORSDOF 4
ENDMDL
MODEL 3
REMARK VINA RESULT:      -9.2      2.367      3.139
REMARK  4 active torsions:
REMARK  status: ('A' for Active; 'I' for Inactive)
REMARK    1  A    between atoms: N4_23  and  C18_24 
REMARK    2  A    between atoms: C18_24  and  C19_25 
REMARK    3  A    between atoms: C19_25  and  C20_26 
REMARK    4  A    between atoms: C20_26  and  N5_27 
ROOT
HETATM    1  O1  UNL     1      22.990  -1.996  55.478  1.00  0.00    -0.271 OA
HETATM    2  C1  UNL     1      22.325  -1.257  54.710  1.00  0.00     0.248 C 
HETATM    3  C2  UNL     1      20.863  -1.464  54.689  1.00  0.00     0.279 C 
HETATM    4  O2  UNL     1      20.264  -0.980  53.522  1.00  0.00    -0.339 OA
HETATM    5  C3  UNL     1      20.748   0.004  52.691  1.00  0.00     0.108 A 
HETATM    6  C4  UNL     1      22.016   0.330  52.891  1.00  0.00     0.072 A 
HETATM    7  C5  UNL     1      22.280   1.389  51.889  1.00  0.00     0.047 A 
HETATM    8  C6  UNL     1      21.186   1.608  51.193  1.00  0.00     0.008 A 
HETATM    9  C7  UNL     1      20.180   0.801  51.612  1.00  0.00     0.030 A 
HETATM   10  C8  UNL     1      18.904   0.735  51.124  1.00  0.00     0.133 C 
HETATM   11  N1  UNL     1      18.400   1.801  50.450  1.00  0.00    -0.253 NA
HETATM   12  C9  UNL     1      18.056   2.890  51.200  1.00  0.00     0.233 C 
HETATM   13  N2  UNL     1      19.192   3.267  51.803  1.00  0.00    -0.237 NA
HETATM   14  C10 UNL     1      19.900   4.273  51.267  1.00  0.00     0.215 C 
HETATM   15  N3  UNL     1      20.371   3.680  50.127  1.00  0.00    -0.316 N 
HETATM   16  C11 UNL     1      21.176   2.575  50.178  1.00  0.00     0.051 C 
HETATM   17  C12 UNL     1      22.144   2.058  49.403  1.00  0.00     0.030 C 
HETATM   18  C13 UNL     1      22.720   2.506  48.131  1.00  0.00    -0.001 C 
HETATM   19  C14 UNL     1      22.116   3.065  47.078  1.00  0.00    -0.023 C 
HETATM   20  C15 UNL     1      20.752   3.471  46.687  1.00  0.00     0.055 C 
HETATM   21  C16 UNL     1      20.046   4.310  47.651  1.00  0.00    -0.005 C 
HETATM   22  C17 UNL     1      19.915   4.371  48.966  1.00  0.00     0.094 C 
HETATM   23  N4  UNL     1      22.872  -0.243  53.866  1.00  0.00    -0.314 N 
ENDROOT
BRANCH  23  24
HETATM   24  C18 UNL     1      24.249   0.130  54.063  1.00  0.00     0.134 C 
BRANCH  24  25
HETATM   25  C19 UNL     1      25.032  -0.451  52.884  1.00  0.00     0.050 C 
BRANCH  25  26
HETATM   26  C20 UNL     1      26.323  -1.058  53.318  1.00  0.00     0.274 C 
BRANCH  26  27
HETATM   27  N5  UNL     1      27.477  -0.454  52.692  1.00  0.00     0.092 N 
HETATM   28  C21 UNL     1      28.677  -0.604  53.487  1.00  0.00     0.298 C 
HETATM   29  C22 UNL     1      28.696   0.192  54.747  1.00  0.00     0.198 C 
HETATM   30  O3  UNL     1      27.853   1.291  54.653  1.00  0.00    -0.388 OA
HETATM   31  C23 UNL     1      28.067   1.811  53.356  1.00  0.00     0.198 C 
HETATM   32  C24 UNL     1      27.213   0.930  52.440  1.00  0.00     0.298 C 
ENDBRANCH  26  27
ENDBRANCH  25  26
ENDBRANCH  24  25
ENDBRANCH  23  24
TORSDOF 4
ENDMDL
MODEL 4
REMARK VINA RESULT:      -9.0      5.147      8.204
REMARK  4 active torsions:
REMARK  status: ('A' for Active; 'I' for Inactive)
REMARK    1  A    between atoms: N4_23  and  C18_24 
REMARK    2  A    between atoms: C18_24  and  C19_25 
REMARK    3  A    between atoms: C19_25  and  C20_26 
REMARK    4  A    between atoms: C20_26  and  N5_27 
ROOT
HETATM    1  O1  UNL     1      28.859   9.579  47.876  1.00  0.00    -0.271 OA
HETATM    2  C1  UNL     1      27.939   8.830  48.292  1.00  0.00     0.248 C 
HETATM    3  C2  UNL     1      26.775   9.492  48.915  1.00  0.00     0.279 C 
HETATM    4  O2  UNL     1      26.052   8.638  49.755  1.00  0.00    -0.339 OA
HETATM    5  C3  UNL     1      26.009   7.264  49.697  1.00  0.00     0.108 A 
HETATM    6  C4  UNL     1      26.940   6.708  48.938  1.00  0.00     0.072 A 
HETATM    7  C5  UNL     1      26.675   5.254  49.046  1.00  0.00     0.047 A 
HETATM    8  C6  UNL     1      25.639   5.061  49.834  1.00  0.00     0.008 A 
HETATM    9  C7  UNL     1      25.155   6.244  50.289  1.00  0.00     0.030 A 
HETATM   10  C8  UNL     1      24.097   6.443  51.133  1.00  0.00     0.133 C 
HETATM   11  N1  UNL     1      23.152   5.474  51.245  1.00  0.00    -0.253 NA
HETATM   12  C9  UNL     1      22.288   5.340  50.195  1.00  0.00     0.233 C 
HETATM   13  N2  UNL     1      23.066   5.054  49.142  1.00  0.00    -0.237 NA
HETATM   14  C10 UNL     1      23.197   3.771  48.770  1.00  0.00     0.215 C 
HETATM   15  N3  UNL     1      23.937   3.274  49.808  1.00  0.00    -0.316 N 
HETATM   16  C11 UNL     1      25.183   3.762  50.095  1.00  0.00     0.051 C 
HETATM   17  C12 UNL     1      26.304   3.265  50.644  1.00  0.00     0.030 C 
HETATM   18  C13 UNL     1      26.621   1.939  51.185  1.00  0.00    -0.001 C 
HETATM   19  C14 UNL     1      25.853   1.110  51.898  1.00  0.00    -0.023 C 
HETATM   20  C15 UNL     1      24.481   1.083  52.441  1.00  0.00     0.055 C 
HETATM   21  C16 UNL     1      23.421   1.387  51.484  1.00  0.00    -0.005 C 
HETATM   22  C17 UNL     1      23.235   2.231  50.483  1.00  0.00     0.094 C 
HETATM   23  N4  UNL     1      27.936   7.405  48.207  1.00  0.00    -0.314 N 
ENDROOT
BRANCH  23  24
HETATM   24  C18 UNL     1      28.939   6.775  47.387  1.00  0.00     0.134 C 
BRANCH  24  25
HETATM   25  C19 UNL     1      30.001   6.226  48.341  1.00  0.00     0.050 C 
BRANCH  25  26
HETATM   26  C20 UNL     1      31.214   5.755  47.612  1.00  0.00     0.274 C 
BRANCH  26  27
HETATM   27  N5  UNL     1      32.174   5.095  48.467  1.00  0.00     0.092 N 
HETATM   28  C21 UNL     1      33.297   5.947  48.795  1.00  0.00     0.298 C 
HETATM   29  C22 UNL     1      34.215   6.238  47.656  1.00  0.00     0.198 C 
HETATM   30  O3  UNL     1      34.135   5.246  46.688  1.00  0.00    -0.388 OA
HETATM   31  C23 UNL     1      34.088   4.030  47.408  1.00  0.00     0.198 C 
HETATM   32  C24 UNL     1      32.625   3.891  47.838  1.00  0.00     0.298 C 
ENDBRANCH  26  27
ENDBRANCH  25  26
ENDBRANCH  24  25
ENDBRANCH  23  24
TORSDOF 4
ENDMDL
MODEL 5
REMARK VINA RESULT:      -9.0      6.278      9.745
REMARK  4 active torsions:
REMARK  status: ('A' for Active; 'I' for Inactive)
REMARK    1  A    between atoms: N4_23  and  C18_24 
REMARK    2  A    between atoms: C18_24  and  C19_25 
REMARK    3  A    between atoms: C19_25  and  C20_26 
REMARK    4  A    between atoms: C20_26  and  N5_27 
ROOT
HETATM    1  O1  UNL     1      32.842   9.745  47.576  1.00  0.00    -0.271 OA
HETATM    2  C1  UNL     1      31.636   9.503  47.837  1.00  0.00     0.248 C 
HETATM    3  C2  UNL     1      30.906  10.526  48.612  1.00  0.00     0.279 C 
HETATM    4  O2  UNL     1      29.777  10.012  49.259  1.00  0.00    -0.339 OA
HETATM    5  C3  UNL     1      29.058   8.894  48.903  1.00  0.00     0.108 A 
HETATM    6  C4  UNL     1      29.653   8.105  48.023  1.00  0.00     0.072 A 
HETATM    7  C5  UNL     1      28.688   7.001  47.815  1.00  0.00     0.047 A 
HETATM    8  C6  UNL     1      27.625   7.210  48.562  1.00  0.00     0.008 A 
HETATM    9  C7  UNL     1      27.757   8.357  49.274  1.00  0.00     0.030 A 
HETATM   10  C8  UNL     1      26.866   8.895  50.162  1.00  0.00     0.133 C 
HETATM   11  N1  UNL     1      25.557   8.542  50.078  1.00  0.00    -0.253 NA
HETATM   12  C9  UNL     1      24.846   9.077  49.041  1.00  0.00     0.233 C 
HETATM   13  N2  UNL     1      25.472   8.650  47.936  1.00  0.00    -0.237 NA
HETATM   14  C10 UNL     1      24.979   7.582  47.290  1.00  0.00     0.215 C 
HETATM   15  N3  UNL     1      25.268   6.583  48.180  1.00  0.00    -0.316 N 
HETATM   16  C11 UNL     1      26.557   6.301  48.542  1.00  0.00     0.051 C 
HETATM   17  C12 UNL     1      27.222   5.207  48.946  1.00  0.00     0.030 C 
HETATM   18  C13 UNL     1      26.780   3.827  49.178  1.00  0.00    -0.001 C 
HETATM   19  C14 UNL     1      25.637   3.382  49.707  1.00  0.00    -0.023 C 
HETATM   20  C15 UNL     1      24.391   3.950  50.258  1.00  0.00     0.055 C 
HETATM   21  C16 UNL     1      23.721   4.933  49.412  1.00  0.00    -0.005 C 
HETATM   22  C17 UNL     1      24.078   5.934  48.623  1.00  0.00     0.094 C 
HETATM   23  N4  UNL     1      30.929   8.327  47.442  1.00  0.00    -0.314 N 
ENDROOT
BRANCH  23  24
HETATM   24  C18 UNL     1      31.554   7.452  46.485  1.00  0.00     0.134 C 
BRANCH  24  25
HETATM   25  C19 UNL     1      32.448   6.500  47.282  1.00  0.00     0.050 C 
BRANCH  25  26
HETATM   26  C20 UNL     1      31.930   5.102  47.263  1.00  0.00     0.274 C 
BRANCH  26  27
HETATM   27  N5  UNL     1      32.541   4.281  46.242  1.00  0.00     0.092 N 
HETATM   28  C21 UNL     1      32.388   2.867  46.508  1.00  0.00     0.298 C 
HETATM   29  C22 UNL     1      33.176   2.359  47.668  1.00  0.00     0.198 C 
HETATM   30  O3  UNL     1      34.274   3.172  47.917  1.00  0.00    -0.388 OA
HETATM   31  C23 UNL     1      34.803   3.478  46.642  1.00  0.00     0.198 C 
HETATM   32  C24 UNL     1      33.926   4.621  46.123  1.00  0.00     0.298 C 
ENDBRANCH  26  27
ENDBRANCH  25  26
ENDBRANCH  24  25
ENDBRANCH  23  24
TORSDOF 4
ENDMDL
MODEL 6
REMARK VINA RESULT:      -9.0      3.263      5.310
REMARK  4 active torsions:
REMARK  status: ('A' for Active; 'I' for Inactive)
REMARK    1  A    between atoms: N4_23  and  C18_24 
REMARK    2  A    between atoms: C18_24  and  C19_25 
REMARK    3  A    between atoms: C19_25  and  C20_26 
REMARK    4  A    between atoms: C20_26  and  N5_27 
ROOT
HETATM    1  O1  UNL     1      21.223   2.362  49.667  1.00  0.00    -0.271 OA
HETATM    2  C1  UNL     1      21.948   3.365  49.450  1.00  0.00     0.248 C 
HETATM    3  C2  UNL     1      21.324   4.492  48.727  1.00  0.00     0.279 C 
HETATM    4  O2  UNL     1      22.262   5.329  48.115  1.00  0.00    -0.339 OA
HETATM    5  C3  UNL     1      23.580   5.495  48.475  1.00  0.00     0.108 A 
HETATM    6  C4  UNL     1      24.049   4.585  49.313  1.00  0.00     0.072 A 
HETATM    7  C5  UNL     1      25.458   4.987  49.534  1.00  0.00     0.047 A 
HETATM    8  C6  UNL     1      25.712   6.072  48.836  1.00  0.00     0.008 A 
HETATM    9  C7  UNL     1      24.614   6.467  48.145  1.00  0.00     0.030 A 
HETATM   10  C8  UNL     1      24.497   7.541  47.305  1.00  0.00     0.133 C 
HETATM   11  N1  UNL     1      25.367   8.576  47.434  1.00  0.00    -0.253 NA
HETATM   12  C9  UNL     1      25.183   9.398  48.510  1.00  0.00     0.233 C 
HETATM   13  N2  UNL     1      25.311   8.600  49.580  1.00  0.00    -0.237 NA
HETATM   14  C10 UNL     1      26.490   8.570  50.221  1.00  0.00     0.215 C 
HETATM   15  N3  UNL     1      27.272   7.929  49.299  1.00  0.00    -0.316 N 
HETATM   16  C11 UNL     1      26.985   6.659  48.879  1.00  0.00     0.051 C 
HETATM   17  C12 UNL     1      27.698   5.615  48.424  1.00  0.00     0.030 C 
HETATM   18  C13 UNL     1      29.135   5.448  48.180  1.00  0.00    -0.001 C 
HETATM   19  C14 UNL     1      30.017   6.321  47.687  1.00  0.00    -0.023 C 
HETATM   20  C15 UNL     1      30.023   7.715  47.199  1.00  0.00     0.055 C 
HETATM   21  C16 UNL     1      29.415   8.695  48.093  1.00  0.00    -0.005 C 
HETATM   22  C17 UNL     1      28.360   8.755  48.889  1.00  0.00     0.094 C 
HETATM   23  N4  UNL     1      23.314   3.495  49.847  1.00  0.00    -0.314 N 
ENDROOT
BRANCH  23  24
HETATM   24  C18 UNL     1      23.849   2.517  50.758  1.00  0.00     0.134 C 
BRANCH  24  25
HETATM   25  C19 UNL     1      23.803   3.148  52.152  1.00  0.00     0.050 C 
BRANCH  25  26
HETATM   26  C20 UNL     1      24.831   2.564  53.061  1.00  0.00     0.274 C 
BRANCH  26  27
HETATM   27  N5  UNL     1      25.718   1.635  52.396  1.00  0.00     0.092 N 
HETATM   28  C21 UNL     1      25.811   0.370  53.091  1.00  0.00     0.298 C 
HETATM   29  C22 UNL     1      26.526   0.425  54.399  1.00  0.00     0.198 C 
HETATM   30  O3  UNL     1      27.403   1.500  54.441  1.00  0.00    -0.388 OA
HETATM   31  C23 UNL     1      28.022   1.522  53.170  1.00  0.00     0.198 C 
HETATM   32  C24 UNL     1      27.014   2.228  52.259  1.00  0.00     0.298 C 
ENDBRANCH  26  27
ENDBRANCH  25  26
ENDBRANCH  24  25
ENDBRANCH  23  24
TORSDOF 4
ENDMDL
MODEL 7
REMARK VINA RESULT:      -8.9      2.531      5.731
REMARK  4 active torsions:
REMARK  status: ('A' for Active; 'I' for Inactive)
REMARK    1  A    between atoms: N4_23  and  C18_24 
REMARK    2  A    between atoms: C18_24  and  C19_25 
REMARK    3  A    between atoms: C19_25  and  C20_26 
REMARK    4  A    between atoms: C20_26  and  N5_27 
ROOT
HETATM    1  O1  UNL     1      26.142   6.105  49.827  1.00  0.00    -0.271 OA
HETATM    2  C1  UNL     1      25.049   5.532  50.067  1.00  0.00     0.248 C 
HETATM    3  C2  UNL     1      23.874   6.403  50.275  1.00  0.00     0.279 C 
HETATM    4  O2  UNL     1      22.849   5.769  50.985  1.00  0.00    -0.339 OA
HETATM    5  C3  UNL     1      22.625   4.415  51.079  1.00  0.00     0.108 A 
HETATM    6  C4  UNL     1      23.625   3.653  50.667  1.00  0.00     0.072 A 
HETATM    7  C5  UNL     1      23.135   2.269  50.870  1.00  0.00     0.047 A 
HETATM    8  C6  UNL     1      21.919   2.311  51.370  1.00  0.00     0.008 A 
HETATM    9  C7  UNL     1      21.512   3.594  51.537  1.00  0.00     0.030 A 
HETATM   10  C8  UNL     1      20.317   4.031  52.039  1.00  0.00     0.133 C 
HETATM   11  N1  UNL     1      19.244   3.199  52.006  1.00  0.00    -0.253 NA
HETATM   12  C9  UNL     1      18.660   3.003  50.787  1.00  0.00     0.233 C 
HETATM   13  N2  UNL     1      19.627   2.479  50.021  1.00  0.00    -0.237 NA
HETATM   14  C10 UNL     1      19.661   1.147  49.851  1.00  0.00     0.215 C 
HETATM   15  N3  UNL     1      20.038   0.735  51.100  1.00  0.00    -0.316 N 
HETATM   16  C11 UNL     1      21.229   1.122  51.650  1.00  0.00     0.051 C 
HETATM   17  C12 UNL     1      22.095   0.596  52.532  1.00  0.00     0.030 C 
HETATM   18  C13 UNL     1      22.072  -0.660  53.289  1.00  0.00    -0.001 C 
HETATM   19  C14 UNL     1      21.039  -1.285  53.863  1.00  0.00    -0.023 C 
HETATM   20  C15 UNL     1      19.586  -1.080  54.019  1.00  0.00     0.055 C 
HETATM   21  C16 UNL     1      18.854  -0.811  52.786  1.00  0.00    -0.005 C 
HETATM   22  C17 UNL     1      19.047  -0.111  51.680  1.00  0.00     0.094 C 
HETATM   23  N4  UNL     1      24.862   4.119  50.152  1.00  0.00    -0.314 N 
ENDROOT
BRANCH  23  24
HETATM   24  C18 UNL     1      25.936   3.268  49.709  1.00  0.00     0.134 C 
BRANCH  24  25
HETATM   25  C19 UNL     1      26.769   2.935  50.949  1.00  0.00     0.050 C 
BRANCH  25  26
HETATM   26  C20 UNL     1      26.704   1.485  51.290  1.00  0.00     0.274 C 
BRANCH  26  27
HETATM   27  N5  UNL     1      26.403   1.240  52.683  1.00  0.00     0.092 N 
HETATM   28  C21 UNL     1      27.083   2.165  53.564  1.00  0.00     0.298 C 
HETATM   29  C22 UNL     1      28.561   1.979  53.645  1.00  0.00     0.198 C 
HETATM   30  O3  UNL     1      28.917   0.679  53.315  1.00  0.00    -0.388 OA
HETATM   31  C23 UNL     1      27.955  -0.140  53.949  1.00  0.00     0.198 C 
HETATM   32  C24 UNL     1      26.743  -0.110  53.014  1.00  0.00     0.298 C 
ENDBRANCH  26  27
ENDBRANCH  25  26
ENDBRANCH  24  25
ENDBRANCH  23  24
TORSDOF 4
ENDMDL
MODEL 8
REMARK VINA RESULT:      -8.8      5.295      8.040
REMARK  4 active torsions:
REMARK  status: ('A' for Active; 'I' for Inactive)
REMARK    1  A    between atoms: N4_23  and  C18_24 
REMARK    2  A    between atoms: C18_24  and  C19_25 
REMARK    3  A    between atoms: C19_25  and  C20_26 
REMARK    4  A    between atoms: C20_26  and  N5_27 
ROOT
HETATM    1  O1  UNL     1      24.050   5.107  49.075  1.00  0.00    -0.271 OA
HETATM    2  C1  UNL     1      25.228   5.525  48.943  1.00  0.00     0.248 C 
HETATM    3  C2  UNL     1      25.399   6.977  48.738  1.00  0.00     0.279 C 
HETATM    4  O2  UNL     1      26.621   7.300  48.139  1.00  0.00    -0.339 OA
HETATM    5  C3  UNL     1      27.776   6.550  48.162  1.00  0.00     0.108 A 
HETATM    6  C4  UNL     1      27.623   5.301  48.572  1.00  0.00     0.072 A 
HETATM    7  C5  UNL     1      28.987   4.728  48.505  1.00  0.00     0.047 A 
HETATM    8  C6  UNL     1      29.822   5.649  48.075  1.00  0.00     0.008 A 
HETATM    9  C7  UNL     1      29.170   6.814  47.834  1.00  0.00     0.030 A 
HETATM   10  C8  UNL     1      29.700   7.986  47.370  1.00  0.00     0.133 C 
HETATM   11  N1  UNL     1      31.029   8.216  47.528  1.00  0.00    -0.253 NA
HETATM   12  C9  UNL     1      31.450   8.526  48.791  1.00  0.00     0.233 C 
HETATM   13  N2  UNL     1      31.111   7.466  49.537  1.00  0.00    -0.237 NA
HETATM   14  C10 UNL     1      32.049   6.544  49.806  1.00  0.00     0.215 C 
HETATM   15  N3  UNL     1      32.218   5.976  48.573  1.00  0.00    -0.316 N 
HETATM   16  C11 UNL     1      31.185   5.353  47.927  1.00  0.00     0.051 C 
HETATM   17  C12 UNL     1      31.074   4.352  47.039  1.00  0.00     0.030 C 
HETATM   18  C13 UNL     1      32.084   3.514  46.382  1.00  0.00    -0.001 C 
HETATM   19  C14 UNL     1      33.291   3.850  45.918  1.00  0.00    -0.023 C 
HETATM   20  C15 UNL     1      34.133   5.059  45.832  1.00  0.00     0.055 C 
HETATM   21  C16 UNL     1      34.310   5.792  47.081  1.00  0.00    -0.005 C 
HETATM   22  C17 UNL     1      33.561   6.131  48.118  1.00  0.00     0.094 C 
HETATM   23  N4  UNL     1      26.399   4.708  48.977  1.00  0.00    -0.314 N 
ENDROOT
BRANCH  23  24
HETATM   24  C18 UNL     1      26.260   3.345  49.421  1.00  0.00     0.134 C 
BRANCH  24  25
HETATM   25  C19 UNL     1      26.440   3.360  50.940  1.00  0.00     0.050 C 
BRANCH  25  26
HETATM   26  C20 UNL     1      25.838   2.156  51.583  1.00  0.00     0.274 C 
BRANCH  26  27
HETATM   27  N5  UNL     1      26.812   1.145  51.926  1.00  0.00     0.092 N 
HETATM   28  C21 UNL     1      26.220   0.023  52.621  1.00  0.00     0.298 C 
HETATM   29  C22 UNL     1      25.749   0.321  54.004  1.00  0.00     0.198 C 
HETATM   30  O3  UNL     1      26.430   1.406  54.538  1.00  0.00    -0.388 OA
HETATM   31  C23 UNL     1      27.779   1.219  54.158  1.00  0.00     0.198 C 
HETATM   32  C24 UNL     1      27.851   1.733  52.717  1.00  0.00     0.298 C 
ENDBRANCH  26  27
ENDBRANCH  25  26
ENDBRANCH  24  25
ENDBRANCH  23  24
TORSDOF 4
ENDMDL
MODEL 9
REMARK VINA RESULT:      -8.5      2.077      2.531
REMARK  4 active torsions:
REMARK  status: ('A' for Active; 'I' for Inactive)
REMARK    1  A    between atoms: N4_23  and  C18_24 
REMARK    2  A    between atoms: C18_24  and  C19_25 
REMARK    3  A    between atoms: C19_25  and  C20_26 
REMARK    4  A    between atoms: C20_26  and  N5_27 
ROOT
HETATM    1  O1  UNL     1      22.014  -1.530  55.134  1.00  0.00    -0.271 OA
HETATM    2  C1  UNL     1      21.886  -0.497  54.431  1.00  0.00     0.248 C 
HETATM    3  C2  UNL     1      20.838   0.460  54.840  1.00  0.00     0.279 C 
HETATM    4  O2  UNL     1      20.434   1.300  53.797  1.00  0.00    -0.339 OA
HETATM    5  C3  UNL     1      21.163   1.640  52.681  1.00  0.00     0.108 A 
HETATM    6  C4  UNL     1      22.237   0.896  52.466  1.00  0.00     0.072 A 
HETATM    7  C5  UNL     1      22.828   1.460  51.231  1.00  0.00     0.047 A 
HETATM    8  C6  UNL     1      22.088   2.466  50.817  1.00  0.00     0.008 A 
HETATM    9  C7  UNL     1      21.033   2.658  51.647  1.00  0.00     0.030 A 
HETATM   10  C8  UNL     1      20.045   3.598  51.536  1.00  0.00     0.133 C 
HETATM   11  N1  UNL     1      20.282   4.721  50.811  1.00  0.00    -0.253 NA
HETATM   12  C9  UNL     1      21.104   5.653  51.379  1.00  0.00     0.233 C 
HETATM   13  N2  UNL     1      22.268   5.016  51.569  1.00  0.00    -0.237 NA
HETATM   14  C10 UNL     1      23.247   5.185  50.666  1.00  0.00     0.215 C 
HETATM   15  N3  UNL     1      22.730   4.511  49.593  1.00  0.00    -0.316 N 
HETATM   16  C11 UNL     1      22.442   3.175  49.661  1.00  0.00     0.051 C 
HETATM   17  C12 UNL     1      22.404   2.157  48.786  1.00  0.00     0.030 C 
HETATM   18  C13 UNL     1      22.657   2.101  47.342  1.00  0.00    -0.001 C 
HETATM   19  C14 UNL     1      22.341   2.987  46.392  1.00  0.00    -0.023 C 
HETATM   20  C15 UNL     1      21.672   4.299  46.298  1.00  0.00     0.055 C 
HETATM   21  C16 UNL     1      22.165   5.322  47.215  1.00  0.00    -0.005 C 
HETATM   22  C17 UNL     1      22.565   5.380  48.474  1.00  0.00     0.094 C 
HETATM   23  N4  UNL     1      22.670  -0.183  53.279  1.00  0.00    -0.314 N 
ENDROOT
BRANCH  23  24
HETATM   24  C18 UNL     1      23.843  -0.978  53.024  1.00  0.00     0.134 C 
BRANCH  24  25
HETATM   25  C19 UNL     1      25.022  -0.005  52.947  1.00  0.00     0.050 C 
BRANCH  25  26
HETATM   26  C20 UNL     1      26.206  -0.504  53.705  1.00  0.00     0.274 C 
BRANCH  26  27
HETATM   27  N5  UNL     1      26.766   0.482  54.602  1.00  0.00     0.092 N 
HETATM   28  C21 UNL     1      26.672   1.825  54.072  1.00  0.00     0.298 C 
HETATM   29  C22 UNL     1      27.555   2.099  52.901  1.00  0.00     0.198 C 
HETATM   30  O3  UNL     1      28.645   1.238  52.889  1.00  0.00    -0.388 OA
HETATM   31  C23 UNL     1      29.072   1.164  54.234  1.00  0.00     0.198 C 
HETATM   32  C24 UNL     1      28.129   0.149  54.886  1.00  0.00     0.298 C 
ENDBRANCH  26  27
ENDBRANCH  25  26
ENDBRANCH  24  25
ENDBRANCH  23  24
TORSDOF 4
ENDMDL
