MODEL 1
REMARK VINA RESULT:      -8.1      0.000      0.000
REMARK  7 active torsions:
REMARK  status: ('A' for Active; 'I' for Inactive)
REMARK    1  A    between atoms: C2_2  and  C3_3 
REMARK    2  A    between atoms: C2_2  and  N2_11 
REMARK    3  A    between atoms: C3_3  and  C4_4 
REMARK    4  A    between atoms: C4_4  and  N1_5 
REMARK    5  A    between atoms: N2_11  and  C9_12 
REMARK    6  A    between atoms: C12_15  and  N3_16 
REMARK    7  A    between atoms: N3_16  and  C13_17 
ROOT
HETATM    1  C9  UNL     1      26.618   2.064  51.334  1.00  0.00     0.124 A 
HETATM    2  C10 UNL     1      25.763   1.142  51.907  1.00  0.00     0.068 A 
HETATM    3  C11 UNL     1      25.890   0.627  53.179  1.00  0.00     0.044 A 
HETATM    4  C12 UNL     1      25.034  -0.284  53.729  1.00  0.00     0.142 A 
HETATM    5  N4  UNL     1      25.377  -0.616  54.965  1.00  0.00    -0.224 NA
HETATM    6  C19 UNL     1      26.418  -0.171  55.674  1.00  0.00     0.236 A 
HETATM    7  N5  UNL     1      27.245   0.725  55.109  1.00  0.00    -0.240 NA
HETATM    8  C20 UNL     1      26.982   1.130  53.849  1.00  0.00     0.089 A 
HETATM    9  C21 UNL     1      27.866   2.045  53.336  1.00  0.00     0.151 A 
HETATM   10  N6  UNL     1      27.649   2.482  52.086  1.00  0.00    -0.241 NA
ENDROOT
BRANCH   1  11
HETATM   11  N2  UNL     1      26.408   2.549  50.009  1.00  0.00    -0.370 N 
HETATM   12  H17 UNL     1      26.482   1.859  49.223  1.00  0.00     0.161 HD
BRANCH  11  13
HETATM   13  C2  UNL     1      26.099   3.974  49.782  1.00  0.00     0.080 C 
HETATM   14  C1  UNL     1      27.167   4.620  48.958  1.00  0.00     0.032 C 
BRANCH  13  15
HETATM   15  C3  UNL     1      24.739   4.059  49.254  1.00  0.00     0.055 C 
BRANCH  15  16
HETATM   16  C4  UNL     1      23.555   4.018  50.144  1.00  0.00     0.274 C 
BRANCH  16  17
HETATM   17  N1  UNL     1      23.693   4.423  51.493  1.00  0.00     0.092 N 
HETATM   18  C5  UNL     1      23.530   5.908  51.583  1.00  0.00     0.298 C 
HETATM   19  C6  UNL     1      22.309   6.343  50.869  1.00  0.00     0.198 C 
HETATM   20  O1  UNL     1      21.228   5.516  50.919  1.00  0.00    -0.388 OA
HETATM   21  C7  UNL     1      21.251   4.451  51.748  1.00  0.00     0.198 C 
HETATM   22  C8  UNL     1      22.537   4.011  52.338  1.00  0.00     0.298 C 
ENDBRANCH  16  17
ENDBRANCH  15  16
ENDBRANCH  13  15
ENDBRANCH  11  13
ENDBRANCH   1  11
BRANCH   4  23
HETATM   23  N3  UNL     1      23.945  -0.761  52.994  1.00  0.00    -0.340 N 
HETATM   24  H19 UNL     1      23.985  -1.637  52.472  1.00  0.00     0.167 HD
BRANCH  23  25
HETATM   25  C13 UNL     1      22.668  -0.170  52.836  1.00  0.00     0.035 A 
HETATM   26  C14 UNL     1      21.813   0.046  53.890  1.00  0.00     0.032 A 
HETATM   27  C15 UNL     1      20.565   0.607  53.797  1.00  0.00     0.046 A 
HETATM   28  C16 UNL     1      20.087   1.002  52.565  1.00  0.00     0.133 A 
HETATM   29  F1  UNL     1      18.885   1.564  52.333  1.00  0.00    -0.205 F 
HETATM   30  C17 UNL     1      20.897   0.812  51.468  1.00  0.00     0.051 A 
HETATM   31 BR1  UNL     1      20.324   1.324  49.726  1.00  0.00    -0.048 Br
HETATM   32  C18 UNL     1      22.137   0.243  51.636  1.00  0.00     0.051 A 
ENDBRANCH  23  25
ENDBRANCH   4  23
TORSDOF 7
ENDMDL
MODEL 2
REMARK VINA RESULT:      -8.0      2.373      5.243
REMARK  7 active torsions:
REMARK  status: ('A' for Active; 'I' for Inactive)
REMARK    1  A    between atoms: C2_2  and  C3_3 
REMARK    2  A    between atoms: C2_2  and  N2_11 
REMARK    3  A    between atoms: C3_3  and  C4_4 
REMARK    4  A    between atoms: C4_4  and  N1_5 
REMARK    5  A    between atoms: N2_11  and  C9_12 
REMARK    6  A    between atoms: C12_15  and  N3_16 
REMARK    7  A    between atoms: N3_16  and  C13_17 
ROOT
HETATM    1  C9  UNL     1      24.505  -0.438  53.516  1.00  0.00     0.124 A 
HETATM    2  C10 UNL     1      25.243   0.377  52.679  1.00  0.00     0.068 A 
HETATM    3  C11 UNL     1      26.451   0.957  53.000  1.00  0.00     0.044 A 
HETATM    4  C12 UNL     1      27.167   1.759  52.157  1.00  0.00     0.142 A 
HETATM    5  N4  UNL     1      28.295   2.188  52.707  1.00  0.00    -0.224 NA
HETATM    6  C19 UNL     1      28.761   1.925  53.931  1.00  0.00     0.236 A 
HETATM    7  N5  UNL     1      28.037   1.133  54.739  1.00  0.00    -0.240 NA
HETATM    8  C20 UNL     1      26.869   0.643  54.273  1.00  0.00     0.089 A 
HETATM    9  C21 UNL     1      26.183  -0.159  55.151  1.00  0.00     0.151 A 
HETATM   10  N6  UNL     1      25.016  -0.674  54.735  1.00  0.00    -0.241 NA
ENDROOT
BRANCH   1  11
HETATM   11  N2  UNL     1      23.263  -1.002  53.097  1.00  0.00    -0.370 N 
HETATM   12  H17 UNL     1      23.293  -1.928  52.607  1.00  0.00     0.161 HD
BRANCH  11  13
HETATM   13  C2  UNL     1      21.999  -0.287  53.358  1.00  0.00     0.080 C 
HETATM   14  C1  UNL     1      21.542  -0.518  54.764  1.00  0.00     0.032 C 
BRANCH  13  15
HETATM   15  C3  UNL     1      22.186   1.109  52.964  1.00  0.00     0.055 C 
BRANCH  15  16
HETATM   16  C4  UNL     1      21.789   1.598  51.623  1.00  0.00     0.274 C 
BRANCH  16  17
HETATM   17  N1  UNL     1      21.181   0.699  50.714  1.00  0.00     0.092 N 
HETATM   18  C5  UNL     1      19.714   0.987  50.641  1.00  0.00     0.298 C 
HETATM   19  C6  UNL     1      19.475   2.431  50.424  1.00  0.00     0.198 C 
HETATM   20  O1  UNL     1      20.359   3.099  49.632  1.00  0.00    -0.388 OA
HETATM   21  C7  UNL     1      21.286   2.399  48.944  1.00  0.00     0.198 C 
HETATM   22  C8  UNL     1      21.543   0.983  49.296  1.00  0.00     0.298 C 
ENDBRANCH  16  17
ENDBRANCH  15  16
ENDBRANCH  13  15
ENDBRANCH  11  13
ENDBRANCH   1  11
BRANCH   4  23
HETATM   23  N3  UNL     1      26.685   2.045  50.877  1.00  0.00    -0.340 N 
HETATM   24  H19 UNL     1      26.698   1.356  50.126  1.00  0.00     0.167 HD
BRANCH  23  25
HETATM   25  C13 UNL     1      26.126   3.257  50.402  1.00  0.00     0.035 A 
HETATM   26  C14 UNL     1      26.740   4.035  49.450  1.00  0.00     0.032 A 
HETATM   27  C15 UNL     1      26.250   5.218  48.957  1.00  0.00     0.046 A 
HETATM   28  C16 UNL     1      25.048   5.704  49.426  1.00  0.00     0.133 A 
HETATM   29  F1  UNL     1      24.455   6.847  49.030  1.00  0.00    -0.205 F 
HETATM   30  C17 UNL     1      24.384   4.969  50.383  1.00  0.00     0.051 A 
HETATM   31 BR1  UNL     1      22.718   5.560  51.091  1.00  0.00    -0.048 Br
HETATM   32  C18 UNL     1      24.934   3.792  50.831  1.00  0.00     0.051 A 
ENDBRANCH  23  25
ENDBRANCH   4  23
TORSDOF 7
ENDMDL
MODEL 3
REMARK VINA RESULT:      -7.9      2.805      5.599
REMARK  7 active torsions:
REMARK  status: ('A' for Active; 'I' for Inactive)
REMARK    1  A    between atoms: C2_2  and  C3_3 
REMARK    2  A    between atoms: C2_2  and  N2_11 
REMARK    3  A    between atoms: C3_3  and  C4_4 
REMARK    4  A    between atoms: C4_4  and  N1_5 
REMARK    5  A    between atoms: N2_11  and  C9_12 
REMARK    6  A    between atoms: C12_15  and  N3_16 
REMARK    7  A    between atoms: N3_16  and  C13_17 
ROOT
HETATM    1  C9  UNL     1      21.353  -0.590  54.322  1.00  0.00     0.124 A 
HETATM    2  C10 UNL     1      22.221   0.018  53.435  1.00  0.00     0.068 A 
HETATM    3  C11 UNL     1      23.596  -0.057  53.493  1.00  0.00     0.044 A 
HETATM    4  C12 UNL     1      24.437   0.551  52.606  1.00  0.00     0.142 A 
HETATM    5  N4  UNL     1      25.713   0.321  52.883  1.00  0.00    -0.224 NA
HETATM    6  C19 UNL     1      26.216  -0.403  53.886  1.00  0.00     0.236 A 
HETATM    7  N5  UNL     1      25.365  -0.991  54.745  1.00  0.00    -0.240 NA
HETATM    8  C20 UNL     1      24.041  -0.818  54.550  1.00  0.00     0.089 A 
HETATM    9  C21 UNL     1      23.232  -1.447  55.463  1.00  0.00     0.151 A 
HETATM   10  N6  UNL     1      21.906  -1.308  55.313  1.00  0.00    -0.241 NA
ENDROOT
BRANCH   1  11
HETATM   11  N2  UNL     1      19.939  -0.463  54.183  1.00  0.00    -0.370 N 
HETATM   12  H17 UNL     1      19.445   0.197  54.830  1.00  0.00     0.161 HD
BRANCH  11  13
HETATM   13  C2  UNL     1      19.223  -1.247  53.157  1.00  0.00     0.080 C 
HETATM   14  C1  UNL     1      18.326  -2.259  53.797  1.00  0.00     0.032 C 
BRANCH  13  15
HETATM   15  C3  UNL     1      18.579  -0.304  52.243  1.00  0.00     0.055 C 
BRANCH  15  16
HETATM   16  C4  UNL     1      19.183   1.012  51.931  1.00  0.00     0.274 C 
BRANCH  16  17
HETATM   17  N1  UNL     1      19.127   1.499  50.603  1.00  0.00     0.092 N 
HETATM   18  C5  UNL     1      17.863   2.279  50.416  1.00  0.00     0.298 C 
HETATM   19  C6  UNL     1      17.694   3.267  51.506  1.00  0.00     0.198 C 
HETATM   20  O1  UNL     1      18.818   3.862  51.990  1.00  0.00    -0.388 OA
HETATM   21  C7  UNL     1      19.992   3.673  51.349  1.00  0.00     0.198 C 
HETATM   22  C8  UNL     1      20.111   2.588  50.347  1.00  0.00     0.298 C 
ENDBRANCH  16  17
ENDBRANCH  15  16
ENDBRANCH  13  15
ENDBRANCH  11  13
ENDBRANCH   1  11
BRANCH   4  23
HETATM   23  N3  UNL     1      23.922   1.316  51.556  1.00  0.00    -0.340 N 
HETATM   24  H19 UNL     1      23.588   0.893  50.690  1.00  0.00     0.167 HD
BRANCH  23  25
HETATM   25  C13 UNL     1      23.772   2.723  51.488  1.00  0.00     0.035 A 
HETATM   26  C14 UNL     1      23.594   3.506  52.603  1.00  0.00     0.032 A 
HETATM   27  C15 UNL     1      23.437   4.869  52.598  1.00  0.00     0.046 A 
HETATM   28  C16 UNL     1      23.453   5.550  51.399  1.00  0.00     0.133 A 
HETATM   29  F1  UNL     1      23.311   6.882  51.251  1.00  0.00    -0.205 F 
HETATM   30  C17 UNL     1      23.627   4.821  50.245  1.00  0.00     0.051 A 
HETATM   31 BR1  UNL     1      23.662   5.673  48.543  1.00  0.00    -0.048 Br
HETATM   32  C18 UNL     1      23.778   3.457  50.325  1.00  0.00     0.051 A 
ENDBRANCH  23  25
ENDBRANCH   4  23
TORSDOF 7
ENDMDL
MODEL 4
REMARK VINA RESULT:      -7.8      3.374      5.662
REMARK  7 active torsions:
REMARK  status: ('A' for Active; 'I' for Inactive)
REMARK    1  A    between atoms: C2_2  and  C3_3 
REMARK    2  A    between atoms: C2_2  and  N2_11 
REMARK    3  A    between atoms: C3_3  and  C4_4 
REMARK    4  A    between atoms: C4_4  and  N1_5 
REMARK    5  A    between atoms: N2_11  and  C9_12 
REMARK    6  A    between atoms: C12_15  and  N3_16 
REMARK    7  A    between atoms: N3_16  and  C13_17 
ROOT
HETATM    1  C9  UNL     1      20.604   0.641  51.528  1.00  0.00     0.124 A 
HETATM    2  C10 UNL     1      21.917   0.508  51.940  1.00  0.00     0.068 A 
HETATM    3  C11 UNL     1      22.328  -0.138  53.086  1.00  0.00     0.044 A 
HETATM    4  C12 UNL     1      23.631  -0.259  53.476  1.00  0.00     0.142 A 
HETATM    5  N4  UNL     1      23.757  -0.926  54.614  1.00  0.00    -0.224 NA
HETATM    6  C19 UNL     1      22.787  -1.454  55.365  1.00  0.00     0.236 A 
HETATM    7  N5  UNL     1      21.513  -1.320  54.959  1.00  0.00    -0.240 NA
HETATM    8  C20 UNL     1      21.277  -0.656  53.808  1.00  0.00     0.089 A 
HETATM    9  C21 UNL     1      19.955  -0.558  53.454  1.00  0.00     0.151 A 
HETATM   10  N6  UNL     1      19.665   0.092  52.317  1.00  0.00    -0.241 NA
ENDROOT
BRANCH   1  11
HETATM   11  N2  UNL     1      20.270   1.323  50.321  1.00  0.00    -0.370 N 
HETATM   12  H17 UNL     1      20.094   0.740  49.468  1.00  0.00     0.161 HD
BRANCH  11  13
HETATM   13  C2  UNL     1      20.183   2.796  50.303  1.00  0.00     0.080 C 
HETATM   14  C1  UNL     1      20.127   3.339  51.696  1.00  0.00     0.032 C 
BRANCH  13  15
HETATM   15  C3  UNL     1      21.268   3.297  49.460  1.00  0.00     0.055 C 
BRANCH  15  16
HETATM   16  C4  UNL     1      22.190   4.358  49.930  1.00  0.00     0.274 C 
BRANCH  16  17
HETATM   17  N1  UNL     1      23.587   4.149  49.836  1.00  0.00     0.092 N 
HETATM   18  C5  UNL     1      24.300   5.423  50.164  1.00  0.00     0.298 C 
HETATM   19  C6  UNL     1      23.786   5.999  51.427  1.00  0.00     0.198 C 
HETATM   20  O1  UNL     1      23.423   5.128  52.409  1.00  0.00    -0.388 OA
HETATM   21  C7  UNL     1      23.712   3.816  52.266  1.00  0.00     0.198 C 
HETATM   22  C8  UNL     1      24.116   3.297  50.938  1.00  0.00     0.298 C 
ENDBRANCH  16  17
ENDBRANCH  15  16
ENDBRANCH  13  15
ENDBRANCH  11  13
ENDBRANCH   1  11
BRANCH   4  23
HETATM   23  N3  UNL     1      24.653   0.295  52.700  1.00  0.00    -0.340 N 
HETATM   24  H19 UNL     1      24.505   0.580  51.732  1.00  0.00     0.167 HD
BRANCH  23  25
HETATM   25  C13 UNL     1      25.995   0.550  53.072  1.00  0.00     0.035 A 
HETATM   26  C14 UNL     1      26.442   1.799  53.432  1.00  0.00     0.032 A 
HETATM   27  C15 UNL     1      27.729   2.107  53.794  1.00  0.00     0.046 A 
HETATM   28  C16 UNL     1      28.685   1.114  53.814  1.00  0.00     0.133 A 
HETATM   29  F1  UNL     1      29.980   1.277  54.148  1.00  0.00    -0.205 F 
HETATM   30  C17 UNL     1      28.300  -0.160  53.462  1.00  0.00     0.051 A 
HETATM   31 BR1  UNL     1      29.550  -1.597  53.458  1.00  0.00    -0.048 Br
HETATM   32  C18 UNL     1      26.993  -0.396  53.109  1.00  0.00     0.051 A 
ENDBRANCH  23  25
ENDBRANCH   4  23
TORSDOF 7
ENDMDL
MODEL 5
REMARK VINA RESULT:      -7.8      3.309      5.170
REMARK  7 active torsions:
REMARK  status: ('A' for Active; 'I' for Inactive)
REMARK    1  A    between atoms: C2_2  and  C3_3 
REMARK    2  A    between atoms: C2_2  and  N2_11 
REMARK    3  A    between atoms: C3_3  and  C4_4 
REMARK    4  A    between atoms: C4_4  and  N1_5 
REMARK    5  A    between atoms: N2_11  and  C9_12 
REMARK    6  A    between atoms: C12_15  and  N3_16 
REMARK    7  A    between atoms: N3_16  and  C13_17 
ROOT
HETATM    1  C9  UNL     1      21.577   2.044  51.024  1.00  0.00     0.124 A 
HETATM    2  C10 UNL     1      22.563   1.250  51.579  1.00  0.00     0.068 A 
HETATM    3  C11 UNL     1      22.428   0.507  52.732  1.00  0.00     0.044 A 
HETATM    4  C12 UNL     1      23.414  -0.273  53.264  1.00  0.00     0.142 A 
HETATM    5  N4  UNL     1      23.028  -0.885  54.376  1.00  0.00    -0.224 NA
HETATM    6  C19 UNL     1      21.840  -0.810  54.981  1.00  0.00     0.236 A 
HETATM    7  N5  UNL     1      20.888  -0.036  54.436  1.00  0.00    -0.240 NA
HETATM    8  C20 UNL     1      21.180   0.632  53.300  1.00  0.00     0.089 A 
HETATM    9  C21 UNL     1      20.161   1.402  52.799  1.00  0.00     0.151 A 
HETATM   10  N6  UNL     1      20.400   2.086  51.669  1.00  0.00    -0.241 NA
ENDROOT
BRANCH   1  11
HETATM   11  N2  UNL     1      21.803   2.776  49.821  1.00  0.00    -0.370 N 
HETATM   12  H17 UNL     1      21.127   3.542  49.586  1.00  0.00     0.161 HD
BRANCH  11  13
HETATM   13  C2  UNL     1      22.954   2.446  48.958  1.00  0.00     0.080 C 
HETATM   14  C1  UNL     1      22.493   2.078  47.583  1.00  0.00     0.032 C 
BRANCH  13  15
HETATM   15  C3  UNL     1      23.908   3.551  49.043  1.00  0.00     0.055 C 
BRANCH  15  16
HETATM   16  C4  UNL     1      23.536   4.855  49.638  1.00  0.00     0.274 C 
BRANCH  16  17
HETATM   17  N1  UNL     1      24.231   5.314  50.783  1.00  0.00     0.092 N 
HETATM   18  C5  UNL     1      24.178   6.810  50.826  1.00  0.00     0.298 C 
HETATM   19  C6  UNL     1      22.790   7.288  50.641  1.00  0.00     0.198 C 
HETATM   20  O1  UNL     1      21.792   6.537  51.184  1.00  0.00    -0.388 OA
HETATM   21  C7  UNL     1      22.110   5.513  52.005  1.00  0.00     0.198 C 
HETATM   22  C8  UNL     1      23.507   5.020  52.052  1.00  0.00     0.298 C 
ENDBRANCH  16  17
ENDBRANCH  15  16
ENDBRANCH  13  15
ENDBRANCH  11  13
ENDBRANCH   1  11
BRANCH   4  23
HETATM   23  N3  UNL     1      24.662  -0.354  52.642  1.00  0.00    -0.340 N 
HETATM   24  H19 UNL     1      24.814  -0.912  51.802  1.00  0.00     0.167 HD
BRANCH  23  25
HETATM   25  C13 UNL     1      25.874   0.274  53.022  1.00  0.00     0.035 A 
HETATM   26  C14 UNL     1      25.959   1.617  53.299  1.00  0.00     0.032 A 
HETATM   27  C15 UNL     1      27.104   2.279  53.666  1.00  0.00     0.046 A 
HETATM   28  C16 UNL     1      28.287   1.581  53.778  1.00  0.00     0.133 A 
HETATM   29  F1  UNL     1      29.478   2.105  54.127  1.00  0.00    -0.205 F 
HETATM   30  C17 UNL     1      28.267   0.230  53.512  1.00  0.00     0.051 A 
HETATM   31 BR1  UNL     1      29.851  -0.818  53.640  1.00  0.00    -0.048 Br
HETATM   32  C18 UNL     1      27.083  -0.368  53.150  1.00  0.00     0.051 A 
ENDBRANCH  23  25
ENDBRANCH   4  23
TORSDOF 7
ENDMDL
MODEL 6
REMARK VINA RESULT:      -7.7      5.369      9.450
REMARK  7 active torsions:
REMARK  status: ('A' for Active; 'I' for Inactive)
REMARK    1  A    between atoms: C2_2  and  C3_3 
REMARK    2  A    between atoms: C2_2  and  N2_11 
REMARK    3  A    between atoms: C3_3  and  C4_4 
REMARK    4  A    between atoms: C4_4  and  N1_5 
REMARK    5  A    between atoms: N2_11  and  C9_12 
REMARK    6  A    between atoms: C12_15  and  N3_16 
REMARK    7  A    between atoms: N3_16  and  C13_17 
ROOT
HETATM    1  C9  UNL     1      25.120   4.366  49.472  1.00  0.00     0.124 A 
HETATM    2  C10 UNL     1      26.395   4.858  49.261  1.00  0.00     0.068 A 
HETATM    3  C11 UNL     1      26.693   6.036  48.612  1.00  0.00     0.044 A 
HETATM    4  C12 UNL     1      27.960   6.506  48.414  1.00  0.00     0.142 A 
HETATM    5  N4  UNL     1      27.973   7.662  47.764  1.00  0.00    -0.224 NA
HETATM    6  C19 UNL     1      26.928   8.360  47.314  1.00  0.00     0.236 A 
HETATM    7  N5  UNL     1      25.693   7.875  47.522  1.00  0.00    -0.240 NA
HETATM    8  C20 UNL     1      25.569   6.701  48.176  1.00  0.00     0.089 A 
HETATM    9  C21 UNL     1      24.280   6.267  48.354  1.00  0.00     0.151 A 
HETATM   10  N6  UNL     1      24.102   5.105  49.001  1.00  0.00    -0.241 NA
ENDROOT
BRANCH   1  11
HETATM   11  N2  UNL     1      24.903   3.136  50.161  1.00  0.00    -0.370 N 
HETATM   12  H17 UNL     1      24.269   2.434  49.710  1.00  0.00     0.161 HD
BRANCH  11  13
HETATM   13  C2  UNL     1      25.559   2.890  51.460  1.00  0.00     0.080 C 
HETATM   14  C1  UNL     1      24.540   2.759  52.548  1.00  0.00     0.032 C 
BRANCH  13  15
HETATM   15  C3  UNL     1      26.471   1.760  51.293  1.00  0.00     0.055 C 
BRANCH  15  16
HETATM   16  C4  UNL     1      27.214   1.185  52.439  1.00  0.00     0.274 C 
BRANCH  16  17
HETATM   17  N1  UNL     1      27.289  -0.222  52.576  1.00  0.00     0.092 N 
HETATM   18  C5  UNL     1      28.384  -0.567  53.538  1.00  0.00     0.298 C 
HETATM   19  C6  UNL     1      28.255   0.226  54.780  1.00  0.00     0.198 C 
HETATM   20  O1  UNL     1      26.996   0.498  55.222  1.00  0.00    -0.388 OA
HETATM   21  C7  UNL     1      25.945  -0.108  54.627  1.00  0.00     0.198 C 
HETATM   22  C8  UNL     1      26.134  -0.790  53.326  1.00  0.00     0.298 C 
ENDBRANCH  16  17
ENDBRANCH  15  16
ENDBRANCH  13  15
ENDBRANCH  11  13
ENDBRANCH   1  11
BRANCH   4  23
HETATM   23  N3  UNL     1      29.061   5.780  48.877  1.00  0.00    -0.340 N 
HETATM   24  H19 UNL     1      28.972   5.053  49.586  1.00  0.00     0.167 HD
BRANCH  23  25
HETATM   25  C13 UNL     1      30.417   5.900  48.485  1.00  0.00     0.035 A 
HETATM   26  C14 UNL     1      31.268   6.831  49.028  1.00  0.00     0.032 A 
HETATM   27  C15 UNL     1      32.586   6.997  48.684  1.00  0.00     0.046 A 
HETATM   28  C16 UNL     1      33.144   6.185  47.720  1.00  0.00     0.133 A 
HETATM   29  F1  UNL     1      34.420   6.241  47.289  1.00  0.00    -0.205 F 
HETATM   30  C17 UNL     1      32.341   5.231  47.136  1.00  0.00     0.051 A 
HETATM   31 BR1  UNL     1      33.022   4.065  45.794  1.00  0.00    -0.048 Br
HETATM   32  C18 UNL     1      31.029   5.121  47.530  1.00  0.00     0.051 A 
ENDBRANCH  23  25
ENDBRANCH   4  23
TORSDOF 7
ENDMDL
MODEL 7
REMARK VINA RESULT:      -7.5      6.096      9.918
REMARK  7 active torsions:
REMARK  status: ('A' for Active; 'I' for Inactive)
REMARK    1  A    between atoms: C2_2  and  C3_3 
REMARK    2  A    between atoms: C2_2  and  N2_11 
REMARK    3  A    between atoms: C3_3  and  C4_4 
REMARK    4  A    between atoms: C4_4  and  N1_5 
REMARK    5  A    between atoms: N2_11  and  C9_12 
REMARK    6  A    between atoms: C12_15  and  N3_16 
REMARK    7  A    between atoms: N3_16  and  C13_17 
ROOT
HETATM    1  C9  UNL     1      26.679   5.019  48.995  1.00  0.00     0.124 A 
HETATM    2  C10 UNL     1      27.988   4.944  48.557  1.00  0.00     0.068 A 
HETATM    3  C11 UNL     1      28.795   6.025  48.279  1.00  0.00     0.044 A 
HETATM    4  C12 UNL     1      30.087   5.930  47.847  1.00  0.00     0.142 A 
HETATM    5  N4  UNL     1      30.643   7.118  47.654  1.00  0.00    -0.224 NA
HETATM    6  C19 UNL     1      30.089   8.320  47.831  1.00  0.00     0.236 A 
HETATM    7  N5  UNL     1      28.816   8.385  48.256  1.00  0.00    -0.240 NA
HETATM    8  C20 UNL     1      28.158   7.228  48.483  1.00  0.00     0.089 A 
HETATM    9  C21 UNL     1      26.864   7.370  48.916  1.00  0.00     0.151 A 
HETATM   10  N6  UNL     1      26.166   6.250  49.158  1.00  0.00    -0.241 NA
ENDROOT
BRANCH   1  11
HETATM   11  N2  UNL     1      25.916   3.844  49.264  1.00  0.00    -0.370 N 
HETATM   12  H17 UNL     1      25.480   3.352  48.448  1.00  0.00     0.161 HD
BRANCH  11  13
HETATM   13  C2  UNL     1      25.762   3.364  50.651  1.00  0.00     0.080 C 
HETATM   14  C1  UNL     1      24.333   3.024  50.936  1.00  0.00     0.032 C 
BRANCH  13  15
HETATM   15  C3  UNL     1      26.733   2.291  50.863  1.00  0.00     0.055 C 
BRANCH  15  16
HETATM   16  C4  UNL     1      26.875   1.620  52.176  1.00  0.00     0.274 C 
BRANCH  16  17
HETATM   17  N1  UNL     1      26.906   0.205  52.227  1.00  0.00     0.092 N 
HETATM   18  C5  UNL     1      28.011  -0.232  53.138  1.00  0.00     0.298 C 
HETATM   19  C6  UNL     1      27.940   0.489  54.428  1.00  0.00     0.198 C 
HETATM   20  O1  UNL     1      26.702   0.774  54.918  1.00  0.00    -0.388 OA
HETATM   21  C7  UNL     1      25.617   0.240  54.317  1.00  0.00     0.198 C 
HETATM   22  C8  UNL     1      25.751  -0.369  52.973  1.00  0.00     0.298 C 
ENDBRANCH  16  17
ENDBRANCH  15  16
ENDBRANCH  13  15
ENDBRANCH  11  13
ENDBRANCH   1  11
BRANCH   4  23
HETATM   23  N3  UNL     1      30.675   4.677  47.654  1.00  0.00    -0.340 N 
HETATM   24  H19 UNL     1      30.204   3.811  47.917  1.00  0.00     0.167 HD
BRANCH  23  25
HETATM   25  C13 UNL     1      31.943   4.380  47.098  1.00  0.00     0.035 A 
HETATM   26  C14 UNL     1      32.946   3.776  47.818  1.00  0.00     0.032 A 
HETATM   27  C15 UNL     1      34.194   3.471  47.336  1.00  0.00     0.046 A 
HETATM   28  C16 UNL     1      34.511   3.776  46.029  1.00  0.00     0.133 A 
HETATM   29  F1  UNL     1      35.694   3.532  45.431  1.00  0.00    -0.205 F 
HETATM   30  C17 UNL     1      33.548   4.383  45.256  1.00  0.00     0.051 A 
HETATM   31 BR1  UNL     1      33.893   4.843  43.441  1.00  0.00    -0.048 Br
HETATM   32  C18 UNL     1      32.318   4.660  45.805  1.00  0.00     0.051 A 
ENDBRANCH  23  25
ENDBRANCH   4  23
TORSDOF 7
ENDMDL
MODEL 8
REMARK VINA RESULT:      -7.4      3.999      6.063
REMARK  7 active torsions:
REMARK  status: ('A' for Active; 'I' for Inactive)
REMARK    1  A    between atoms: C2_2  and  C3_3 
REMARK    2  A    between atoms: C2_2  and  N2_11 
REMARK    3  A    between atoms: C3_3  and  C4_4 
REMARK    4  A    between atoms: C4_4  and  N1_5 
REMARK    5  A    between atoms: N2_11  and  C9_12 
REMARK    6  A    between atoms: C12_15  and  N3_16 
REMARK    7  A    between atoms: N3_16  and  C13_17 
ROOT
HETATM    1  C9  UNL     1      23.731   3.019  49.832  1.00  0.00     0.124 A 
HETATM    2  C10 UNL     1      24.163   2.569  51.066  1.00  0.00     0.068 A 
HETATM    3  C11 UNL     1      23.571   1.559  51.793  1.00  0.00     0.044 A 
HETATM    4  C12 UNL     1      24.014   1.128  53.011  1.00  0.00     0.142 A 
HETATM    5  N4  UNL     1      23.270   0.144  53.498  1.00  0.00    -0.224 NA
HETATM    6  C19 UNL     1      22.198  -0.424  52.941  1.00  0.00     0.236 A 
HETATM    7  N5  UNL     1      21.784   0.019  51.742  1.00  0.00    -0.240 NA
HETATM    8  C20 UNL     1      22.475   1.021  51.159  1.00  0.00     0.089 A 
HETATM    9  C21 UNL     1      21.997   1.422  49.936  1.00  0.00     0.151 A 
HETATM   10  N6  UNL     1      22.650   2.415  49.313  1.00  0.00    -0.241 NA
ENDROOT
BRANCH   1  11
HETATM   11  N2  UNL     1      24.410   4.069  49.145  1.00  0.00    -0.370 N 
HETATM   12  H17 UNL     1      24.020   4.375  48.221  1.00  0.00     0.161 HD
BRANCH  11  13
HETATM   13  C2  UNL     1      25.614   4.684  49.737  1.00  0.00     0.080 C 
HETATM   14  C1  UNL     1      26.846   3.951  49.307  1.00  0.00     0.032 C 
BRANCH  13  15
HETATM   15  C3  UNL     1      25.579   6.115  49.438  1.00  0.00     0.055 C 
BRANCH  15  16
HETATM   16  C4  UNL     1      26.808   6.866  49.089  1.00  0.00     0.274 C 
BRANCH  16  17
HETATM   17  N1  UNL     1      26.809   7.689  47.937  1.00  0.00     0.092 N 
HETATM   18  C5  UNL     1      26.502   9.099  48.338  1.00  0.00     0.298 C 
HETATM   19  C6  UNL     1      27.360   9.519  49.469  1.00  0.00     0.198 C 
HETATM   20  O1  UNL     1      28.636   9.046  49.494  1.00  0.00    -0.388 OA
HETATM   21  C7  UNL     1      29.115   8.382  48.420  1.00  0.00     0.198 C 
HETATM   22  C8  UNL     1      28.175   7.899  47.381  1.00  0.00     0.298 C 
ENDBRANCH  16  17
ENDBRANCH  15  16
ENDBRANCH  13  15
ENDBRANCH  11  13
ENDBRANCH   1  11
BRANCH   4  23
HETATM   23  N3  UNL     1      25.131   1.721  53.605  1.00  0.00    -0.340 N 
HETATM   24  H19 UNL     1      25.062   2.573  54.161  1.00  0.00     0.167 HD
BRANCH  23  25
HETATM   25  C13 UNL     1      26.480   1.291  53.557  1.00  0.00     0.035 A 
HETATM   26  C14 UNL     1      27.540   2.159  53.668  1.00  0.00     0.032 A 
HETATM   27  C15 UNL     1      28.864   1.802  53.623  1.00  0.00     0.046 A 
HETATM   28  C16 UNL     1      29.206   0.477  53.453  1.00  0.00     0.133 A 
HETATM   29  F1  UNL     1      30.462  -0.008  53.391  1.00  0.00    -0.205 F 
HETATM   30  C17 UNL     1      28.188  -0.441  53.334  1.00  0.00     0.051 A 
HETATM   31 BR1  UNL     1      28.561  -2.293  53.096  1.00  0.00    -0.048 Br
HETATM   32  C18 UNL     1      26.883  -0.013  53.389  1.00  0.00     0.051 A 
ENDBRANCH  23  25
ENDBRANCH   4  23
TORSDOF 7
ENDMDL
MODEL 9
REMARK VINA RESULT:      -7.3      2.978      6.309
REMARK  7 active torsions:
REMARK  status: ('A' for Active; 'I' for Inactive)
REMARK    1  A    between atoms: C2_2  and  C3_3 
REMARK    2  A    between atoms: C2_2  and  N2_11 
REMARK    3  A    between atoms: C3_3  and  C4_4 
REMARK    4  A    between atoms: C4_4  and  N1_5 
REMARK    5  A    between atoms: N2_11  and  C9_12 
REMARK    6  A    between atoms: C12_15  and  N3_16 
REMARK    7  A    between atoms: N3_16  and  C13_17 
ROOT
HETATM    1  C9  UNL     1      23.113   4.677  51.536  1.00  0.00     0.124 A 
HETATM    2  C10 UNL     1      22.205   3.749  51.062  1.00  0.00     0.068 A 
HETATM    3  C11 UNL     1      21.004   4.052  50.458  1.00  0.00     0.044 A 
HETATM    4  C12 UNL     1      20.120   3.120  49.994  1.00  0.00     0.142 A 
HETATM    5  N4  UNL     1      19.041   3.673  49.456  1.00  0.00    -0.224 NA
HETATM    6  C19 UNL     1      18.761   4.973  49.335  1.00  0.00     0.236 A 
HETATM    7  N5  UNL     1      19.648   5.868  49.800  1.00  0.00    -0.240 NA
HETATM    8  C20 UNL     1      20.783   5.408  50.368  1.00  0.00     0.089 A 
HETATM    9  C21 UNL     1      21.643   6.377  50.819  1.00  0.00     0.151 A 
HETATM   10  N6  UNL     1      22.787   5.971  51.391  1.00  0.00    -0.241 NA
ENDROOT
BRANCH   1  11
HETATM   11  N2  UNL     1      24.339   4.273  52.144  1.00  0.00    -0.370 N 
HETATM   12  H17 UNL     1      24.906   5.010  52.627  1.00  0.00     0.161 HD
BRANCH  11  13
HETATM   13  C2  UNL     1      24.768   2.862  52.078  1.00  0.00     0.080 C 
HETATM   14  C1  UNL     1      25.779   2.669  50.992  1.00  0.00     0.032 C 
BRANCH  13  15
HETATM   15  C3  UNL     1      25.182   2.457  53.421  1.00  0.00     0.055 C 
BRANCH  15  16
HETATM   16  C4  UNL     1      26.422   1.679  53.651  1.00  0.00     0.274 C 
BRANCH  16  17
HETATM   17  N1  UNL     1      26.436   0.689  54.663  1.00  0.00     0.092 N 
HETATM   18  C5  UNL     1      25.749  -0.542  54.159  1.00  0.00     0.298 C 
HETATM   19  C6  UNL     1      26.275  -0.926  52.830  1.00  0.00     0.198 C 
HETATM   20  O1  UNL     1      27.601  -0.722  52.600  1.00  0.00    -0.388 OA
HETATM   21  C7  UNL     1      28.400  -0.359  53.626  1.00  0.00     0.198 C 
HETATM   22  C8  UNL     1      27.794   0.120  54.891  1.00  0.00     0.298 C 
ENDBRANCH  16  17
ENDBRANCH  15  16
ENDBRANCH  13  15
ENDBRANCH  11  13
ENDBRANCH   1  11
BRANCH   4  23
HETATM   23  N3  UNL     1      20.401   1.757  50.121  1.00  0.00    -0.340 N 
HETATM   24  H19 UNL     1      21.017   1.268  49.471  1.00  0.00     0.167 HD
BRANCH  23  25
HETATM   25  C13 UNL     1      19.924   0.851  51.099  1.00  0.00     0.035 A 
HETATM   26  C14 UNL     1      18.639   0.365  51.098  1.00  0.00     0.032 A 
HETATM   27  C15 UNL     1      18.120  -0.508  52.020  1.00  0.00     0.046 A 
HETATM   28  C16 UNL     1      18.917  -0.961  53.051  1.00  0.00     0.133 A 
HETATM   29  F1  UNL     1      18.537  -1.815  54.021  1.00  0.00    -0.205 F 
HETATM   30  C17 UNL     1      20.216  -0.509  53.108  1.00  0.00     0.051 A 
HETATM   31 BR1  UNL     1      21.392  -1.077  54.494  1.00  0.00    -0.048 Br
HETATM   32  C18 UNL     1      20.669   0.366  52.149  1.00  0.00     0.051 A 
ENDBRANCH  23  25
ENDBRANCH   4  23
TORSDOF 7
ENDMDL
