MODEL 1
REMARK VINA RESULT:      -8.0      0.000      0.000
REMARK  6 active torsions:
REMARK  status: ('A' for Active; 'I' for Inactive)
REMARK    1  A    between atoms: C3_3  and  N1_5 
REMARK    2  A    between atoms: N1_5  and  C4_6 
REMARK    3  A    between atoms: C6_8  and  C7_9 
REMARK    4  A    between atoms: C13_17  and  O2_18 
REMARK    5  A    between atoms: C16_21  and  N4_22 
REMARK    6  A    between atoms: C19_25  and  N5_26 
ROOT
HETATM    1  C4  UNL     1      23.169   1.706  51.545  1.00  0.00     0.061 A 
HETATM    2  C5  UNL     1      24.511   1.625  51.861  1.00  0.00     0.048 A 
HETATM    3  C6  UNL     1      24.917   0.819  52.925  1.00  0.00     0.026 A 
HETATM    4  C13 UNL     1      23.935   0.144  53.603  1.00  0.00     0.082 A 
HETATM    5  C15 UNL     1      22.602   0.240  53.271  1.00  0.00     0.069 A 
HETATM    6  C16 UNL     1      22.185   1.030  52.227  1.00  0.00     0.060 A 
ENDROOT
BRANCH   6   7
HETATM    7  N4  UNL     1      20.810   1.102  51.906  1.00  0.00    -0.379 N 
HETATM    8  C17 UNL     1      20.034   2.235  52.363  1.00  0.00     0.125 C 
HETATM    9  C18 UNL     1      18.914   2.522  51.400  1.00  0.00     0.055 C 
HETATM   10  C19 UNL     1      17.819   1.486  51.577  1.00  0.00     0.225 C 
HETATM   11  C22 UNL     1      18.538   0.162  51.767  1.00  0.00     0.055 C 
HETATM   12  C23 UNL     1      19.945   0.232  51.181  1.00  0.00     0.125 C 
BRANCH  10  13
HETATM   13  N5  UNL     1      16.940   1.468  50.443  1.00  0.00     0.084 N 
HETATM   14  C20 UNL     1      15.602   1.879  50.808  1.00  0.00     0.309 C 
HETATM   15  C21 UNL     1      17.434   2.389  49.444  1.00  0.00     0.309 C 
ENDBRANCH  10  13
ENDBRANCH   6   7
BRANCH   1  16
HETATM   16  N1  UNL     1      22.910   2.556  50.464  1.00  0.00    -0.335 N 
HETATM   17  H4  UNL     1      22.541   2.644  49.475  1.00  0.00     0.168 HD
BRANCH  16  18
HETATM   18  C3  UNL     1      23.300   3.893  50.749  1.00  0.00     0.141 A 
HETATM   19  C2  UNL     1      22.783   4.898  51.701  1.00  0.00     0.056 A 
HETATM   20  C1  UNL     1      23.593   5.927  51.457  1.00  0.00     0.209 A 
HETATM   21  O1  UNL     1      24.044   4.882  50.547  1.00  0.00    -0.332 OA
ENDBRANCH  16  18
ENDBRANCH   1  16
BRANCH   4  22
HETATM   22  O2  UNL     1      24.391  -0.646  54.654  1.00  0.00    -0.355 OA
HETATM   23  C14 UNL     1      23.472  -1.279  55.555  1.00  0.00     0.210 C 
ENDBRANCH   4  22
BRANCH   3  24
HETATM   24  C7  UNL     1      26.329   0.717  53.279  1.00  0.00     0.074 C 
HETATM   25  N2  UNL     1      27.046   1.341  54.207  1.00  0.00    -0.175 NA
HETATM   26  N3  UNL     1      28.394   0.890  54.145  1.00  0.00    -0.272 N 
HETATM   27  C8  UNL     1      29.793   0.531  54.099  1.00  0.00     0.111 A 
HETATM   28  C10 UNL     1      28.120  -0.529  53.859  1.00  0.00     0.143 A 
HETATM   29  C9  UNL     1      29.526  -0.740  53.832  1.00  0.00     0.020 A 
HETATM   30  C11 UNL     1      27.297  -0.268  52.598  1.00  0.00     0.065 C 
HETATM   31  C12 UNL     1      26.617  -1.531  52.213  1.00  0.00     0.019 C 
ENDBRANCH   3  24
TORSDOF 6
ENDMDL
MODEL 2
REMARK VINA RESULT:      -7.9      1.345      1.910
REMARK  6 active torsions:
REMARK  status: ('A' for Active; 'I' for Inactive)
REMARK    1  A    between atoms: C3_3  and  N1_5 
REMARK    2  A    between atoms: N1_5  and  C4_6 
REMARK    3  A    between atoms: C6_8  and  C7_9 
REMARK    4  A    between atoms: C13_17  and  O2_18 
REMARK    5  A    between atoms: C16_21  and  N4_22 
REMARK    6  A    between atoms: C19_25  and  N5_26 
ROOT
HETATM    1  C4  UNL     1      22.877   2.056  51.914  1.00  0.00     0.061 A 
HETATM    2  C5  UNL     1      24.219   1.968  52.225  1.00  0.00     0.048 A 
HETATM    3  C6  UNL     1      24.654   0.981  53.112  1.00  0.00     0.026 A 
HETATM    4  C13 UNL     1      23.697   0.146  53.628  1.00  0.00     0.082 A 
HETATM    5  C15 UNL     1      22.363   0.252  53.304  1.00  0.00     0.069 A 
HETATM    6  C16 UNL     1      21.919   1.218  52.433  1.00  0.00     0.060 A 
ENDROOT
BRANCH   6   7
HETATM    7  N4  UNL     1      20.544   1.297  52.113  1.00  0.00    -0.379 N 
HETATM    8  C17 UNL     1      19.892   0.156  51.507  1.00  0.00     0.125 C 
HETATM    9  C18 UNL     1      18.439   0.119  51.897  1.00  0.00     0.055 C 
HETATM   10  C19 UNL     1      17.680   1.179  51.120  1.00  0.00     0.225 C 
HETATM   11  C22 UNL     1      18.586   2.397  51.104  1.00  0.00     0.055 C 
HETATM   12  C23 UNL     1      19.581   2.336  52.258  1.00  0.00     0.125 C 
BRANCH  10  13
HETATM   13  N5  UNL     1      16.412   1.455  51.731  1.00  0.00     0.084 N 
HETATM   14  C20 UNL     1      15.484   2.027  50.780  1.00  0.00     0.309 C 
HETATM   15  C21 UNL     1      15.843   0.221  52.223  1.00  0.00     0.309 C 
ENDBRANCH  10  13
ENDBRANCH   6   7
BRANCH   1  16
HETATM   16  N1  UNL     1      22.589   3.094  51.021  1.00  0.00    -0.335 N 
HETATM   17  H4  UNL     1      22.431   4.134  50.891  1.00  0.00     0.168 HD
BRANCH  16  18
HETATM   18  C3  UNL     1      22.403   2.605  49.699  1.00  0.00     0.141 A 
HETATM   19  C2  UNL     1      23.136   2.843  48.438  1.00  0.00     0.056 A 
HETATM   20  C1  UNL     1      22.444   2.084  47.589  1.00  0.00     0.209 A 
HETATM   21  O1  UNL     1      21.776   1.902  48.871  1.00  0.00    -0.332 OA
ENDBRANCH  16  18
ENDBRANCH   1  16
BRANCH   4  22
HETATM   22  O2  UNL     1      24.181  -0.820  54.507  1.00  0.00    -0.355 OA
HETATM   23  C14 UNL     1      23.317  -1.444  55.466  1.00  0.00     0.210 C 
ENDBRANCH   4  22
BRANCH   3  24
HETATM   24  C7  UNL     1      26.067   0.867  53.458  1.00  0.00     0.074 C 
HETATM   25  N2  UNL     1      26.751   1.317  54.504  1.00  0.00    -0.175 NA
HETATM   26  N3  UNL     1      28.117   0.944  54.370  1.00  0.00    -0.272 N 
HETATM   27  C8  UNL     1      29.531   0.660  54.272  1.00  0.00     0.111 A 
HETATM   28  C10 UNL     1      27.907  -0.396  53.797  1.00  0.00     0.143 A 
HETATM   29  C9  UNL     1      29.321  -0.539  53.747  1.00  0.00     0.020 A 
HETATM   30  C11 UNL     1      27.081   0.084  52.603  1.00  0.00     0.065 C 
HETATM   31  C12 UNL     1      26.458  -1.100  51.959  1.00  0.00     0.019 C 
ENDBRANCH   3  24
TORSDOF 6
ENDMDL
MODEL 3
REMARK VINA RESULT:      -7.7      1.977      8.013
REMARK  6 active torsions:
REMARK  status: ('A' for Active; 'I' for Inactive)
REMARK    1  A    between atoms: C3_3  and  N1_5 
REMARK    2  A    between atoms: N1_5  and  C4_6 
REMARK    3  A    between atoms: C6_8  and  C7_9 
REMARK    4  A    between atoms: C13_17  and  O2_18 
REMARK    5  A    between atoms: C16_21  and  N4_22 
REMARK    6  A    between atoms: C19_25  and  N5_26 
ROOT
HETATM    1  C4  UNL     1      23.546   2.679  52.420  1.00  0.00     0.061 A 
HETATM    2  C5  UNL     1      22.305   3.126  52.010  1.00  0.00     0.048 A 
HETATM    3  C6  UNL     1      21.230   2.236  51.985  1.00  0.00     0.026 A 
HETATM    4  C13 UNL     1      21.482   0.947  52.378  1.00  0.00     0.082 A 
HETATM    5  C15 UNL     1      22.728   0.523  52.783  1.00  0.00     0.069 A 
HETATM    6  C16 UNL     1      23.797   1.386  52.813  1.00  0.00     0.060 A 
ENDROOT
BRANCH   6   7
HETATM    7  N4  UNL     1      25.062   0.923  53.241  1.00  0.00    -0.379 N 
HETATM    8  C17 UNL     1      25.678  -0.192  52.552  1.00  0.00     0.125 C 
HETATM    9  C18 UNL     1      27.177  -0.078  52.614  1.00  0.00     0.055 C 
HETATM   10  C19 UNL     1      27.655  -0.455  54.004  1.00  0.00     0.225 C 
HETATM   11  C22 UNL     1      26.655   0.170  54.961  1.00  0.00     0.055 C 
HETATM   12  C23 UNL     1      25.933   1.334  54.291  1.00  0.00     0.125 C 
BRANCH  10  13
HETATM   13  N5  UNL     1      28.991   0.015  54.234  1.00  0.00     0.084 N 
HETATM   14  C20 UNL     1      29.971  -0.905  53.698  1.00  0.00     0.309 C 
HETATM   15  C21 UNL     1      29.167   1.288  53.574  1.00  0.00     0.309 C 
ENDBRANCH  10  13
ENDBRANCH   6   7
BRANCH   1  16
HETATM   16  N1  UNL     1      24.527   3.677  52.387  1.00  0.00    -0.335 N 
HETATM   17  H4  UNL     1      25.002   4.470  52.904  1.00  0.00     0.168 HD
BRANCH  16  18
HETATM   18  C3  UNL     1      25.208   3.693  51.140  1.00  0.00     0.141 A 
HETATM   19  C2  UNL     1      26.431   3.011  50.665  1.00  0.00     0.056 A 
HETATM   20  C1  UNL     1      26.509   3.460  49.413  1.00  0.00     0.209 A 
HETATM   21  O1  UNL     1      25.314   4.095  49.956  1.00  0.00    -0.332 OA
ENDBRANCH  16  18
ENDBRANCH   1  16
BRANCH   4  22
HETATM   22  O2  UNL     1      20.378   0.100  52.335  1.00  0.00    -0.355 OA
HETATM   23  C14 UNL     1      19.844  -0.479  53.534  1.00  0.00     0.210 C 
ENDBRANCH   4  22
BRANCH   3  24
HETATM   24  C7  UNL     1      19.909   2.684  51.555  1.00  0.00     0.074 C 
HETATM   25  N2  UNL     1      19.024   3.485  52.138  1.00  0.00    -0.175 NA
HETATM   26  N3  UNL     1      17.876   3.603  51.306  1.00  0.00    -0.272 N 
HETATM   27  C8  UNL     1      16.651   3.720  50.549  1.00  0.00     0.111 A 
HETATM   28  C10 UNL     1      18.568   3.633  50.007  1.00  0.00     0.143 A 
HETATM   29  C9  UNL     1      17.292   3.734  49.389  1.00  0.00     0.020 A 
HETATM   30  C11 UNL     1      19.293   2.300  50.197  1.00  0.00     0.065 C 
HETATM   31  C12 UNL     1      20.327   2.173  49.139  1.00  0.00     0.019 C 
ENDBRANCH   3  24
TORSDOF 6
ENDMDL
MODEL 4
REMARK VINA RESULT:      -7.6      1.825      3.784
REMARK  6 active torsions:
REMARK  status: ('A' for Active; 'I' for Inactive)
REMARK    1  A    between atoms: C3_3  and  N1_5 
REMARK    2  A    between atoms: N1_5  and  C4_6 
REMARK    3  A    between atoms: C6_8  and  C7_9 
REMARK    4  A    between atoms: C13_17  and  O2_18 
REMARK    5  A    between atoms: C16_21  and  N4_22 
REMARK    6  A    between atoms: C19_25  and  N5_26 
ROOT
HETATM    1  C4  UNL     1      22.681   1.800  52.207  1.00  0.00     0.061 A 
HETATM    2  C5  UNL     1      23.872   1.545  52.858  1.00  0.00     0.048 A 
HETATM    3  C6  UNL     1      25.078   1.869  52.234  1.00  0.00     0.026 A 
HETATM    4  C13 UNL     1      24.999   2.432  50.986  1.00  0.00     0.082 A 
HETATM    5  C15 UNL     1      23.800   2.677  50.355  1.00  0.00     0.069 A 
HETATM    6  C16 UNL     1      22.604   2.363  50.955  1.00  0.00     0.060 A 
ENDROOT
BRANCH   6   7
HETATM    7  N4  UNL     1      21.390   2.634  50.285  1.00  0.00    -0.379 N 
HETATM    8  C17 UNL     1      20.770   1.592  49.493  1.00  0.00     0.125 C 
HETATM    9  C18 UNL     1      19.276   1.765  49.482  1.00  0.00     0.055 C 
HETATM   10  C19 UNL     1      18.907   2.916  48.563  1.00  0.00     0.225 C 
HETATM   11  C22 UNL     1      19.946   3.992  48.824  1.00  0.00     0.055 C 
HETATM   12  C23 UNL     1      20.578   3.801  50.199  1.00  0.00     0.125 C 
BRANCH  10  13
HETATM   13  N5  UNL     1      17.573   3.376  48.823  1.00  0.00     0.084 N 
HETATM   14  C20 UNL     1      16.676   3.018  47.746  1.00  0.00     0.309 C 
HETATM   15  C21 UNL     1      17.086   2.758  50.035  1.00  0.00     0.309 C 
ENDBRANCH  10  13
ENDBRANCH   6   7
BRANCH   1  16
HETATM   16  N1  UNL     1      21.558   1.417  52.948  1.00  0.00    -0.335 N 
HETATM   17  H4  UNL     1      20.612   1.700  53.334  1.00  0.00     0.168 HD
BRANCH  16  18
HETATM   18  C3  UNL     1      21.684   0.087  53.432  1.00  0.00     0.141 A 
HETATM   19  C2  UNL     1      21.500  -0.506  54.773  1.00  0.00     0.056 A 
HETATM   20  C1  UNL     1      21.773  -1.787  54.530  1.00  0.00     0.209 A 
HETATM   21  O1  UNL     1      21.934  -1.128  53.240  1.00  0.00    -0.332 OA
ENDBRANCH  16  18
ENDBRANCH   1  16
BRANCH   4  22
HETATM   22  O2  UNL     1      26.228   2.736  50.407  1.00  0.00    -0.355 OA
HETATM   23  C14 UNL     1      26.368   3.849  49.513  1.00  0.00     0.210 C 
ENDBRANCH   4  22
BRANCH   3  24
HETATM   24  C7  UNL     1      26.349   1.610  52.901  1.00  0.00     0.074 C 
HETATM   25  N2  UNL     1      26.981   2.267  53.868  1.00  0.00    -0.175 NA
HETATM   26  N3  UNL     1      28.204   1.604  54.167  1.00  0.00    -0.272 N 
HETATM   27  C8  UNL     1      29.490   1.027  54.481  1.00  0.00     0.111 A 
HETATM   28  C10 UNL     1      27.723   0.219  54.029  1.00  0.00     0.143 A 
HETATM   29  C9  UNL     1      29.041  -0.213  54.343  1.00  0.00     0.020 A 
HETATM   30  C11 UNL     1      27.224   0.380  52.594  1.00  0.00     0.065 C 
HETATM   31  C12 UNL     1      26.402  -0.807  52.248  1.00  0.00     0.019 C 
ENDBRANCH   3  24
TORSDOF 6
ENDMDL
MODEL 5
REMARK VINA RESULT:      -7.2      5.349      8.290
REMARK  6 active torsions:
REMARK  status: ('A' for Active; 'I' for Inactive)
REMARK    1  A    between atoms: C3_3  and  N1_5 
REMARK    2  A    between atoms: N1_5  and  C4_6 
REMARK    3  A    between atoms: C6_8  and  C7_9 
REMARK    4  A    between atoms: C13_17  and  O2_18 
REMARK    5  A    between atoms: C16_21  and  N4_22 
REMARK    6  A    between atoms: C19_25  and  N5_26 
ROOT
HETATM    1  C4  UNL     1      25.417   7.123  50.361  1.00  0.00     0.061 A 
HETATM    2  C5  UNL     1      26.309   8.162  50.178  1.00  0.00     0.048 A 
HETATM    3  C6  UNL     1      27.373   8.005  49.289  1.00  0.00     0.026 A 
HETATM    4  C13 UNL     1      27.465   6.801  48.639  1.00  0.00     0.082 A 
HETATM    5  C15 UNL     1      26.565   5.778  48.836  1.00  0.00     0.069 A 
HETATM    6  C16 UNL     1      25.512   5.917  49.709  1.00  0.00     0.060 A 
ENDROOT
BRANCH   6   7
HETATM    7  N4  UNL     1      24.600   4.851  49.884  1.00  0.00    -0.379 N 
HETATM    8  C17 UNL     1      23.599   4.601  48.868  1.00  0.00     0.125 C 
HETATM    9  C18 UNL     1      23.252   3.138  48.828  1.00  0.00     0.055 C 
HETATM   10  C19 UNL     1      22.373   2.795  50.018  1.00  0.00     0.225 C 
HETATM   11  C22 UNL     1      22.962   3.558  51.191  1.00  0.00     0.055 C 
HETATM   12  C23 UNL     1      24.426   3.895  50.926  1.00  0.00     0.125 C 
BRANCH  10  13
HETATM   13  N5  UNL     1      22.350   1.379  50.249  1.00  0.00     0.084 N 
HETATM   14  C20 UNL     1      22.041   1.077  51.629  1.00  0.00     0.309 C 
HETATM   15  C21 UNL     1      21.328   0.780  49.421  1.00  0.00     0.309 C 
ENDBRANCH  10  13
ENDBRANCH   6   7
BRANCH   1  16
HETATM   16  N1  UNL     1      24.410   7.421  51.285  1.00  0.00    -0.335 N 
HETATM   17  H4  UNL     1      24.134   7.481  52.306  1.00  0.00     0.168 HD
BRANCH  16  18
HETATM   18  C3  UNL     1      23.206   7.804  50.634  1.00  0.00     0.141 A 
HETATM   19  C2  UNL     1      21.822   7.293  50.722  1.00  0.00     0.056 A 
HETATM   20  C1  UNL     1      21.195   8.090  49.858  1.00  0.00     0.209 A 
HETATM   21  O1  UNL     1      22.583   8.536  49.828  1.00  0.00    -0.332 OA
ENDBRANCH  16  18
ENDBRANCH   1  16
BRANCH   4  22
HETATM   22  O2  UNL     1      28.542   6.694  47.764  1.00  0.00    -0.355 OA
HETATM   23  C14 UNL     1      29.611   5.770  48.016  1.00  0.00     0.210 C 
ENDBRANCH   4  22
BRANCH   3  24
HETATM   24  C7  UNL     1      28.328   9.087  49.079  1.00  0.00     0.074 C 
HETATM   25  N2  UNL     1      29.571   9.255  49.518  1.00  0.00    -0.175 NA
HETATM   26  N3  UNL     1      30.079  10.492  49.033  1.00  0.00    -0.272 N 
HETATM   27  C8  UNL     1      30.641  11.762  48.635  1.00  0.00     0.111 A 
HETATM   28  C10 UNL     1      29.476  10.448  47.691  1.00  0.00     0.143 A 
HETATM   29  C9  UNL     1      30.081  11.709  47.435  1.00  0.00     0.020 A 
HETATM   30  C11 UNL     1      28.035  10.305  48.182  1.00  0.00     0.065 C 
HETATM   31  C12 UNL     1      27.179   9.943  47.025  1.00  0.00     0.019 C 
ENDBRANCH   3  24
TORSDOF 6
ENDMDL
MODEL 6
REMARK VINA RESULT:      -7.1      1.482      8.014
REMARK  6 active torsions:
REMARK  status: ('A' for Active; 'I' for Inactive)
REMARK    1  A    between atoms: C3_3  and  N1_5 
REMARK    2  A    between atoms: N1_5  and  C4_6 
REMARK    3  A    between atoms: C6_8  and  C7_9 
REMARK    4  A    between atoms: C13_17  and  O2_18 
REMARK    5  A    between atoms: C16_21  and  N4_22 
REMARK    6  A    between atoms: C19_25  and  N5_26 
ROOT
HETATM    1  C4  UNL     1      23.223   1.443  51.306  1.00  0.00     0.061 A 
HETATM    2  C5  UNL     1      21.916   1.522  50.869  1.00  0.00     0.048 A 
HETATM    3  C6  UNL     1      20.918   0.836  51.563  1.00  0.00     0.026 A 
HETATM    4  C13 UNL     1      21.311   0.112  52.659  1.00  0.00     0.082 A 
HETATM    5  C15 UNL     1      22.621   0.047  53.078  1.00  0.00     0.069 A 
HETATM    6  C16 UNL     1      23.615   0.716  52.404  1.00  0.00     0.060 A 
ENDROOT
BRANCH   6   7
HETATM    7  N4  UNL     1      24.950   0.636  52.863  1.00  0.00    -0.379 N 
HETATM    8  C17 UNL     1      25.572  -0.664  53.007  1.00  0.00     0.125 C 
HETATM    9  C18 UNL     1      27.056  -0.558  52.783  1.00  0.00     0.055 C 
HETATM   10  C19 UNL     1      27.707   0.076  53.999  1.00  0.00     0.225 C 
HETATM   11  C22 UNL     1      26.770   1.192  54.425  1.00  0.00     0.055 C 
HETATM   12  C23 UNL     1      25.894   1.628  53.255  1.00  0.00     0.125 C 
BRANCH  10  13
HETATM   13  N5  UNL     1      29.020   0.561  53.686  1.00  0.00     0.084 N 
HETATM   14  C20 UNL     1      29.415   1.625  54.583  1.00  0.00     0.309 C 
HETATM   15  C21 UNL     1      29.971  -0.519  53.827  1.00  0.00     0.309 C 
ENDBRANCH  10  13
ENDBRANCH   6   7
BRANCH   1  16
HETATM   16  N1  UNL     1      24.113   2.173  50.510  1.00  0.00    -0.335 N 
HETATM   17  H4  UNL     1      24.909   2.140  49.811  1.00  0.00     0.168 HD
BRANCH  16  18
HETATM   18  C3  UNL     1      23.926   3.572  50.672  1.00  0.00     0.141 A 
HETATM   19  C2  UNL     1      23.775   4.423  51.871  1.00  0.00     0.056 A 
HETATM   20  C1  UNL     1      23.637   5.628  51.318  1.00  0.00     0.209 A 
HETATM   21  O1  UNL     1      23.793   4.722  50.187  1.00  0.00    -0.332 OA
ENDBRANCH  16  18
ENDBRANCH   1  16
BRANCH   4  22
HETATM   22  O2  UNL     1      20.279  -0.553  53.317  1.00  0.00    -0.355 OA
HETATM   23  C14 UNL     1      20.553  -1.643  54.208  1.00  0.00     0.210 C 
ENDBRANCH   4  22
BRANCH   3  24
HETATM   24  C7  UNL     1      19.529   0.903  51.121  1.00  0.00     0.074 C 
HETATM   25  N2  UNL     1      18.656  -0.056  50.830  1.00  0.00    -0.175 NA
HETATM   26  N3  UNL     1      17.422   0.534  50.438  1.00  0.00    -0.272 N 
HETATM   27  C8  UNL     1      16.160   1.058  49.967  1.00  0.00     0.111 A 
HETATM   28  C10 UNL     1      17.417   1.651  51.397  1.00  0.00     0.143 A 
HETATM   29  C9  UNL     1      16.180   2.063  50.831  1.00  0.00     0.020 A 
HETATM   30  C11 UNL     1      18.762   2.228  50.956  1.00  0.00     0.065 C 
HETATM   31  C12 UNL     1      19.189   3.239  51.956  1.00  0.00     0.019 C 
ENDBRANCH   3  24
TORSDOF 6
ENDMDL
MODEL 7
REMARK VINA RESULT:      -7.0      3.293      6.260
REMARK  6 active torsions:
REMARK  status: ('A' for Active; 'I' for Inactive)
REMARK    1  A    between atoms: C3_3  and  N1_5 
REMARK    2  A    between atoms: N1_5  and  C4_6 
REMARK    3  A    between atoms: C6_8  and  C7_9 
REMARK    4  A    between atoms: C13_17  and  O2_18 
REMARK    5  A    between atoms: C16_21  and  N4_22 
REMARK    6  A    between atoms: C19_25  and  N5_26 
ROOT
HETATM    1  C4  UNL     1      23.944   3.874  51.507  1.00  0.00     0.061 A 
HETATM    2  C5  UNL     1      24.813   4.807  50.979  1.00  0.00     0.048 A 
HETATM    3  C6  UNL     1      24.577   5.318  49.701  1.00  0.00     0.026 A 
HETATM    4  C13 UNL     1      23.471   4.848  49.040  1.00  0.00     0.082 A 
HETATM    5  C15 UNL     1      22.618   3.916  49.586  1.00  0.00     0.069 A 
HETATM    6  C16 UNL     1      22.837   3.403  50.842  1.00  0.00     0.060 A 
ENDROOT
BRANCH   6   7
HETATM    7  N4  UNL     1      21.939   2.453  51.379  1.00  0.00    -0.379 N 
HETATM    8  C17 UNL     1      22.001   1.081  50.920  1.00  0.00     0.125 C 
HETATM    9  C18 UNL     1      21.563   0.145  52.014  1.00  0.00     0.055 C 
HETATM   10  C19 UNL     1      20.053   0.206  52.156  1.00  0.00     0.225 C 
HETATM   11  C22 UNL     1      19.691   1.674  52.016  1.00  0.00     0.055 C 
HETATM   12  C23 UNL     1      20.894   2.553  52.342  1.00  0.00     0.125 C 
BRANCH  10  13
HETATM   13  N5  UNL     1      19.633  -0.338  53.415  1.00  0.00     0.084 N 
HETATM   14  C20 UNL     1      18.467  -1.180  53.261  1.00  0.00     0.309 C 
HETATM   15  C21 UNL     1      20.698  -1.146  53.963  1.00  0.00     0.309 C 
ENDBRANCH  10  13
ENDBRANCH   6   7
BRANCH   1  16
HETATM   16  N1  UNL     1      24.311   3.447  52.789  1.00  0.00    -0.335 N 
HETATM   17  H4  UNL     1      24.143   3.529  53.832  1.00  0.00     0.168 HD
BRANCH  16  18
HETATM   18  C3  UNL     1      25.372   2.503  52.738  1.00  0.00     0.141 A 
HETATM   19  C2  UNL     1      25.606   1.314  51.891  1.00  0.00     0.056 A 
HETATM   20  C1  UNL     1      26.778   0.888  52.361  1.00  0.00     0.209 A 
HETATM   21  O1  UNL     1      26.474   2.072  53.154  1.00  0.00    -0.332 OA
ENDBRANCH  16  18
ENDBRANCH   1  16
BRANCH   4  22
HETATM   22  O2  UNL     1      23.280   5.388  47.771  1.00  0.00    -0.355 OA
HETATM   23  C14 UNL     1      22.097   6.138  47.458  1.00  0.00     0.210 C 
ENDBRANCH   4  22
BRANCH   3  24
HETATM   24  C7  UNL     1      25.480   6.306  49.120  1.00  0.00     0.074 C 
HETATM   25  N2  UNL     1      25.483   7.633  49.182  1.00  0.00    -0.175 NA
HETATM   26  N3  UNL     1      26.583   8.137  48.434  1.00  0.00    -0.272 N 
HETATM   27  C8  UNL     1      27.637   8.727  47.641  1.00  0.00     0.111 A 
HETATM   28  C10 UNL     1      27.567   7.104  48.798  1.00  0.00     0.143 A 
HETATM   29  C9  UNL     1      28.505   7.782  47.972  1.00  0.00     0.020 A 
HETATM   30  C11 UNL     1      26.729   5.924  48.304  1.00  0.00     0.065 C 
HETATM   31  C12 UNL     1      27.349   4.670  48.801  1.00  0.00     0.019 C 
ENDBRANCH   3  24
TORSDOF 6
ENDMDL
MODEL 8
REMARK VINA RESULT:      -7.0      6.290     10.453
REMARK  6 active torsions:
REMARK  status: ('A' for Active; 'I' for Inactive)
REMARK    1  A    between atoms: C3_3  and  N1_5 
REMARK    2  A    between atoms: N1_5  and  C4_6 
REMARK    3  A    between atoms: C6_8  and  C7_9 
REMARK    4  A    between atoms: C13_17  and  O2_18 
REMARK    5  A    between atoms: C16_21  and  N4_22 
REMARK    6  A    between atoms: C19_25  and  N5_26 
ROOT
HETATM    1  C4  UNL     1      27.803   6.333  48.473  1.00  0.00     0.061 A 
HETATM    2  C5  UNL     1      27.024   5.247  48.819  1.00  0.00     0.048 A 
HETATM    3  C6  UNL     1      25.904   5.436  49.630  1.00  0.00     0.026 A 
HETATM    4  C13 UNL     1      25.646   6.719  50.040  1.00  0.00     0.082 A 
HETATM    5  C15 UNL     1      26.437   7.788  49.684  1.00  0.00     0.069 A 
HETATM    6  C16 UNL     1      27.543   7.618  48.886  1.00  0.00     0.060 A 
ENDROOT
BRANCH   6   7
HETATM    7  N4  UNL     1      28.331   8.736  48.531  1.00  0.00    -0.379 N 
HETATM    8  C17 UNL     1      28.986   9.500  49.572  1.00  0.00     0.125 C 
HETATM    9  C18 UNL     1      30.258  10.109  49.050  1.00  0.00     0.055 C 
HETATM   10  C19 UNL     1      29.924  11.291  48.158  1.00  0.00     0.225 C 
HETATM   11  C22 UNL     1      28.721  10.856  47.340  1.00  0.00     0.055 C 
HETATM   12  C23 UNL     1      28.644   9.334  47.277  1.00  0.00     0.125 C 
BRANCH  10  13
HETATM   13  N5  UNL     1      31.042  11.646  47.332  1.00  0.00     0.084 N 
HETATM   14  C20 UNL     1      31.945  10.528  47.162  1.00  0.00     0.309 C 
HETATM   15  C21 UNL     1      30.562  12.035  46.025  1.00  0.00     0.309 C 
ENDBRANCH  10  13
ENDBRANCH   6   7
BRANCH   1  16
HETATM   16  N1  UNL     1      28.893   5.991  47.665  1.00  0.00    -0.335 N 
HETATM   17  H4  UNL     1      29.233   5.756  46.689  1.00  0.00     0.168 HD
BRANCH  16  18
HETATM   18  C3  UNL     1      30.090   5.887  48.424  1.00  0.00     0.141 A 
HETATM   19  C2  UNL     1      31.348   6.663  48.409  1.00  0.00     0.056 A 
HETATM   20  C1  UNL     1      32.045   6.046  49.362  1.00  0.00     0.209 A 
HETATM   21  O1  UNL     1      30.776   5.331  49.315  1.00  0.00    -0.332 OA
ENDBRANCH  16  18
ENDBRANCH   1  16
BRANCH   4  22
HETATM   22  O2  UNL     1      24.519   6.855  50.847  1.00  0.00    -0.355 OA
HETATM   23  C14 UNL     1      23.606   7.946  50.663  1.00  0.00     0.210 C 
ENDBRANCH   4  22
BRANCH   3  24
HETATM   24  C7  UNL     1      25.065   4.305  50.010  1.00  0.00     0.074 C 
HETATM   25  N2  UNL     1      25.029   3.576  51.120  1.00  0.00    -0.175 NA
HETATM   26  N3  UNL     1      24.026   2.575  50.994  1.00  0.00    -0.272 N 
HETATM   27  C8  UNL     1      23.073   1.491  50.915  1.00  0.00     0.111 A 
HETATM   28  C10 UNL     1      23.023   3.381  50.278  1.00  0.00     0.143 A 
HETATM   29  C9  UNL     1      22.187   2.231  50.262  1.00  0.00     0.020 A 
HETATM   30  C11 UNL     1      23.940   3.755  49.113  1.00  0.00     0.065 C 
HETATM   31  C12 UNL     1      23.285   4.832  48.329  1.00  0.00     0.019 C 
ENDBRANCH   3  24
TORSDOF 6
ENDMDL
MODEL 9
REMARK VINA RESULT:      -6.8      2.665      8.539
REMARK  6 active torsions:
REMARK  status: ('A' for Active; 'I' for Inactive)
REMARK    1  A    between atoms: C3_3  and  N1_5 
REMARK    2  A    between atoms: N1_5  and  C4_6 
REMARK    3  A    between atoms: C6_8  and  C7_9 
REMARK    4  A    between atoms: C13_17  and  O2_18 
REMARK    5  A    between atoms: C16_21  and  N4_22 
REMARK    6  A    between atoms: C19_25  and  N5_26 
ROOT
HETATM    1  C4  UNL     1      23.151   2.015  51.414  1.00  0.00     0.061 A 
HETATM    2  C5  UNL     1      22.194   2.787  50.785  1.00  0.00     0.048 A 
HETATM    3  C6  UNL     1      22.438   4.145  50.573  1.00  0.00     0.026 A 
HETATM    4  C13 UNL     1      23.640   4.635  51.015  1.00  0.00     0.082 A 
HETATM    5  C15 UNL     1      24.580   3.847  51.641  1.00  0.00     0.069 A 
HETATM    6  C16 UNL     1      24.354   2.509  51.857  1.00  0.00     0.060 A 
ENDROOT
BRANCH   6   7
HETATM    7  N4  UNL     1      25.342   1.725  52.496  1.00  0.00    -0.379 N 
HETATM    8  C17 UNL     1      26.127   0.796  51.709  1.00  0.00     0.125 C 
HETATM    9  C18 UNL     1      27.494   0.627  52.314  1.00  0.00     0.055 C 
HETATM   10  C19 UNL     1      27.394  -0.245  53.552  1.00  0.00     0.225 C 
HETATM   11  C22 UNL     1      26.133   0.208  54.267  1.00  0.00     0.055 C 
HETATM   12  C23 UNL     1      25.767   1.629  53.852  1.00  0.00     0.125 C 
BRANCH  10  13
HETATM   13  N5  UNL     1      28.562  -0.107  54.375  1.00  0.00     0.084 N 
HETATM   14  C20 UNL     1      29.605  -1.021  53.962  1.00  0.00     0.309 C 
HETATM   15  C21 UNL     1      29.073   1.239  54.252  1.00  0.00     0.309 C 
ENDBRANCH  10  13
ENDBRANCH   6   7
BRANCH   1  16
HETATM   16  N1  UNL     1      22.766   0.678  51.564  1.00  0.00    -0.335 N 
HETATM   17  H4  UNL     1      22.719  -0.285  51.124  1.00  0.00     0.168 HD
BRANCH  16  18
HETATM   18  C3  UNL     1      22.157   0.452  52.828  1.00  0.00     0.141 A 
HETATM   19  C2  UNL     1      22.260  -0.659  53.797  1.00  0.00     0.056 A 
HETATM   20  C1  UNL     1      21.438  -0.241  54.759  1.00  0.00     0.209 A 
HETATM   21  O1  UNL     1      21.391   0.813  53.754  1.00  0.00    -0.332 OA
ENDBRANCH  16  18
ENDBRANCH   1  16
BRANCH   4  22
HETATM   22  O2  UNL     1      23.835   5.993  50.781  1.00  0.00    -0.355 OA
HETATM   23  C14 UNL     1      25.054   6.475  50.199  1.00  0.00     0.210 C 
ENDBRANCH   4  22
BRANCH   3  24
HETATM   24  C7  UNL     1      21.443   4.981  49.911  1.00  0.00     0.074 C 
HETATM   25  N2  UNL     1      20.574   5.860  50.399  1.00  0.00    -0.175 NA
HETATM   26  N3  UNL     1      19.813   6.413  49.332  1.00  0.00    -0.272 N 
HETATM   27  C8  UNL     1      18.956   6.971  48.311  1.00  0.00     0.111 A 
HETATM   28  C10 UNL     1      20.895   6.503  48.336  1.00  0.00     0.143 A 
HETATM   29  C9  UNL     1      19.941   7.034  47.425  1.00  0.00     0.020 A 
HETATM   30  C11 UNL     1      21.259   5.019  48.382  1.00  0.00     0.065 C 
HETATM   31  C12 UNL     1      22.547   4.830  47.669  1.00  0.00     0.019 C 
ENDBRANCH   3  24
TORSDOF 6
ENDMDL
