MODEL 1
REMARK VINA RESULT:      -7.5      0.000      0.000
REMARK  3 active torsions:
REMARK  status: ('A' for Active; 'I' for Inactive)
REMARK    1  A    between atoms: O1_2  and  C2_3 
REMARK    2  A    between atoms: C7_8  and  O2_9 
REMARK    3  A    between atoms: N1_11  and  C9_12 
ROOT
HETATM    1  C2  UNL     1      22.147   0.741  51.922  1.00  0.00     0.103 A 
HETATM    2  C3  UNL     1      22.086  -0.091  53.020  1.00  0.00     0.071 A 
HETATM    3  C4  UNL     1      23.223  -0.328  53.761  1.00  0.00     0.064 A 
HETATM    4  C5  UNL     1      24.448   0.218  53.476  1.00  0.00     0.083 A 
HETATM    5  C6  UNL     1      24.448   1.040  52.367  1.00  0.00     0.073 A 
HETATM    6  C7  UNL     1      23.352   1.322  51.582  1.00  0.00     0.103 A 
HETATM    7  N1  UNL     1      25.646  -0.022  54.235  1.00  0.00    -0.257 N 
HETATM    8  N2  UNL     1      25.420  -0.884  55.306  1.00  0.00    -0.166 NA
HETATM    9  C14 UNL     1      24.289  -1.416  55.605  1.00  0.00     0.230 A 
HETATM   10  N3  UNL     1      23.091  -1.195  54.872  1.00  0.00    -0.348 N 
HETATM   11  H16 UNL     1      22.234  -1.681  55.210  1.00  0.00     0.167 HD
ENDROOT
BRANCH   7  12
HETATM   12  C9  UNL     1      26.884   0.618  53.837  1.00  0.00     0.152 A 
HETATM   13  C10 UNL     1      28.025   0.485  54.699  1.00  0.00     0.005 A 
HETATM   14  C11 UNL     1      28.694  -0.241  53.859  1.00  0.00    -0.069 A 
HETATM   15  C12 UNL     1      29.967  -0.979  53.595  1.00  0.00     0.044 C 
HETATM   16  C13 UNL     1      27.629  -0.226  52.865  1.00  0.00     0.114 A 
HETATM   17 BR1  UNL     1      26.901  -2.003  52.620  1.00  0.00    -0.084 Br
ENDBRANCH   7  12
BRANCH   6  18
HETATM   18  O2  UNL     1      23.401   2.154  50.479  1.00  0.00    -0.353 OA
HETATM   19  C8  UNL     1      24.395   3.183  50.463  1.00  0.00     0.210 C 
ENDBRANCH   6  18
BRANCH   1  20
HETATM   20  O1  UNL     1      21.017   0.999  51.158  1.00  0.00    -0.353 OA
HETATM   21  C1  UNL     1      19.801   0.406  51.576  1.00  0.00     0.210 C 
ENDBRANCH   1  20
TORSDOF 3
ENDMDL
MODEL 2
REMARK VINA RESULT:      -7.0      3.103      6.274
REMARK  3 active torsions:
REMARK  status: ('A' for Active; 'I' for Inactive)
REMARK    1  A    between atoms: O1_2  and  C2_3 
REMARK    2  A    between atoms: C7_8  and  O2_9 
REMARK    3  A    between atoms: N1_11  and  C9_12 
ROOT
HETATM    1  C2  UNL     1      27.152   0.815  53.018  1.00  0.00     0.103 A 
HETATM    2  C3  UNL     1      26.687   2.082  52.730  1.00  0.00     0.071 A 
HETATM    3  C4  UNL     1      25.330   2.314  52.672  1.00  0.00     0.064 A 
HETATM    4  C5  UNL     1      24.380   1.348  52.884  1.00  0.00     0.083 A 
HETATM    5  C6  UNL     1      24.904   0.103  53.166  1.00  0.00     0.073 A 
HETATM    6  C7  UNL     1      26.245  -0.201  53.241  1.00  0.00     0.103 A 
HETATM    7  N1  UNL     1      22.961   1.573  52.822  1.00  0.00    -0.257 N 
HETATM    8  N2  UNL     1      22.655   2.897  52.518  1.00  0.00    -0.166 NA
HETATM    9  C14 UNL     1      23.515   3.829  52.311  1.00  0.00     0.230 A 
HETATM   10  N3  UNL     1      24.922   3.635  52.367  1.00  0.00    -0.348 N 
HETATM   11  H16 UNL     1      25.522   4.467  52.182  1.00  0.00     0.167 HD
ENDROOT
BRANCH   7  12
HETATM   12  C9  UNL     1      22.053   0.470  53.071  1.00  0.00     0.152 A 
HETATM   13  C10 UNL     1      20.713   0.775  53.487  1.00  0.00     0.005 A 
HETATM   14  C11 UNL     1      20.173   0.340  52.392  1.00  0.00    -0.069 A 
HETATM   15  C12 UNL     1      18.900   0.121  51.637  1.00  0.00     0.044 C 
HETATM   16  C13 UNL     1      21.454  -0.021  51.801  1.00  0.00     0.114 A 
HETATM   17 BR1  UNL     1      21.827   1.085  50.256  1.00  0.00    -0.084 Br
ENDBRANCH   7  12
BRANCH   6  18
HETATM   18  O2  UNL     1      26.724  -1.466  53.528  1.00  0.00    -0.353 OA
HETATM   19  C8  UNL     1      26.925  -2.366  52.434  1.00  0.00     0.210 C 
ENDBRANCH   6  18
BRANCH   1  20
HETATM   20  O1  UNL     1      28.514   0.553  53.084  1.00  0.00    -0.353 OA
HETATM   21  C1  UNL     1      29.202   0.978  54.246  1.00  0.00     0.210 C 
ENDBRANCH   1  20
TORSDOF 3
ENDMDL
MODEL 3
REMARK VINA RESULT:      -6.9      2.205      3.458
REMARK  3 active torsions:
REMARK  status: ('A' for Active; 'I' for Inactive)
REMARK    1  A    between atoms: O1_2  and  C2_3 
REMARK    2  A    between atoms: C7_8  and  O2_9 
REMARK    3  A    between atoms: N1_11  and  C9_12 
ROOT
HETATM    1  C2  UNL     1      21.893   1.567  52.710  1.00  0.00     0.103 A 
HETATM    2  C3  UNL     1      22.677   2.268  51.816  1.00  0.00     0.071 A 
HETATM    3  C4  UNL     1      24.020   1.979  51.715  1.00  0.00     0.064 A 
HETATM    4  C5  UNL     1      24.654   1.020  52.462  1.00  0.00     0.083 A 
HETATM    5  C6  UNL     1      23.821   0.353  53.337  1.00  0.00     0.073 A 
HETATM    6  C7  UNL     1      22.472   0.588  53.490  1.00  0.00     0.103 A 
HETATM    7  N1  UNL     1      26.055   0.710  52.372  1.00  0.00    -0.257 N 
HETATM    8  N2  UNL     1      26.706   1.504  51.431  1.00  0.00    -0.166 NA
HETATM    9  C14 UNL     1      26.148   2.414  50.715  1.00  0.00     0.230 A 
HETATM   10  N3  UNL     1      24.766   2.739  50.782  1.00  0.00    -0.348 N 
HETATM   11  H16 UNL     1      24.427   3.495  50.151  1.00  0.00     0.167 HD
ENDROOT
BRANCH   7  12
HETATM   12  C9  UNL     1      26.611  -0.333  53.212  1.00  0.00     0.152 A 
HETATM   13  C10 UNL     1      27.603  -1.203  52.648  1.00  0.00     0.005 A 
HETATM   14  C11 UNL     1      28.560  -0.757  53.399  1.00  0.00    -0.069 A 
HETATM   15  C12 UNL     1      30.008  -0.857  53.756  1.00  0.00     0.044 C 
HETATM   16  C13 UNL     1      27.698   0.203  54.075  1.00  0.00     0.114 A 
HETATM   17 BR1  UNL     1      28.237   2.015  53.655  1.00  0.00    -0.084 Br
ENDBRANCH   7  12
BRANCH   6  18
HETATM   18  O2  UNL     1      21.676  -0.107  54.383  1.00  0.00    -0.353 OA
HETATM   19  C8  UNL     1      21.667  -1.535  54.295  1.00  0.00     0.210 C 
ENDBRANCH   6  18
BRANCH   1  20
HETATM   20  O1  UNL     1      20.536   1.836  52.832  1.00  0.00    -0.353 OA
HETATM   21  C1  UNL     1      20.036   2.978  52.160  1.00  0.00     0.210 C 
ENDBRANCH   1  20
TORSDOF 3
ENDMDL
MODEL 4
REMARK VINA RESULT:      -6.5      3.474      6.336
REMARK  3 active torsions:
REMARK  status: ('A' for Active; 'I' for Inactive)
REMARK    1  A    between atoms: O1_2  and  C2_3 
REMARK    2  A    between atoms: C7_8  and  O2_9 
REMARK    3  A    between atoms: N1_11  and  C9_12 
ROOT
HETATM    1  C2  UNL     1      26.090  -0.332  53.041  1.00  0.00     0.103 A 
HETATM    2  C3  UNL     1      26.689   0.523  52.138  1.00  0.00     0.071 A 
HETATM    3  C4  UNL     1      26.029   1.663  51.737  1.00  0.00     0.064 A 
HETATM    4  C5  UNL     1      24.782   2.021  52.182  1.00  0.00     0.083 A 
HETATM    5  C6  UNL     1      24.234   1.130  53.082  1.00  0.00     0.073 A 
HETATM    6  C7  UNL     1      24.835  -0.027  53.527  1.00  0.00     0.103 A 
HETATM    7  N1  UNL     1      24.077   3.205  51.771  1.00  0.00    -0.257 N 
HETATM    8  N2  UNL     1      24.811   3.958  50.857  1.00  0.00    -0.166 NA
HETATM    9  C14 UNL     1      25.979   3.656  50.415  1.00  0.00     0.230 A 
HETATM   10  N3  UNL     1      26.698   2.493  50.806  1.00  0.00    -0.348 N 
HETATM   11  H16 UNL     1      27.639   2.354  50.380  1.00  0.00     0.167 HD
ENDROOT
BRANCH   7  12
HETATM   12  C9  UNL     1      22.763   3.479  52.317  1.00  0.00     0.152 A 
HETATM   13  C10 UNL     1      22.179   4.767  52.067  1.00  0.00     0.005 A 
HETATM   14  C11 UNL     1      21.237   4.300  51.311  1.00  0.00    -0.069 A 
HETATM   15  C12 UNL     1      20.038   4.622  50.477  1.00  0.00     0.044 C 
HETATM   16  C13 UNL     1      21.697   2.924  51.440  1.00  0.00     0.114 A 
HETATM   17 BR1  UNL     1      22.327   2.254  49.736  1.00  0.00    -0.084 Br
ENDBRANCH   7  12
BRANCH   6  18
HETATM   18  O2  UNL     1      24.245  -0.892  54.431  1.00  0.00    -0.353 OA
HETATM   19  C8  UNL     1      22.817  -0.894  54.516  1.00  0.00     0.210 C 
ENDBRANCH   6  18
BRANCH   1  20
HETATM   20  O1  UNL     1      26.733  -1.487  53.463  1.00  0.00    -0.353 OA
HETATM   21  C1  UNL     1      27.168  -2.392  52.465  1.00  0.00     0.210 C 
ENDBRANCH   1  20
TORSDOF 3
ENDMDL
MODEL 5
REMARK VINA RESULT:      -6.4      3.083      6.111
REMARK  3 active torsions:
REMARK  status: ('A' for Active; 'I' for Inactive)
REMARK    1  A    between atoms: O1_2  and  C2_3 
REMARK    2  A    between atoms: C7_8  and  O2_9 
REMARK    3  A    between atoms: N1_11  and  C9_12 
ROOT
HETATM    1  C2  UNL     1      26.942   2.125  52.368  1.00  0.00     0.103 A 
HETATM    2  C3  UNL     1      26.192   1.292  53.173  1.00  0.00     0.071 A 
HETATM    3  C4  UNL     1      24.902   0.974  52.812  1.00  0.00     0.064 A 
HETATM    4  C5  UNL     1      24.289   1.440  51.677  1.00  0.00     0.083 A 
HETATM    5  C6  UNL     1      25.086   2.267  50.912  1.00  0.00     0.073 A 
HETATM    6  C7  UNL     1      26.381   2.627  51.211  1.00  0.00     0.103 A 
HETATM    7  N1  UNL     1      22.942   1.120  51.288  1.00  0.00    -0.257 N 
HETATM    8  N2  UNL     1      22.320   0.275  52.204  1.00  0.00    -0.166 NA
HETATM    9  C14 UNL     1      22.860  -0.180  53.278  1.00  0.00     0.230 A 
HETATM   10  N3  UNL     1      24.188   0.118  53.685  1.00  0.00    -0.348 N 
HETATM   11  H16 UNL     1      24.517  -0.311  54.576  1.00  0.00     0.167 HD
ENDROOT
BRANCH   7  12
HETATM   12  C9  UNL     1      22.405   1.671  50.059  1.00  0.00     0.152 A 
HETATM   13  C10 UNL     1      21.262   1.032  49.471  1.00  0.00     0.005 A 
HETATM   14  C11 UNL     1      20.467   2.029  49.698  1.00  0.00    -0.069 A 
HETATM   15  C12 UNL     1      19.078   2.567  49.562  1.00  0.00     0.044 C 
HETATM   16  C13 UNL     1      21.505   2.822  50.342  1.00  0.00     0.114 A 
HETATM   17 BR1  UNL     1      21.099   3.082  52.217  1.00  0.00    -0.084 Br
ENDBRANCH   7  12
BRANCH   6  18
HETATM   18  O2  UNL     1      27.142   3.462  50.413  1.00  0.00    -0.353 OA
HETATM   19  C8  UNL     1      26.470   4.191  49.381  1.00  0.00     0.210 C 
ENDBRANCH   6  18
BRANCH   1  20
HETATM   20  O1  UNL     1      28.245   2.462  52.707  1.00  0.00    -0.353 OA
HETATM   21  C1  UNL     1      28.805   1.833  53.845  1.00  0.00     0.210 C 
ENDBRANCH   1  20
TORSDOF 3
ENDMDL
MODEL 6
REMARK VINA RESULT:      -6.3      3.180      5.955
REMARK  3 active torsions:
REMARK  status: ('A' for Active; 'I' for Inactive)
REMARK    1  A    between atoms: O1_2  and  C2_3 
REMARK    2  A    between atoms: C7_8  and  O2_9 
REMARK    3  A    between atoms: N1_11  and  C9_12 
ROOT
HETATM    1  C2  UNL     1      26.961   0.116  53.641  1.00  0.00     0.103 A 
HETATM    2  C3  UNL     1      25.655  -0.325  53.704  1.00  0.00     0.071 A 
HETATM    3  C4  UNL     1      24.699   0.260  52.904  1.00  0.00     0.064 A 
HETATM    4  C5  UNL     1      24.957   1.281  52.025  1.00  0.00     0.083 A 
HETATM    5  C6  UNL     1      26.278   1.679  52.007  1.00  0.00     0.073 A 
HETATM    6  C7  UNL     1      27.286   1.140  52.776  1.00  0.00     0.103 A 
HETATM    7  N1  UNL     1      23.970   1.906  51.187  1.00  0.00    -0.257 N 
HETATM    8  N2  UNL     1      22.704   1.353  51.370  1.00  0.00    -0.166 NA
HETATM    9  C14 UNL     1      22.422   0.399  52.184  1.00  0.00     0.230 A 
HETATM   10  N3  UNL     1      23.378  -0.237  53.022  1.00  0.00    -0.348 N 
HETATM   11  H16 UNL     1      23.031  -1.000  53.641  1.00  0.00     0.167 HD
ENDROOT
BRANCH   7  12
HETATM   12  C9  UNL     1      24.367   2.974  50.292  1.00  0.00     0.152 A 
HETATM   13  C10 UNL     1      23.435   3.400  49.287  1.00  0.00     0.005 A 
HETATM   14  C11 UNL     1      23.248   4.567  49.818  1.00  0.00    -0.069 A 
HETATM   15  C12 UNL     1      22.536   5.878  49.717  1.00  0.00     0.044 C 
HETATM   16  C13 UNL     1      24.156   4.304  50.926  1.00  0.00     0.114 A 
HETATM   17 BR1  UNL     1      23.188   4.250  52.602  1.00  0.00    -0.084 Br
ENDBRANCH   7  12
BRANCH   6  18
HETATM   18  O2  UNL     1      28.598   1.574  52.723  1.00  0.00    -0.353 OA
HETATM   19  C8  UNL     1      29.015   2.553  53.678  1.00  0.00     0.210 C 
ENDBRANCH   6  18
BRANCH   1  20
HETATM   20  O1  UNL     1      27.946  -0.457  54.435  1.00  0.00    -0.353 OA
HETATM   21  C1  UNL     1      28.942  -1.223  53.784  1.00  0.00     0.210 C 
ENDBRANCH   1  20
TORSDOF 3
ENDMDL
MODEL 7
REMARK VINA RESULT:      -6.2      3.288      6.562
REMARK  3 active torsions:
REMARK  status: ('A' for Active; 'I' for Inactive)
REMARK    1  A    between atoms: O1_2  and  C2_3 
REMARK    2  A    between atoms: C7_8  and  O2_9 
REMARK    3  A    between atoms: N1_11  and  C9_12 
ROOT
HETATM    1  C2  UNL     1      25.620  -0.167  53.219  1.00  0.00     0.103 A 
HETATM    2  C3  UNL     1      25.956   0.755  52.250  1.00  0.00     0.071 A 
HETATM    3  C4  UNL     1      25.005   1.639  51.790  1.00  0.00     0.064 A 
HETATM    4  C5  UNL     1      23.709   1.668  52.236  1.00  0.00     0.083 A 
HETATM    5  C6  UNL     1      23.431   0.723  53.202  1.00  0.00     0.073 A 
HETATM    6  C7  UNL     1      24.330  -0.189  53.709  1.00  0.00     0.103 A 
HETATM    7  N1  UNL     1      22.703   2.580  51.763  1.00  0.00    -0.257 N 
HETATM    8  N2  UNL     1      23.198   3.442  50.787  1.00  0.00    -0.166 NA
HETATM    9  C14 UNL     1      24.404   3.445  50.342  1.00  0.00     0.230 A 
HETATM   10  N3  UNL     1      25.417   2.556  50.793  1.00  0.00    -0.348 N 
HETATM   11  H16 UNL     1      26.359   2.654  50.358  1.00  0.00     0.167 HD
ENDROOT
BRANCH   7  12
HETATM   12  C9  UNL     1      21.365   2.517  52.316  1.00  0.00     0.152 A 
HETATM   13  C10 UNL     1      20.441   3.563  51.981  1.00  0.00     0.005 A 
HETATM   14  C11 UNL     1      19.669   2.789  51.286  1.00  0.00    -0.069 A 
HETATM   15  C12 UNL     1      18.427   2.692  50.458  1.00  0.00     0.044 C 
HETATM   16  C13 UNL     1      20.499   1.614  51.511  1.00  0.00     0.114 A 
HETATM   17 BR1  UNL     1      21.292   1.012  49.850  1.00  0.00    -0.084 Br
ENDBRANCH   7  12
BRANCH   6  18
HETATM   18  O2  UNL     1      24.004  -1.119  54.680  1.00  0.00    -0.353 OA
HETATM   19  C8  UNL     1      22.628  -1.240  55.052  1.00  0.00     0.210 C 
ENDBRANCH   6  18
BRANCH   1  20
HETATM   20  O1  UNL     1      26.558  -1.069  53.702  1.00  0.00    -0.353 OA
HETATM   21  C1  UNL     1      27.879  -0.962  53.205  1.00  0.00     0.210 C 
ENDBRANCH   1  20
TORSDOF 3
ENDMDL
MODEL 8
REMARK VINA RESULT:      -5.8      3.729      5.823
REMARK  3 active torsions:
REMARK  status: ('A' for Active; 'I' for Inactive)
REMARK    1  A    between atoms: O1_2  and  C2_3 
REMARK    2  A    between atoms: C7_8  and  O2_9 
REMARK    3  A    between atoms: N1_11  and  C9_12 
ROOT
HETATM    1  C2  UNL     1      22.217   0.194  53.702  1.00  0.00     0.103 A 
HETATM    2  C3  UNL     1      21.130   1.019  53.496  1.00  0.00     0.071 A 
HETATM    3  C4  UNL     1      21.172   1.964  52.495  1.00  0.00     0.064 A 
HETATM    4  C5  UNL     1      22.248   2.153  51.666  1.00  0.00     0.083 A 
HETATM    5  C6  UNL     1      23.303   1.301  51.920  1.00  0.00     0.073 A 
HETATM    6  C7  UNL     1      23.331   0.334  52.901  1.00  0.00     0.103 A 
HETATM    7  N1  UNL     1      22.309   3.139  50.620  1.00  0.00    -0.257 N 
HETATM    8  N2  UNL     1      21.140   3.891  50.543  1.00  0.00    -0.166 NA
HETATM    9  C14 UNL     1      20.112   3.746  51.301  1.00  0.00     0.230 A 
HETATM   10  N3  UNL     1      20.025   2.780  52.341  1.00  0.00    -0.348 N 
HETATM   11  H16 UNL     1      19.140   2.756  52.890  1.00  0.00     0.167 HD
ENDROOT
BRANCH   7  12
HETATM   12  C9  UNL     1      23.503   3.239  49.804  1.00  0.00     0.152 A 
HETATM   13  C10 UNL     1      23.420   3.959  48.565  1.00  0.00     0.005 A 
HETATM   14  C11 UNL     1      24.194   4.919  48.961  1.00  0.00    -0.069 A 
HETATM   15  C12 UNL     1      24.852   6.213  48.601  1.00  0.00     0.044 C 
HETATM   16  C13 UNL     1      24.383   4.338  50.283  1.00  0.00     0.114 A 
HETATM   17 BR1  UNL     1      23.591   5.467  51.643  1.00  0.00    -0.084 Br
ENDBRANCH   7  12
BRANCH   6  18
HETATM   18  O2  UNL     1      24.414  -0.498  53.118  1.00  0.00    -0.353 OA
HETATM   19  C8  UNL     1      25.674   0.113  53.412  1.00  0.00     0.210 C 
ENDBRANCH   6  18
BRANCH   1  20
HETATM   20  O1  UNL     1      22.202  -0.769  54.702  1.00  0.00    -0.353 OA
HETATM   21  C1  UNL     1      21.258  -1.817  54.582  1.00  0.00     0.210 C 
ENDBRANCH   1  20
TORSDOF 3
ENDMDL
MODEL 9
REMARK VINA RESULT:      -5.8      3.287      5.735
REMARK  3 active torsions:
REMARK  status: ('A' for Active; 'I' for Inactive)
REMARK    1  A    between atoms: O1_2  and  C2_3 
REMARK    2  A    between atoms: C7_8  and  O2_9 
REMARK    3  A    between atoms: N1_11  and  C9_12 
ROOT
HETATM    1  C2  UNL     1      22.928  -0.062  53.396  1.00  0.00     0.103 A 
HETATM    2  C3  UNL     1      24.236   0.011  52.964  1.00  0.00     0.071 A 
HETATM    3  C4  UNL     1      24.678   1.142  52.313  1.00  0.00     0.064 A 
HETATM    4  C5  UNL     1      23.888   2.232  52.054  1.00  0.00     0.083 A 
HETATM    5  C6  UNL     1      22.591   2.102  52.508  1.00  0.00     0.073 A 
HETATM    6  C7  UNL     1      22.082   1.004  53.165  1.00  0.00     0.103 A 
HETATM    7  N1  UNL     1      24.332   3.419  51.372  1.00  0.00    -0.257 N 
HETATM    8  N2  UNL     1      25.671   3.335  50.998  1.00  0.00    -0.166 NA
HETATM    9  C14 UNL     1      26.442   2.332  51.221  1.00  0.00     0.230 A 
HETATM   10  N3  UNL     1      26.030   1.149  51.893  1.00  0.00    -0.348 N 
HETATM   11  H16 UNL     1      26.746   0.401  52.016  1.00  0.00     0.167 HD
ENDROOT
BRANCH   7  12
HETATM   12  C9  UNL     1      23.402   4.510  51.161  1.00  0.00     0.152 A 
HETATM   13  C10 UNL     1      23.905   5.731  50.598  1.00  0.00     0.005 A 
HETATM   14  C11 UNL     1      23.253   5.600  49.487  1.00  0.00    -0.069 A 
HETATM   15  C12 UNL     1      22.951   6.191  48.146  1.00  0.00     0.044 C 
HETATM   16  C13 UNL     1      22.656   4.334  49.886  1.00  0.00     0.114 A 
HETATM   17 BR1  UNL     1      23.306   2.892  48.768  1.00  0.00    -0.084 Br
ENDBRANCH   7  12
BRANCH   6  18
HETATM   18  O2  UNL     1      20.773   0.918  53.602  1.00  0.00    -0.353 OA
HETATM   19  C8  UNL     1      19.776   0.535  52.649  1.00  0.00     0.210 C 
ENDBRANCH   6  18
BRANCH   1  20
HETATM   20  O1  UNL     1      22.456  -1.188  54.055  1.00  0.00    -0.353 OA
HETATM   21  C1  UNL     1      22.918  -1.411  55.375  1.00  0.00     0.210 C 
ENDBRANCH   1  20
TORSDOF 3
ENDMDL
