MODEL 1
REMARK VINA RESULT:      -8.1      0.000      0.000
REMARK  2 active torsions:
REMARK  status: ('A' for Active; 'I' for Inactive)
REMARK    1  A    between atoms: C2_2  and  C3_3 
REMARK       I    between atoms: C3_3  and  N1_5 
REMARK    2  A    between atoms: N1_5  and  C4_6 
ROOT
HETATM    1  C4  UNL     1      26.476   1.736  52.994  1.00  0.00     0.117 C 
HETATM    2  C5  UNL     1      25.880   2.482  52.027  1.00  0.00     0.040 C 
HETATM    3  C6  UNL     1      26.440   2.440  50.663  1.00  0.00     0.208 C 
HETATM    4  N2  UNL     1      26.921   3.641  50.096  1.00  0.00    -0.277 NA
HETATM    5  C7  UNL     1      26.386   4.506  49.355  1.00  0.00     0.226 C 
HETATM    6  N3  UNL     1      25.271   3.676  49.460  1.00  0.00    -0.258 NA
HETATM    7  C8  UNL     1      24.072   4.131  49.248  1.00  0.00     0.098 C 
HETATM    8  C9  UNL     1      22.627   4.107  49.135  1.00  0.00     0.099 C 
HETATM    9  C10 UNL     1      21.671   3.129  49.328  1.00  0.00     0.001 C 
HETATM   10  C11 UNL     1      20.620   4.157  48.952  1.00  0.00     0.022 C 
HETATM   11  S1  UNL     1      20.837   1.511  49.723  1.00  0.00    -0.156 SA
HETATM   12  C12 UNL     1      21.901   0.603  50.601  1.00  0.00     0.014 C 
HETATM   13  C13 UNL     1      21.812   1.170  51.820  1.00  0.00    -0.057 C 
HETATM   14  C14 UNL     1      20.718   0.536  52.579  1.00  0.00     0.063 C 
HETATM   15  C15 UNL     1      19.368   0.877  51.977  1.00  0.00    -0.016 C 
HETATM   16  C16 UNL     1      19.402   1.706  50.886  1.00  0.00     0.036 C 
HETATM   17  C17 UNL     1      22.900   2.157  51.700  1.00  0.00     0.055 C 
HETATM   18  C18 UNL     1      23.625   2.196  53.067  1.00  0.00     0.124 C 
HETATM   19  N4  UNL     1      24.818   3.058  52.843  1.00  0.00    -0.390 N 
HETATM   20  H24 UNL     1      25.128   4.021  53.123  1.00  0.00     0.159 HD
ENDROOT
BRANCH   1  21
HETATM   21  N1  UNL     1      27.625   0.911  52.745  1.00  0.00    -0.335 N 
HETATM   22  C3  UNL     1      28.574   0.568  53.750  1.00  0.00     0.221 C 
HETATM   23  O1  UNL     1      28.436   0.988  54.940  1.00  0.00    -0.273 OA
HETATM   24  H6  UNL     1      28.066   0.392  51.921  1.00  0.00     0.168 HD
BRANCH  22  25
HETATM   25  C2  UNL     1      29.801  -0.259  53.687  1.00  0.00     0.098 C 
HETATM   26  C1  UNL     1      29.367  -1.701  53.392  1.00  0.00     0.014 C 
ENDBRANCH  22  25
ENDBRANCH   1  21
TORSDOF 2
ENDMDL
MODEL 2
REMARK VINA RESULT:      -7.6      3.560      7.378
REMARK  2 active torsions:
REMARK  status: ('A' for Active; 'I' for Inactive)
REMARK    1  A    between atoms: C2_2  and  C3_3 
REMARK       I    between atoms: C3_3  and  N1_5 
REMARK    2  A    between atoms: N1_5  and  C4_6 
ROOT
HETATM    1  C4  UNL     1      22.739   3.472  49.766  1.00  0.00     0.117 C 
HETATM    2  C5  UNL     1      22.499   2.512  50.697  1.00  0.00     0.040 C 
HETATM    3  C6  UNL     1      21.874   1.251  50.258  1.00  0.00     0.208 C 
HETATM    4  N2  UNL     1      20.623   0.892  50.809  1.00  0.00    -0.277 NA
HETATM    5  C7  UNL     1      20.301   0.176  51.792  1.00  0.00     0.226 C 
HETATM    6  N3  UNL     1      21.679   0.024  51.932  1.00  0.00    -0.258 NA
HETATM    7  C8  UNL     1      22.206  -0.315  53.071  1.00  0.00     0.098 C 
HETATM    8  C9  UNL     1      23.248  -0.644  54.023  1.00  0.00     0.099 C 
HETATM    9  C10 UNL     1      24.626  -0.701  53.949  1.00  0.00     0.001 C 
HETATM   10  C11 UNL     1      24.635  -1.118  55.407  1.00  0.00     0.022 C 
HETATM   11  S1  UNL     1      26.378  -0.608  53.323  1.00  0.00    -0.156 SA
HETATM   12  C12 UNL     1      26.371   0.317  51.956  1.00  0.00     0.014 C 
HETATM   13  C13 UNL     1      26.280   1.562  52.462  1.00  0.00    -0.057 C 
HETATM   14  C14 UNL     1      27.632   2.078  52.747  1.00  0.00     0.063 C 
HETATM   15  C15 UNL     1      28.273   1.320  53.894  1.00  0.00    -0.016 C 
HETATM   16  C16 UNL     1      27.499   0.341  54.460  1.00  0.00     0.036 C 
HETATM   17  C17 UNL     1      24.814   1.712  52.456  1.00  0.00     0.055 C 
HETATM   18  C18 UNL     1      24.510   3.168  52.027  1.00  0.00     0.124 C 
HETATM   19  N4  UNL     1      23.033   3.217  51.856  1.00  0.00    -0.390 N 
HETATM   20  H24 UNL     1      22.219   3.641  52.365  1.00  0.00     0.159 HD
ENDROOT
BRANCH   1  21
HETATM   21  N1  UNL     1      22.411   3.311  48.377  1.00  0.00    -0.335 N 
HETATM   22  C3  UNL     1      21.214   3.817  47.793  1.00  0.00     0.221 C 
HETATM   23  O1  UNL     1      20.368   4.450  48.496  1.00  0.00    -0.273 OA
HETATM   24  H6  UNL     1      22.841   2.864  47.506  1.00  0.00     0.168 HD
BRANCH  22  25
HETATM   25  C2  UNL     1      20.709   3.752  46.402  1.00  0.00     0.098 C 
HETATM   26  C1  UNL     1      21.928   3.799  45.470  1.00  0.00     0.014 C 
ENDBRANCH  22  25
ENDBRANCH   1  21
TORSDOF 2
ENDMDL
MODEL 3
REMARK VINA RESULT:      -7.5      3.047      6.402
REMARK  2 active torsions:
REMARK  status: ('A' for Active; 'I' for Inactive)
REMARK    1  A    between atoms: C2_2  and  C3_3 
REMARK       I    between atoms: C3_3  and  N1_5 
REMARK    2  A    between atoms: N1_5  and  C4_6 
ROOT
HETATM    1  C4  UNL     1      22.277   4.745  48.586  1.00  0.00     0.117 C 
HETATM    2  C5  UNL     1      23.469   4.230  48.984  1.00  0.00     0.040 C 
HETATM    3  C6  UNL     1      24.470   5.144  49.566  1.00  0.00     0.208 C 
HETATM    4  N2  UNL     1      25.716   5.280  48.915  1.00  0.00    -0.277 NA
HETATM    5  C7  UNL     1      26.824   4.705  49.071  1.00  0.00     0.226 C 
HETATM    6  N3  UNL     1      26.145   4.012  50.071  1.00  0.00    -0.258 NA
HETATM    7  C8  UNL     1      26.561   2.852  50.487  1.00  0.00     0.098 C 
HETATM    8  C9  UNL     1      26.572   1.630  51.266  1.00  0.00     0.099 C 
HETATM    9  C10 UNL     1      25.733   1.105  52.229  1.00  0.00     0.001 C 
HETATM   10  C11 UNL     1      26.662  -0.092  52.310  1.00  0.00     0.022 C 
HETATM   11  S1  UNL     1      24.319   0.870  53.419  1.00  0.00    -0.156 SA
HETATM   12  C12 UNL     1      23.102   1.882  52.954  1.00  0.00     0.014 C 
HETATM   13  C13 UNL     1      22.580   1.226  51.899  1.00  0.00    -0.057 C 
HETATM   14  C14 UNL     1      21.550   0.280  52.369  1.00  0.00     0.063 C 
HETATM   15  C15 UNL     1      22.171  -0.851  53.166  1.00  0.00    -0.016 C 
HETATM   16  C16 UNL     1      23.536  -0.809  53.282  1.00  0.00     0.036 C 
HETATM   17  C17 UNL     1      23.375   1.840  50.821  1.00  0.00     0.055 C 
HETATM   18  C18 UNL     1      22.421   2.052  49.621  1.00  0.00     0.124 C 
HETATM   19  N4  UNL     1      23.214   2.837  48.636  1.00  0.00    -0.390 N 
HETATM   20  H24 UNL     1      23.667   2.660  47.706  1.00  0.00     0.159 HD
ENDROOT
BRANCH   1  21
HETATM   21  N1  UNL     1      21.950   6.138  48.709  1.00  0.00    -0.335 N 
HETATM   22  C3  UNL     1      21.257   6.683  49.828  1.00  0.00     0.221 C 
HETATM   23  O1  UNL     1      20.892   5.938  50.789  1.00  0.00    -0.273 OA
HETATM   24  H6  UNL     1      22.077   7.037  48.144  1.00  0.00     0.168 HD
BRANCH  22  25
HETATM   25  C2  UNL     1      20.837   8.070  50.129  1.00  0.00     0.098 C 
HETATM   26  C1  UNL     1      19.643   8.395  49.221  1.00  0.00     0.014 C 
ENDBRANCH  22  25
ENDBRANCH   1  21
TORSDOF 2
ENDMDL
MODEL 4
REMARK VINA RESULT:      -7.4      3.328      6.488
REMARK  2 active torsions:
REMARK  status: ('A' for Active; 'I' for Inactive)
REMARK    1  A    between atoms: C2_2  and  C3_3 
REMARK       I    between atoms: C3_3  and  N1_5 
REMARK    2  A    between atoms: N1_5  and  C4_6 
ROOT
HETATM    1  C4  UNL     1      23.261   5.912  51.198  1.00  0.00     0.117 C 
HETATM    2  C5  UNL     1      22.446   4.924  51.650  1.00  0.00     0.040 C 
HETATM    3  C6  UNL     1      21.504   4.303  50.700  1.00  0.00     0.208 C 
HETATM    4  N2  UNL     1      20.120   4.395  50.969  1.00  0.00    -0.277 NA
HETATM    5  C7  UNL     1      19.315   3.629  51.559  1.00  0.00     0.226 C 
HETATM    6  N3  UNL     1      20.445   2.832  51.729  1.00  0.00    -0.258 NA
HETATM    7  C8  UNL     1      20.504   1.942  52.676  1.00  0.00     0.098 C 
HETATM    8  C9  UNL     1      21.069   0.887  53.494  1.00  0.00     0.099 C 
HETATM    9  C10 UNL     1      22.288   0.238  53.506  1.00  0.00     0.001 C 
HETATM   10  C11 UNL     1      21.779  -0.584  54.675  1.00  0.00     0.022 C 
HETATM   11  S1  UNL     1      24.031  -0.278  53.101  1.00  0.00    -0.156 SA
HETATM   12  C12 UNL     1      24.719   0.934  52.218  1.00  0.00     0.014 C 
HETATM   13  C13 UNL     1      25.002   1.846  53.169  1.00  0.00    -0.057 C 
HETATM   14  C14 UNL     1      26.335   1.567  53.735  1.00  0.00     0.063 C 
HETATM   15  C15 UNL     1      26.330   0.276  54.531  1.00  0.00    -0.016 C 
HETATM   16  C16 UNL     1      25.122  -0.368  54.602  1.00  0.00     0.036 C 
HETATM   17  C17 UNL     1      23.761   2.638  53.113  1.00  0.00     0.055 C 
HETATM   18  C18 UNL     1      24.166   4.123  53.277  1.00  0.00     0.124 C 
HETATM   19  N4  UNL     1      22.915   4.891  53.030  1.00  0.00    -0.390 N 
HETATM   20  H24 UNL     1      22.235   5.447  53.603  1.00  0.00     0.159 HD
ENDROOT
BRANCH   1  21
HETATM   21  N1  UNL     1      23.244   6.377  49.839  1.00  0.00    -0.335 N 
HETATM   22  C3  UNL     1      24.411   6.809  49.146  1.00  0.00     0.221 C 
HETATM   23  O1  UNL     1      25.544   6.798  49.718  1.00  0.00    -0.273 OA
HETATM   24  H6  UNL     1      22.527   6.528  49.060  1.00  0.00     0.168 HD
BRANCH  22  25
HETATM   25  C2  UNL     1      24.590   7.313  47.765  1.00  0.00     0.098 C 
HETATM   26  C1  UNL     1      26.085   7.604  47.575  1.00  0.00     0.014 C 
ENDBRANCH  22  25
ENDBRANCH   1  21
TORSDOF 2
ENDMDL
MODEL 5
REMARK VINA RESULT:      -7.3      3.135      5.986
REMARK  2 active torsions:
REMARK  status: ('A' for Active; 'I' for Inactive)
REMARK    1  A    between atoms: C2_2  and  C3_3 
REMARK       I    between atoms: C3_3  and  N1_5 
REMARK    2  A    between atoms: N1_5  and  C4_6 
ROOT
HETATM    1  C4  UNL     1      26.707   2.656  51.259  1.00  0.00     0.117 C 
HETATM    2  C5  UNL     1      25.684   3.213  50.559  1.00  0.00     0.040 C 
HETATM    3  C6  UNL     1      24.460   3.593  51.288  1.00  0.00     0.208 C 
HETATM    4  N2  UNL     1      23.242   2.977  50.925  1.00  0.00    -0.277 NA
HETATM    5  C7  UNL     1      22.323   3.311  50.133  1.00  0.00     0.226 C 
HETATM    6  N3  UNL     1      23.134   4.423  49.912  1.00  0.00    -0.258 NA
HETATM    7  C8  UNL     1      23.030   5.125  48.822  1.00  0.00     0.098 C 
HETATM    8  C9  UNL     1      23.324   6.178  47.871  1.00  0.00     0.099 C 
HETATM    9  C10 UNL     1      24.243   7.207  47.840  1.00  0.00     0.001 C 
HETATM   10  C11 UNL     1      23.666   7.613  46.497  1.00  0.00     0.022 C 
HETATM   11  S1  UNL     1      25.634   8.363  48.288  1.00  0.00    -0.156 SA
HETATM   12  C12 UNL     1      26.550   7.618  49.441  1.00  0.00     0.014 C 
HETATM   13  C13 UNL     1      27.258   6.737  48.709  1.00  0.00    -0.057 C 
HETATM   14  C14 UNL     1      28.489   7.383  48.217  1.00  0.00     0.063 C 
HETATM   15  C15 UNL     1      28.169   8.455  47.192  1.00  0.00    -0.016 C 
HETATM   16  C16 UNL     1      26.841   8.610  46.897  1.00  0.00     0.036 C 
HETATM   17  C17 UNL     1      26.359   5.573  48.807  1.00  0.00     0.055 C 
HETATM   18  C18 UNL     1      27.257   4.321  48.963  1.00  0.00     0.124 C 
HETATM   19  N4  UNL     1      26.312   3.206  49.243  1.00  0.00    -0.390 N 
HETATM   20  H24 UNL     1      25.950   2.366  48.730  1.00  0.00     0.159 HD
ENDROOT
BRANCH   1  21
HETATM   21  N1  UNL     1      26.646   2.423  52.675  1.00  0.00    -0.335 N 
HETATM   22  C3  UNL     1      26.571   1.121  53.249  1.00  0.00     0.221 C 
HETATM   23  O1  UNL     1      26.556   0.088  52.512  1.00  0.00    -0.273 OA
HETATM   24  H6  UNL     1      26.637   2.998  53.575  1.00  0.00     0.168 HD
BRANCH  22  25
HETATM   25  C2  UNL     1      26.503   0.686  54.663  1.00  0.00     0.098 C 
HETATM   26  C1  UNL     1      25.538  -0.506  54.729  1.00  0.00     0.014 C 
ENDBRANCH  22  25
ENDBRANCH   1  21
TORSDOF 2
ENDMDL
MODEL 6
REMARK VINA RESULT:      -7.2      3.549      5.178
REMARK  2 active torsions:
REMARK  status: ('A' for Active; 'I' for Inactive)
REMARK    1  A    between atoms: C2_2  and  C3_3 
REMARK       I    between atoms: C3_3  and  N1_5 
REMARK    2  A    between atoms: N1_5  and  C4_6 
ROOT
HETATM    1  C4  UNL     1      24.278   6.472  51.181  1.00  0.00     0.117 C 
HETATM    2  C5  UNL     1      23.004   6.035  51.006  1.00  0.00     0.040 C 
HETATM    3  C6  UNL     1      22.400   6.151  49.665  1.00  0.00     0.208 C 
HETATM    4  N2  UNL     1      21.241   6.944  49.516  1.00  0.00    -0.277 NA
HETATM    5  C7  UNL     1      20.014   6.669  49.542  1.00  0.00     0.226 C 
HETATM    6  N3  UNL     1      20.470   5.373  49.769  1.00  0.00    -0.258 NA
HETATM    7  C8  UNL     1      19.710   4.481  50.334  1.00  0.00     0.098 C 
HETATM    8  C9  UNL     1      19.329   3.194  50.881  1.00  0.00     0.099 C 
HETATM    9  C10 UNL     1      19.990   1.993  51.044  1.00  0.00     0.001 C 
HETATM   10  C11 UNL     1      18.718   1.437  51.657  1.00  0.00     0.022 C 
HETATM   11  S1  UNL     1      21.301   0.670  51.038  1.00  0.00    -0.156 SA
HETATM   12  C12 UNL     1      22.763   1.417  50.865  1.00  0.00     0.014 C 
HETATM   13  C13 UNL     1      22.979   1.899  52.105  1.00  0.00    -0.057 C 
HETATM   14  C14 UNL     1      23.653   0.872  52.921  1.00  0.00     0.063 C 
HETATM   15  C15 UNL     1      22.729  -0.298  53.197  1.00  0.00    -0.016 C 
HETATM   16  C16 UNL     1      21.466  -0.187  52.678  1.00  0.00     0.036 C 
HETATM   17  C17 UNL     1      22.383   3.237  51.945  1.00  0.00     0.055 C 
HETATM   18  C18 UNL     1      23.290   4.230  52.711  1.00  0.00     0.124 C 
HETATM   19  N4  UNL     1      22.758   5.577  52.368  1.00  0.00    -0.390 N 
HETATM   20  H24 UNL     1      22.225   6.335  52.860  1.00  0.00     0.159 HD
ENDROOT
BRANCH   1  21
HETATM   21  N1  UNL     1      25.060   7.040  50.120  1.00  0.00    -0.335 N 
HETATM   22  C3  UNL     1      26.048   6.309  49.398  1.00  0.00     0.221 C 
HETATM   23  O1  UNL     1      26.280   5.092  49.673  1.00  0.00    -0.273 OA
HETATM   24  H6  UNL     1      25.157   7.980  49.619  1.00  0.00     0.168 HD
BRANCH  22  25
HETATM   25  C2  UNL     1      26.941   6.715  48.289  1.00  0.00     0.098 C 
HETATM   26  C1  UNL     1      28.138   5.754  48.290  1.00  0.00     0.014 C 
ENDBRANCH  22  25
ENDBRANCH   1  21
TORSDOF 2
ENDMDL
MODEL 7
REMARK VINA RESULT:      -7.0      3.019      5.558
REMARK  2 active torsions:
REMARK  status: ('A' for Active; 'I' for Inactive)
REMARK    1  A    between atoms: C2_2  and  C3_3 
REMARK       I    between atoms: C3_3  and  N1_5 
REMARK    2  A    between atoms: N1_5  and  C4_6 
ROOT
HETATM    1  C4  UNL     1      24.257   1.789  51.460  1.00  0.00     0.117 C 
HETATM    2  C5  UNL     1      23.371   2.768  51.141  1.00  0.00     0.040 C 
HETATM    3  C6  UNL     1      22.570   3.369  52.223  1.00  0.00     0.208 C 
HETATM    4  N2  UNL     1      21.163   3.257  52.162  1.00  0.00    -0.277 NA
HETATM    5  C7  UNL     1      20.269   4.013  51.702  1.00  0.00     0.226 C 
HETATM    6  N3  UNL     1      21.350   4.828  51.372  1.00  0.00    -0.258 NA
HETATM    7  C8  UNL     1      21.255   5.723  50.434  1.00  0.00     0.098 C 
HETATM    8  C9  UNL     1      21.677   6.791  49.549  1.00  0.00     0.099 C 
HETATM    9  C10 UNL     1      22.872   7.459  49.362  1.00  0.00     0.001 C 
HETATM   10  C11 UNL     1      22.184   8.279  48.287  1.00  0.00     0.022 C 
HETATM   11  S1  UNL     1      24.648   8.001  49.509  1.00  0.00    -0.156 SA
HETATM   12  C12 UNL     1      25.476   6.795  50.272  1.00  0.00     0.014 C 
HETATM   13  C13 UNL     1      25.629   5.892  49.284  1.00  0.00    -0.057 C 
HETATM   14  C14 UNL     1      26.860   6.194  48.529  1.00  0.00     0.063 C 
HETATM   15  C15 UNL     1      26.718   7.489  47.751  1.00  0.00    -0.016 C 
HETATM   16  C16 UNL     1      25.504   8.114  47.864  1.00  0.00     0.036 C 
HETATM   17  C17 UNL     1      24.422   5.080  49.516  1.00  0.00     0.055 C 
HETATM   18  C18 UNL     1      24.820   3.603  49.283  1.00  0.00     0.124 C 
HETATM   19  N4  UNL     1      23.630   2.815  49.707  1.00  0.00    -0.390 N 
HETATM   20  H24 UNL     1      22.881   2.250  49.236  1.00  0.00     0.159 HD
ENDROOT
BRANCH   1  21
HETATM   21  N1  UNL     1      24.448   1.318  52.804  1.00  0.00    -0.335 N 
HETATM   22  C3  UNL     1      25.407   0.324  53.155  1.00  0.00     0.221 C 
HETATM   23  O1  UNL     1      26.153  -0.196  52.269  1.00  0.00    -0.273 OA
HETATM   24  H6  UNL     1      24.039   1.499  53.775  1.00  0.00     0.168 HD
BRANCH  22  25
HETATM   25  C2  UNL     1      25.745  -0.280  54.463  1.00  0.00     0.098 C 
HETATM   26  C1  UNL     1      27.145   0.216  54.849  1.00  0.00     0.014 C 
ENDBRANCH  22  25
ENDBRANCH   1  21
TORSDOF 2
ENDMDL
MODEL 8
REMARK VINA RESULT:      -6.9      2.776      5.043
REMARK  2 active torsions:
REMARK  status: ('A' for Active; 'I' for Inactive)
REMARK    1  A    between atoms: C2_2  and  C3_3 
REMARK       I    between atoms: C3_3  and  N1_5 
REMARK    2  A    between atoms: N1_5  and  C4_6 
ROOT
HETATM    1  C4  UNL     1      26.505   2.274  51.180  1.00  0.00     0.117 C 
HETATM    2  C5  UNL     1      25.313   2.646  50.645  1.00  0.00     0.040 C 
HETATM    3  C6  UNL     1      24.080   2.318  51.385  1.00  0.00     0.208 C 
HETATM    4  N2  UNL     1      23.126   1.481  50.765  1.00  0.00    -0.277 NA
HETATM    5  C7  UNL     1      22.102   1.723  50.075  1.00  0.00     0.226 C 
HETATM    6  N3  UNL     1      22.469   3.051  50.285  1.00  0.00    -0.258 NA
HETATM    7  C8  UNL     1      22.065   3.994  49.486  1.00  0.00     0.098 C 
HETATM    8  C9  UNL     1      21.922   5.336  48.957  1.00  0.00     0.099 C 
HETATM    9  C10 UNL     1      22.430   6.566  49.326  1.00  0.00     0.001 C 
HETATM   10  C11 UNL     1      21.668   7.171  48.162  1.00  0.00     0.022 C 
HETATM   11  S1  UNL     1      23.366   7.909  50.214  1.00  0.00    -0.156 SA
HETATM   12  C12 UNL     1      24.550   7.185  51.108  1.00  0.00     0.014 C 
HETATM   13  C13 UNL     1      25.471   6.896  50.168  1.00  0.00    -0.057 C 
HETATM   14  C14 UNL     1      26.374   8.049  49.993  1.00  0.00     0.063 C 
HETATM   15  C15 UNL     1      25.645   9.221  49.366  1.00  0.00    -0.016 C 
HETATM   16  C16 UNL     1      24.328   9.001  49.059  1.00  0.00     0.036 C 
HETATM   17  C17 UNL     1      25.032   5.533  49.820  1.00  0.00     0.055 C 
HETATM   18  C18 UNL     1      26.311   4.688  49.605  1.00  0.00     0.124 C 
HETATM   19  N4  UNL     1      25.825   3.291  49.442  1.00  0.00    -0.390 N 
HETATM   20  H24 UNL     1      25.741   2.598  48.658  1.00  0.00     0.159 HD
ENDROOT
BRANCH   1  21
HETATM   21  N1  UNL     1      26.615   1.578  52.432  1.00  0.00    -0.335 N 
HETATM   22  C3  UNL     1      27.796   1.585  53.229  1.00  0.00     0.221 C 
HETATM   23  O1  UNL     1      28.825   2.227  52.855  1.00  0.00    -0.273 OA
HETATM   24  H6  UNL     1      26.003   0.960  53.054  1.00  0.00     0.168 HD
BRANCH  22  25
HETATM   25  C2  UNL     1      28.095   0.939  54.527  1.00  0.00     0.098 C 
HETATM   26  C1  UNL     1      29.095  -0.193  54.255  1.00  0.00     0.014 C 
ENDBRANCH  22  25
ENDBRANCH   1  21
TORSDOF 2
ENDMDL
MODEL 9
REMARK VINA RESULT:      -6.9      6.985     10.800
REMARK  2 active torsions:
REMARK  status: ('A' for Active; 'I' for Inactive)
REMARK    1  A    between atoms: C2_2  and  C3_3 
REMARK       I    between atoms: C3_3  and  N1_5 
REMARK    2  A    between atoms: N1_5  and  C4_6 
ROOT
HETATM    1  C4  UNL     1      27.573   7.234  48.683  1.00  0.00     0.117 C 
HETATM    2  C5  UNL     1      28.617   8.051  48.389  1.00  0.00     0.040 C 
HETATM    3  C6  UNL     1      28.923   9.159  49.314  1.00  0.00     0.208 C 
HETATM    4  N2  UNL     1      28.857  10.482  48.824  1.00  0.00    -0.277 NA
HETATM    5  C7  UNL     1      29.724  11.255  48.341  1.00  0.00     0.226 C 
HETATM    6  N3  UNL     1      30.578  10.175  48.560  1.00  0.00    -0.258 NA
HETATM    7  C8  UNL     1      31.693  10.055  47.902  1.00  0.00     0.098 C 
HETATM    8  C9  UNL     1      32.950   9.465  47.486  1.00  0.00     0.099 C 
HETATM    9  C10 UNL     1      33.621   8.309  47.830  1.00  0.00     0.001 C 
HETATM   10  C11 UNL     1      34.711   8.714  46.856  1.00  0.00     0.022 C 
HETATM   11  S1  UNL     1      34.072   6.682  48.617  1.00  0.00    -0.156 SA
HETATM   12  C12 UNL     1      32.690   6.031  49.243  1.00  0.00     0.014 C 
HETATM   13  C13 UNL     1      32.082   5.552  48.140  1.00  0.00    -0.057 C 
HETATM   14  C14 UNL     1      32.552   4.179  47.877  1.00  0.00     0.063 C 
HETATM   15  C15 UNL     1      34.009   4.174  47.457  1.00  0.00    -0.016 C 
HETATM   16  C16 UNL     1      34.604   5.405  47.376  1.00  0.00     0.036 C 
HETATM   17  C17 UNL     1      31.260   6.726  47.796  1.00  0.00     0.055 C 
HETATM   18  C18 UNL     1      29.891   6.191  47.310  1.00  0.00     0.124 C 
HETATM   19  N4  UNL     1      29.040   7.402  47.154  1.00  0.00    -0.390 N 
HETATM   20  H24 UNL     1      28.636   7.954  46.358  1.00  0.00     0.159 HD
ENDROOT
BRANCH   1  21
HETATM   21  N1  UNL     1      26.757   7.401  49.852  1.00  0.00    -0.335 N 
HETATM   22  C3  UNL     1      25.477   6.793  50.006  1.00  0.00     0.221 C 
HETATM   23  O1  UNL     1      24.996   6.058  49.090  1.00  0.00    -0.273 OA
HETATM   24  H6  UNL     1      26.806   7.914  50.789  1.00  0.00     0.168 HD
BRANCH  22  25
HETATM   25  C2  UNL     1      24.504   6.847  51.120  1.00  0.00     0.098 C 
HETATM   26  C1  UNL     1      23.395   7.827  50.713  1.00  0.00     0.014 C 
ENDBRANCH  22  25
ENDBRANCH   1  21
TORSDOF 2
ENDMDL
