MODEL 1
REMARK VINA RESULT:      -9.0      0.000      0.000
REMARK  3 active torsions:
REMARK  status: ('A' for Active; 'I' for Inactive)
REMARK    1  A    between atoms: C9_12  and  O2_13 
REMARK    2  A    between atoms: C17_22  and  C18_23 
REMARK       I    between atoms: C18_23  and  N4_25 
REMARK    3  A    between atoms: N4_25  and  C19_26 
ROOT
HETATM    1  C1  UNL     1      20.349   4.227  51.469  1.00  0.00     0.067 C 
HETATM    2  C2  UNL     1      19.143   3.325  51.582  1.00  0.00     0.043 C 
HETATM    3  N1  UNL     1      17.984   3.895  51.640  1.00  0.00    -0.072 NA
HETATM    4  C3  UNL     1      16.884   3.348  50.938  1.00  0.00     0.718 C 
HETATM    5  N2  UNL     1      17.143   2.296  50.280  1.00  0.00    -0.099 NA
HETATM    6  C4  UNL     1      18.209   1.346  50.526  1.00  0.00     0.146 C 
HETATM    7  C5  UNL     1      17.505   0.011  50.738  1.00  0.00     0.031 C 
HETATM    8  C6  UNL     1      16.946  -0.130  52.107  1.00  0.00     0.028 C 
HETATM    9  C7  UNL     1      16.089  -1.363  52.333  1.00  0.00     0.168 C 
HETATM   10  O1  UNL     1      14.985  -1.345  51.449  1.00  0.00    -0.385 OA
HETATM   11  C8  UNL     1      14.300  -0.162  51.572  1.00  0.00     0.231 C 
HETATM   12  C9  UNL     1      13.739   0.127  52.888  1.00  0.00     0.063 C 
HETATM   13  C10 UNL     1      12.631   0.376  53.535  1.00  0.00     0.008 C 
HETATM   14  C11 UNL     1      11.494   0.678  54.489  1.00  0.00     0.033 C 
HETATM   15  C12 UNL     1      11.042   2.107  54.084  1.00  0.00     0.030 C 
HETATM   16  C13 UNL     1      12.245   2.962  54.378  1.00  0.00    -0.030 C 
HETATM   17  C14 UNL     1      13.179   3.730  53.865  1.00  0.00    -0.029 C 
HETATM   18  C15 UNL     1      13.620   4.242  52.524  1.00  0.00     0.047 C 
HETATM   19  C16 UNL     1      15.042   3.719  52.302  1.00  0.00     0.142 C 
HETATM   20  N3  UNL     1      15.611   4.017  51.033  1.00  0.00    -0.223 N 
HETATM   21  C17 UNL     1      19.036   1.824  51.656  1.00  0.00     0.151 C 
HETATM   22  H25 UNL     1      15.731   4.415  50.083  1.00  0.00     0.177 HD
ENDROOT
BRANCH  21  23
HETATM   23  C18 UNL     1      20.397   1.240  51.715  1.00  0.00     0.234 C 
HETATM   24  O3  UNL     1      20.800   0.603  50.716  1.00  0.00    -0.272 OA
HETATM   25  N4  UNL     1      21.328   1.297  52.756  1.00  0.00    -0.326 N 
HETATM   26  H27 UNL     1      20.973   1.839  53.584  1.00  0.00     0.169 HD
BRANCH  25  27
HETATM   27  C19 UNL     1      22.630   0.773  52.891  1.00  0.00     0.034 A 
HETATM   28  C20 UNL     1      23.000  -0.375  53.546  1.00  0.00     0.030 A 
HETATM   29  C21 UNL     1      24.267  -0.893  53.679  1.00  0.00     0.009 A 
HETATM   30  C22 UNL     1      25.279  -0.170  53.083  1.00  0.00    -0.062 A 
HETATM   31  C23 UNL     1      26.694  -0.607  53.143  1.00  0.00     0.048 C 
HETATM   32  C24 UNL     1      24.997   0.995  52.405  1.00  0.00     0.009 A 
HETATM   33  C25 UNL     1      23.698   1.436  52.323  1.00  0.00     0.030 A 
ENDBRANCH  25  27
ENDBRANCH  21  23
BRANCH  12  34
HETATM   34  O2  UNL     1      14.198   0.282  54.180  1.00  0.00    -0.363 OA
HETATM   35  H13 UNL     1      13.804  -0.199  54.984  1.00  0.00     0.217 HD
ENDBRANCH  12  34
TORSDOF 3
ENDMDL
MODEL 2
REMARK VINA RESULT:      -8.8      6.062      9.571
REMARK  3 active torsions:
REMARK  status: ('A' for Active; 'I' for Inactive)
REMARK    1  A    between atoms: C9_12  and  O2_13 
REMARK    2  A    between atoms: C17_22  and  C18_23 
REMARK       I    between atoms: C18_23  and  N4_25 
REMARK    3  A    between atoms: N4_25  and  C19_26 
ROOT
HETATM    1  C1  UNL     1      22.839   6.309  48.765  1.00  0.00     0.067 C 
HETATM    2  C2  UNL     1      23.426   5.120  49.489  1.00  0.00     0.043 C 
HETATM    3  N1  UNL     1      22.616   4.162  49.803  1.00  0.00    -0.072 NA
HETATM    4  C3  UNL     1      23.019   2.813  49.665  1.00  0.00     0.718 C 
HETATM    5  N2  UNL     1      24.196   2.653  49.223  1.00  0.00    -0.099 NA
HETATM    6  C4  UNL     1      25.301   3.586  49.308  1.00  0.00     0.146 C 
HETATM    7  C5  UNL     1      26.397   2.832  50.052  1.00  0.00     0.031 C 
HETATM    8  C6  UNL     1      26.184   2.818  51.522  1.00  0.00     0.028 C 
HETATM    9  C7  UNL     1      27.146   1.944  52.307  1.00  0.00     0.168 C 
HETATM   10  O1  UNL     1      27.035   0.602  51.873  1.00  0.00    -0.385 OA
HETATM   11  C8  UNL     1      25.728   0.190  51.941  1.00  0.00     0.231 C 
HETATM   12  C9  UNL     1      25.109   0.215  53.263  1.00  0.00     0.063 C 
HETATM   13  C10 UNL     1      24.522  -0.520  54.170  1.00  0.00     0.008 C 
HETATM   14  C11 UNL     1      23.826  -1.157  55.354  1.00  0.00     0.033 C 
HETATM   15  C12 UNL     1      22.420  -1.520  54.805  1.00  0.00     0.030 C 
HETATM   16  C13 UNL     1      21.811  -0.188  54.464  1.00  0.00    -0.030 C 
HETATM   17  C14 UNL     1      21.360   0.582  53.500  1.00  0.00    -0.029 C 
HETATM   18  C15 UNL     1      21.186   0.552  52.009  1.00  0.00     0.047 C 
HETATM   19  C16 UNL     1      22.035   1.695  51.446  1.00  0.00     0.142 C 
HETATM   20  N3  UNL     1      22.082   1.779  50.027  1.00  0.00    -0.223 N 
HETATM   21  C17 UNL     1      24.834   4.838  49.944  1.00  0.00     0.151 C 
HETATM   22  H25 UNL     1      21.883   1.586  49.028  1.00  0.00     0.177 HD
ENDROOT
BRANCH  21  23
HETATM   23  C18 UNL     1      25.682   6.022  49.672  1.00  0.00     0.234 C 
HETATM   24  O3  UNL     1      25.643   6.965  50.494  1.00  0.00    -0.272 OA
HETATM   25  N4  UNL     1      26.547   6.249  48.599  1.00  0.00    -0.326 N 
HETATM   26  H27 UNL     1      26.569   5.444  47.922  1.00  0.00     0.169 HD
BRANCH  25  27
HETATM   27  C19 UNL     1      27.380   7.338  48.268  1.00  0.00     0.034 A 
HETATM   28  C20 UNL     1      26.990   8.612  47.937  1.00  0.00     0.030 A 
HETATM   29  C21 UNL     1      27.798   9.678  47.617  1.00  0.00     0.009 A 
HETATM   30  C22 UNL     1      29.156   9.432  47.631  1.00  0.00    -0.062 A 
HETATM   31  C23 UNL     1      30.145  10.487  47.308  1.00  0.00     0.048 C 
HETATM   32  C24 UNL     1      29.633   8.181  47.951  1.00  0.00     0.009 A 
HETATM   33  C25 UNL     1      28.750   7.174  48.259  1.00  0.00     0.030 A 
ENDBRANCH  25  27
ENDBRANCH  21  23
BRANCH  12  34
HETATM   34  O2  UNL     1      24.846   1.145  54.247  1.00  0.00    -0.363 OA
HETATM   35  H13 UNL     1      24.774   0.920  55.236  1.00  0.00     0.217 HD
ENDBRANCH  12  34
TORSDOF 3
ENDMDL
MODEL 3
REMARK VINA RESULT:      -8.7      5.710      8.249
REMARK  3 active torsions:
REMARK  status: ('A' for Active; 'I' for Inactive)
REMARK    1  A    between atoms: C9_12  and  O2_13 
REMARK    2  A    between atoms: C17_22  and  C18_23 
REMARK       I    between atoms: C18_23  and  N4_25 
REMARK    3  A    between atoms: N4_25  and  C19_26 
ROOT
HETATM    1  C1  UNL     1      21.724   0.390  51.523  1.00  0.00     0.067 C 
HETATM    2  C2  UNL     1      21.959   1.850  51.214  1.00  0.00     0.043 C 
HETATM    3  N1  UNL     1      21.040   2.465  50.544  1.00  0.00    -0.072 NA
HETATM    4  C3  UNL     1      20.674   3.789  50.886  1.00  0.00     0.718 C 
HETATM    5  N2  UNL     1      21.309   4.279  51.867  1.00  0.00    -0.099 NA
HETATM    6  C4  UNL     1      22.621   3.895  52.345  1.00  0.00     0.146 C 
HETATM    7  C5  UNL     1      23.455   5.169  52.273  1.00  0.00     0.031 C 
HETATM    8  C6  UNL     1      23.944   5.455  50.900  1.00  0.00     0.028 C 
HETATM    9  C7  UNL     1      24.638   6.794  50.725  1.00  0.00     0.168 C 
HETATM   10  O1  UNL     1      23.747   7.841  51.059  1.00  0.00    -0.385 OA
HETATM   11  C8  UNL     1      22.585   7.720  50.340  1.00  0.00     0.231 C 
HETATM   12  C9  UNL     1      22.713   7.779  48.887  1.00  0.00     0.063 C 
HETATM   13  C10 UNL     1      22.333   8.425  47.817  1.00  0.00     0.008 C 
HETATM   14  C11 UNL     1      22.039   9.010  46.452  1.00  0.00     0.033 C 
HETATM   15  C12 UNL     1      20.545   8.658  46.213  1.00  0.00     0.030 C 
HETATM   16  C13 UNL     1      20.531   7.154  46.179  1.00  0.00    -0.030 C 
HETATM   17  C14 UNL     1      20.103   6.062  46.769  1.00  0.00    -0.029 C 
HETATM   18  C15 UNL     1      19.286   5.661  47.964  1.00  0.00     0.047 C 
HETATM   19  C16 UNL     1      20.207   4.834  48.866  1.00  0.00     0.142 C 
HETATM   20  N3  UNL     1      19.645   4.436  50.110  1.00  0.00    -0.223 N 
HETATM   21  C17 UNL     1      23.118   2.755  51.543  1.00  0.00     0.151 C 
HETATM   22  H25 UNL     1      18.957   4.289  50.871  1.00  0.00     0.177 HD
ENDROOT
BRANCH  21  23
HETATM   23  C18 UNL     1      24.187   1.961  52.194  1.00  0.00     0.234 C 
HETATM   24  O3  UNL     1      24.012   1.616  53.384  1.00  0.00    -0.272 OA
HETATM   25  N4  UNL     1      25.402   1.528  51.657  1.00  0.00    -0.326 N 
HETATM   26  H27 UNL     1      25.529   1.824  50.656  1.00  0.00     0.169 HD
BRANCH  25  27
HETATM   27  C19 UNL     1      26.464   0.779  52.204  1.00  0.00     0.034 A 
HETATM   28  C20 UNL     1      26.575  -0.588  52.258  1.00  0.00     0.030 A 
HETATM   29  C21 UNL     1      27.609  -1.325  52.787  1.00  0.00     0.009 A 
HETATM   30  C22 UNL     1      28.653  -0.600  53.323  1.00  0.00    -0.062 A 
HETATM   31  C23 UNL     1      29.835  -1.260  53.926  1.00  0.00     0.048 C 
HETATM   32  C24 UNL     1      28.624   0.776  53.311  1.00  0.00     0.009 A 
HETATM   33  C25 UNL     1      27.547   1.428  52.760  1.00  0.00     0.030 A 
ENDBRANCH  25  27
ENDBRANCH  21  23
BRANCH  12  34
HETATM   34  O2  UNL     1      23.375   7.087  47.894  1.00  0.00    -0.363 OA
HETATM   35  H13 UNL     1      24.385   6.971  47.860  1.00  0.00     0.217 HD
ENDBRANCH  12  34
TORSDOF 3
ENDMDL
MODEL 4
REMARK VINA RESULT:      -8.7      3.603      5.932
REMARK  3 active torsions:
REMARK  status: ('A' for Active; 'I' for Inactive)
REMARK    1  A    between atoms: C9_12  and  O2_13 
REMARK    2  A    between atoms: C17_22  and  C18_23 
REMARK       I    between atoms: C18_23  and  N4_25 
REMARK    3  A    between atoms: N4_25  and  C19_26 
ROOT
HETATM    1  C1  UNL     1      24.768   0.986  51.892  1.00  0.00     0.067 C 
HETATM    2  C2  UNL     1      23.321   1.396  51.749  1.00  0.00     0.043 C 
HETATM    3  N1  UNL     1      22.448   0.715  52.416  1.00  0.00    -0.072 NA
HETATM    4  C3  UNL     1      21.367   1.371  53.052  1.00  0.00     0.718 C 
HETATM    5  N2  UNL     1      21.350   2.630  52.908  1.00  0.00    -0.099 NA
HETATM    6  C4  UNL     1      21.950   3.399  51.837  1.00  0.00     0.146 C 
HETATM    7  C5  UNL     1      20.794   4.172  51.211  1.00  0.00     0.031 C 
HETATM    8  C6  UNL     1      19.990   3.340  50.279  1.00  0.00     0.028 C 
HETATM    9  C7  UNL     1      18.727   3.998  49.751  1.00  0.00     0.168 C 
HETATM   10  O1  UNL     1      17.874   4.329  50.830  1.00  0.00    -0.385 OA
HETATM   11  C8  UNL     1      17.642   3.221  51.606  1.00  0.00     0.231 C 
HETATM   12  C9  UNL     1      16.996   2.091  50.945  1.00  0.00     0.063 C 
HETATM   13  C10 UNL     1      15.952   1.306  50.970  1.00  0.00     0.008 C 
HETATM   14  C11 UNL     1      14.847   0.286  50.797  1.00  0.00     0.033 C 
HETATM   15  C12 UNL     1      15.008  -0.646  52.028  1.00  0.00     0.030 C 
HETATM   16  C13 UNL     1      16.363  -1.269  51.833  1.00  0.00    -0.030 C 
HETATM   17  C14 UNL     1      17.582  -1.379  52.308  1.00  0.00    -0.029 C 
HETATM   18  C15 UNL     1      18.405  -0.871  53.457  1.00  0.00     0.047 C 
HETATM   19  C16 UNL     1      19.566  -0.080  52.849  1.00  0.00     0.142 C 
HETATM   20  N3  UNL     1      20.417   0.571  53.784  1.00  0.00    -0.223 N 
HETATM   21  C17 UNL     1      22.680   2.486  50.930  1.00  0.00     0.151 C 
HETATM   22  H25 UNL     1      20.835   0.869  54.685  1.00  0.00     0.177 HD
ENDROOT
BRANCH  21  23
HETATM   23  C18 UNL     1      23.714   3.142  50.095  1.00  0.00     0.234 C 
HETATM   24  O3  UNL     1      23.742   2.857  48.876  1.00  0.00    -0.272 OA
HETATM   25  N4  UNL     1      24.694   4.061  50.479  1.00  0.00    -0.326 N 
HETATM   26  H27 UNL     1      24.650   4.291  51.504  1.00  0.00     0.169 HD
BRANCH  25  27
HETATM   27  C19 UNL     1      25.705   4.724  49.754  1.00  0.00     0.034 A 
HETATM   28  C20 UNL     1      26.882   4.191  49.292  1.00  0.00     0.030 A 
HETATM   29  C21 UNL     1      27.871   4.833  48.582  1.00  0.00     0.009 A 
HETATM   30  C22 UNL     1      27.648   6.166  48.307  1.00  0.00    -0.062 A 
HETATM   31  C23 UNL     1      28.625   6.982  47.551  1.00  0.00     0.048 C 
HETATM   32  C24 UNL     1      26.493   6.781  48.735  1.00  0.00     0.009 A 
HETATM   33  C25 UNL     1      25.558   6.060  49.438  1.00  0.00     0.030 A 
ENDBRANCH  25  27
ENDBRANCH  21  23
BRANCH  12  34
HETATM   34  O2  UNL     1      17.246   1.262  49.871  1.00  0.00    -0.363 OA
HETATM   35  H13 UNL     1      16.695   0.435  49.652  1.00  0.00     0.217 HD
ENDBRANCH  12  34
TORSDOF 3
ENDMDL
MODEL 5
REMARK VINA RESULT:      -8.7      4.301      6.766
REMARK  3 active torsions:
REMARK  status: ('A' for Active; 'I' for Inactive)
REMARK    1  A    between atoms: C9_12  and  O2_13 
REMARK    2  A    between atoms: C17_22  and  C18_23 
REMARK       I    between atoms: C18_23  and  N4_25 
REMARK    3  A    between atoms: N4_25  and  C19_26 
ROOT
HETATM    1  C1  UNL     1      24.710   2.756  52.551  1.00  0.00     0.067 C 
HETATM    2  C2  UNL     1      23.367   3.057  51.927  1.00  0.00     0.043 C 
HETATM    3  N1  UNL     1      22.376   2.301  52.269  1.00  0.00    -0.072 NA
HETATM    4  C3  UNL     1      21.098   2.862  52.500  1.00  0.00     0.718 C 
HETATM    5  N2  UNL     1      21.033   4.118  52.346  1.00  0.00    -0.099 NA
HETATM    6  C4  UNL     1      21.896   4.949  51.531  1.00  0.00     0.146 C 
HETATM    7  C5  UNL     1      20.961   5.642  50.546  1.00  0.00     0.031 C 
HETATM    8  C6  UNL     1      20.582   4.767  49.407  1.00  0.00     0.028 C 
HETATM    9  C7  UNL     1      19.523   5.336  48.479  1.00  0.00     0.168 C 
HETATM   10  O1  UNL     1      18.335   5.584  49.206  1.00  0.00    -0.385 OA
HETATM   11  C8  UNL     1      17.941   4.449  49.870  1.00  0.00     0.231 C 
HETATM   12  C9  UNL     1      17.644   3.284  49.042  1.00  0.00     0.063 C 
HETATM   13  C10 UNL     1      16.716   2.422  48.723  1.00  0.00     0.008 C 
HETATM   14  C11 UNL     1      15.814   1.324  48.199  1.00  0.00     0.033 C 
HETATM   15  C12 UNL     1      15.624   0.387  49.422  1.00  0.00     0.030 C 
HETATM   16  C13 UNL     1      17.010  -0.129  49.699  1.00  0.00    -0.030 C 
HETATM   17  C14 UNL     1      18.004  -0.154  50.556  1.00  0.00    -0.029 C 
HETATM   18  C15 UNL     1      18.353   0.396  51.910  1.00  0.00     0.047 C 
HETATM   19  C16 UNL     1      19.586   1.283  51.719  1.00  0.00     0.142 C 
HETATM   20  N3  UNL     1      20.022   1.980  52.879  1.00  0.00    -0.223 N 
HETATM   21  C17 UNL     1      22.956   4.109  50.930  1.00  0.00     0.151 C 
HETATM   22  H25 UNL     1      20.089   2.294  53.865  1.00  0.00     0.177 HD
ENDROOT
BRANCH  21  23
HETATM   23  C18 UNL     1      24.156   4.855  50.483  1.00  0.00     0.234 C 
HETATM   24  O3  UNL     1      24.503   5.852  51.154  1.00  0.00    -0.272 OA
HETATM   25  N4  UNL     1      24.985   4.600  49.388  1.00  0.00    -0.326 N 
HETATM   26  H27 UNL     1      24.680   3.755  48.840  1.00  0.00     0.169 HD
BRANCH  25  27
HETATM   27  C19 UNL     1      26.133   5.254  48.898  1.00  0.00     0.034 A 
HETATM   28  C20 UNL     1      26.220   6.541  48.429  1.00  0.00     0.030 A 
HETATM   29  C21 UNL     1      27.338   7.186  47.953  1.00  0.00     0.009 A 
HETATM   30  C22 UNL     1      28.503   6.448  47.947  1.00  0.00    -0.062 A 
HETATM   31  C23 UNL     1      29.785   7.013  47.462  1.00  0.00     0.048 C 
HETATM   32  C24 UNL     1      28.506   5.147  48.399  1.00  0.00     0.009 A 
HETATM   33  C25 UNL     1      27.339   4.585  48.859  1.00  0.00     0.030 A 
ENDBRANCH  25  27
ENDBRANCH  21  23
BRANCH  12  34
HETATM   34  O2  UNL     1      18.302   2.494  48.122  1.00  0.00    -0.363 OA
HETATM   35  H13 UNL     1      18.572   1.529  48.293  1.00  0.00     0.217 HD
ENDBRANCH  12  34
TORSDOF 3
ENDMDL
MODEL 6
REMARK VINA RESULT:      -8.6      5.361      7.588
REMARK  3 active torsions:
REMARK  status: ('A' for Active; 'I' for Inactive)
REMARK    1  A    between atoms: C9_12  and  O2_13 
REMARK    2  A    between atoms: C17_22  and  C18_23 
REMARK       I    between atoms: C18_23  and  N4_25 
REMARK    3  A    between atoms: N4_25  and  C19_26 
ROOT
HETATM    1  C1  UNL     1      22.062   0.697  53.450  1.00  0.00     0.067 C 
HETATM    2  C2  UNL     1      22.090   1.839  52.462  1.00  0.00     0.043 C 
HETATM    3  N1  UNL     1      20.967   2.174  51.918  1.00  0.00    -0.072 NA
HETATM    4  C3  UNL     1      20.647   3.540  51.724  1.00  0.00     0.718 C 
HETATM    5  N2  UNL     1      21.532   4.354  52.123  1.00  0.00    -0.099 NA
HETATM    6  C4  UNL     1      22.951   4.103  52.278  1.00  0.00     0.146 C 
HETATM    7  C5  UNL     1      23.633   5.130  51.381  1.00  0.00     0.031 C 
HETATM    8  C6  UNL     1      23.630   4.729  49.950  1.00  0.00     0.028 C 
HETATM    9  C7  UNL     1      24.143   5.782  48.983  1.00  0.00     0.168 C 
HETATM   10  O1  UNL     1      23.344   6.945  49.074  1.00  0.00    -0.385 OA
HETATM   11  C8  UNL     1      22.021   6.624  48.897  1.00  0.00     0.231 C 
HETATM   12  C9  UNL     1      21.667   6.019  47.616  1.00  0.00     0.063 C 
HETATM   13  C10 UNL     1      20.921   6.155  46.552  1.00  0.00     0.008 C 
HETATM   14  C11 UNL     1      20.163   6.096  45.243  1.00  0.00     0.033 C 
HETATM   15  C12 UNL     1      18.699   5.814  45.676  1.00  0.00     0.030 C 
HETATM   16  C13 UNL     1      18.771   4.460  46.327  1.00  0.00    -0.030 C 
HETATM   17  C14 UNL     1      18.628   3.789  47.446  1.00  0.00    -0.029 C 
HETATM   18  C15 UNL     1      18.270   4.038  48.884  1.00  0.00     0.047 C 
HETATM   19  C16 UNL     1      19.485   3.617  49.716  1.00  0.00     0.142 C 
HETATM   20  N3  UNL     1      19.383   3.866  51.113  1.00  0.00    -0.223 N 
HETATM   21  C17 UNL     1      23.232   2.685  51.963  1.00  0.00     0.151 C 
HETATM   22  H25 UNL     1      18.989   4.137  52.033  1.00  0.00     0.177 HD
ENDROOT
BRANCH  21  23
HETATM   23  C18 UNL     1      24.504   2.169  52.523  1.00  0.00     0.234 C 
HETATM   24  O3  UNL     1      24.904   2.660  53.603  1.00  0.00    -0.272 OA
HETATM   25  N4  UNL     1      25.349   1.184  52.008  1.00  0.00    -0.326 N 
HETATM   26  H27 UNL     1      24.993   0.780  51.104  1.00  0.00     0.169 HD
BRANCH  25  27
HETATM   27  C19 UNL     1      26.564   0.641  52.473  1.00  0.00     0.034 A 
HETATM   28  C20 UNL     1      27.681   1.329  52.878  1.00  0.00     0.030 A 
HETATM   29  C21 UNL     1      28.868   0.805  53.335  1.00  0.00     0.009 A 
HETATM   30  C22 UNL     1      28.938  -0.571  53.390  1.00  0.00    -0.062 A 
HETATM   31  C23 UNL     1      30.154  -1.274  53.864  1.00  0.00     0.048 C 
HETATM   32  C24 UNL     1      27.864  -1.340  53.002  1.00  0.00     0.009 A 
HETATM   33  C25 UNL     1      26.715  -0.728  52.559  1.00  0.00     0.030 A 
ENDBRANCH  25  27
ENDBRANCH  21  23
BRANCH  12  34
HETATM   34  O2  UNL     1      22.015   4.901  46.888  1.00  0.00    -0.363 OA
HETATM   35  H13 UNL     1      22.689   4.907  46.126  1.00  0.00     0.217 HD
ENDBRANCH  12  34
TORSDOF 3
ENDMDL
MODEL 7
REMARK VINA RESULT:      -8.6      2.994      4.244
REMARK  3 active torsions:
REMARK  status: ('A' for Active; 'I' for Inactive)
REMARK    1  A    between atoms: C9_12  and  O2_13 
REMARK    2  A    between atoms: C17_22  and  C18_23 
REMARK       I    between atoms: C18_23  and  N4_25 
REMARK    3  A    between atoms: N4_25  and  C19_26 
ROOT
HETATM    1  C1  UNL     1      23.813   4.056  49.047  1.00  0.00     0.067 C 
HETATM    2  C2  UNL     1      22.540   3.326  49.402  1.00  0.00     0.043 C 
HETATM    3  N1  UNL     1      21.512   3.533  48.647  1.00  0.00    -0.072 NA
HETATM    4  C3  UNL     1      20.661   2.460  48.290  1.00  0.00     0.718 C 
HETATM    5  N2  UNL     1      20.998   1.334  48.764  1.00  0.00    -0.099 NA
HETATM    6  C4  UNL     1      21.788   1.082  49.952  1.00  0.00     0.146 C 
HETATM    7  C5  UNL     1      20.895   0.229  50.846  1.00  0.00     0.031 C 
HETATM    8  C6  UNL     1      19.888   1.035  51.582  1.00  0.00     0.028 C 
HETATM    9  C7  UNL     1      18.859   0.231  52.360  1.00  0.00     0.168 C 
HETATM   10  O1  UNL     1      18.137  -0.603  51.475  1.00  0.00    -0.385 OA
HETATM   11  C8  UNL     1      17.603   0.142  50.453  1.00  0.00     0.231 C 
HETATM   12  C9  UNL     1      16.664   1.191  50.838  1.00  0.00     0.063 C 
HETATM   13  C10 UNL     1      15.442   1.626  50.684  1.00  0.00     0.008 C 
HETATM   14  C11 UNL     1      14.094   2.314  50.664  1.00  0.00     0.033 C 
HETATM   15  C12 UNL     1      13.989   2.877  49.221  1.00  0.00     0.030 C 
HETATM   16  C13 UNL     1      15.113   3.874  49.141  1.00  0.00    -0.030 C 
HETATM   17  C14 UNL     1      16.253   4.174  48.563  1.00  0.00    -0.029 C 
HETATM   18  C15 UNL     1      17.188   3.612  47.530  1.00  0.00     0.047 C 
HETATM   19  C16 UNL     1      18.524   3.365  48.237  1.00  0.00     0.142 C 
HETATM   20  N3  UNL     1      19.526   2.738  47.447  1.00  0.00    -0.223 N 
HETATM   21  C17 UNL     1      22.230   2.372  50.527  1.00  0.00     0.151 C 
HETATM   22  H25 UNL     1      20.012   2.328  46.628  1.00  0.00     0.177 HD
ENDROOT
BRANCH  21  23
HETATM   23  C18 UNL     1      23.404   2.278  51.426  1.00  0.00     0.234 C 
HETATM   24  O3  UNL     1      23.409   2.995  52.451  1.00  0.00    -0.272 OA
HETATM   25  N4  UNL     1      24.544   1.481  51.293  1.00  0.00    -0.326 N 
HETATM   26  H27 UNL     1      24.519   0.883  50.428  1.00  0.00     0.169 HD
BRANCH  25  27
HETATM   27  C19 UNL     1      25.695   1.335  52.094  1.00  0.00     0.034 A 
HETATM   28  C20 UNL     1      26.772   2.182  52.164  1.00  0.00     0.030 A 
HETATM   29  C21 UNL     1      27.896   2.045  52.945  1.00  0.00     0.009 A 
HETATM   30  C22 UNL     1      27.940   0.926  53.749  1.00  0.00    -0.062 A 
HETATM   31  C23 UNL     1      29.088   0.649  54.644  1.00  0.00     0.048 C 
HETATM   32  C24 UNL     1      26.901   0.022  53.741  1.00  0.00     0.009 A 
HETATM   33  C25 UNL     1      25.816   0.241  52.927  1.00  0.00     0.030 A 
ENDBRANCH  25  27
ENDBRANCH  21  23
BRANCH  12  34
HETATM   34  O2  UNL     1      16.668   2.320  51.631  1.00  0.00    -0.363 OA
HETATM   35  H13 UNL     1      17.310   2.467  52.406  1.00  0.00     0.217 HD
ENDBRANCH  12  34
TORSDOF 3
ENDMDL
MODEL 8
REMARK VINA RESULT:      -8.4     10.219     15.902
REMARK  3 active torsions:
REMARK  status: ('A' for Active; 'I' for Inactive)
REMARK    1  A    between atoms: C9_12  and  O2_13 
REMARK    2  A    between atoms: C17_22  and  C18_23 
REMARK       I    between atoms: C18_23  and  N4_25 
REMARK    3  A    between atoms: N4_25  and  C19_26 
ROOT
HETATM    1  C1  UNL     1      26.265   8.268  47.143  1.00  0.00     0.067 C 
HETATM    2  C2  UNL     1      27.681   7.751  47.056  1.00  0.00     0.043 C 
HETATM    3  N1  UNL     1      28.467   8.326  46.207  1.00  0.00    -0.072 NA
HETATM    4  C3  UNL     1      29.815   8.592  46.549  1.00  0.00     0.718 C 
HETATM    5  N2  UNL     1      30.149   8.228  47.715  1.00  0.00    -0.099 NA
HETATM    6  C4  UNL     1      29.537   7.191  48.521  1.00  0.00     0.146 C 
HETATM    7  C5  UNL     1      30.663   6.208  48.819  1.00  0.00     0.031 C 
HETATM    8  C6  UNL     1      30.933   5.287  47.685  1.00  0.00     0.028 C 
HETATM    9  C7  UNL     1      32.150   4.395  47.851  1.00  0.00     0.168 C 
HETATM   10  O1  UNL     1      33.309   5.192  48.004  1.00  0.00    -0.385 OA
HETATM   11  C8  UNL     1      33.410   6.084  46.966  1.00  0.00     0.231 C 
HETATM   12  C9  UNL     1      33.518   5.510  45.628  1.00  0.00     0.063 C 
HETATM   13  C10 UNL     1      34.268   5.450  44.559  1.00  0.00     0.008 C 
HETATM   14  C11 UNL     1      34.958   5.229  43.230  1.00  0.00     0.033 C 
HETATM   15  C12 UNL     1      34.862   6.611  42.529  1.00  0.00     0.030 C 
HETATM   16  C13 UNL     1      33.383   6.822  42.350  1.00  0.00    -0.030 C 
HETATM   17  C14 UNL     1      32.347   7.556  42.681  1.00  0.00    -0.029 C 
HETATM   18  C15 UNL     1      32.024   8.747  43.539  1.00  0.00     0.047 C 
HETATM   19  C16 UNL     1      31.018   8.270  44.590  1.00  0.00     0.142 C 
HETATM   20  N3  UNL     1      30.655   9.235  45.569  1.00  0.00    -0.223 N 
HETATM   21  C17 UNL     1      28.372   6.635  47.797  1.00  0.00     0.151 C 
HETATM   22  H25 UNL     1      30.583  10.137  46.075  1.00  0.00     0.177 HD
ENDROOT
BRANCH  21  23
HETATM   23  C18 UNL     1      27.387   5.937  48.657  1.00  0.00     0.234 C 
HETATM   24  O3  UNL     1      26.686   6.635  49.423  1.00  0.00    -0.272 OA
HETATM   25  N4  UNL     1      27.117   4.569  48.741  1.00  0.00    -0.326 N 
HETATM   26  H27 UNL     1      27.712   3.999  48.086  1.00  0.00     0.169 HD
BRANCH  25  27
HETATM   27  C19 UNL     1      26.207   3.830  49.524  1.00  0.00     0.034 A 
HETATM   28  C20 UNL     1      24.848   3.739  49.356  1.00  0.00     0.030 A 
HETATM   29  C21 UNL     1      23.956   3.018  50.116  1.00  0.00     0.009 A 
HETATM   30  C22 UNL     1      24.496   2.307  51.167  1.00  0.00    -0.062 A 
HETATM   31  C23 UNL     1      23.655   1.485  52.068  1.00  0.00     0.048 C 
HETATM   32  C24 UNL     1      25.850   2.342  51.408  1.00  0.00     0.009 A 
HETATM   33  C25 UNL     1      26.667   3.091  50.595  1.00  0.00     0.030 A 
ENDBRANCH  25  27
ENDBRANCH  21  23
BRANCH  12  34
HETATM   34  O2  UNL     1      32.779   4.678  44.814  1.00  0.00    -0.363 OA
HETATM   35  H13 UNL     1      32.127   5.008  44.107  1.00  0.00     0.217 HD
ENDBRANCH  12  34
TORSDOF 3
ENDMDL
MODEL 9
REMARK VINA RESULT:      -8.4      7.720     10.496
REMARK  3 active torsions:
REMARK  status: ('A' for Active; 'I' for Inactive)
REMARK    1  A    between atoms: C9_12  and  O2_13 
REMARK    2  A    between atoms: C17_22  and  C18_23 
REMARK       I    between atoms: C18_23  and  N4_25 
REMARK    3  A    between atoms: N4_25  and  C19_26 
ROOT
HETATM    1  C1  UNL     1      23.116   2.241  50.106  1.00  0.00     0.067 C 
HETATM    2  C2  UNL     1      23.552   3.595  49.596  1.00  0.00     0.043 C 
HETATM    3  N1  UNL     1      22.664   4.309  48.987  1.00  0.00    -0.072 NA
HETATM    4  C3  UNL     1      22.593   5.704  49.214  1.00  0.00     0.718 C 
HETATM    5  N2  UNL     1      23.446   6.153  50.036  1.00  0.00    -0.099 NA
HETATM    6  C4  UNL     1      24.729   5.572  50.376  1.00  0.00     0.146 C 
HETATM    7  C5  UNL     1      25.752   6.651  50.042  1.00  0.00     0.031 C 
HETATM    8  C6  UNL     1      26.067   6.710  48.592  1.00  0.00     0.028 C 
HETATM    9  C7  UNL     1      26.950   7.870  48.168  1.00  0.00     0.168 C 
HETATM   10  O1  UNL     1      26.318   9.094  48.491  1.00  0.00    -0.385 OA
HETATM   11  C8  UNL     1      25.056   9.131  47.953  1.00  0.00     0.231 C 
HETATM   12  C9  UNL     1      24.968   9.030  46.499  1.00  0.00     0.063 C 
HETATM   13  C10 UNL     1      24.548   9.635  45.420  1.00  0.00     0.008 C 
HETATM   14  C11 UNL     1      24.155  10.136  44.046  1.00  0.00     0.033 C 
HETATM   15  C12 UNL     1      22.605  10.055  44.053  1.00  0.00     0.030 C 
HETATM   16  C13 UNL     1      22.322   8.585  44.201  1.00  0.00    -0.030 C 
HETATM   17  C14 UNL     1      21.804   7.654  44.969  1.00  0.00    -0.029 C 
HETATM   18  C15 UNL     1      21.123   7.528  46.302  1.00  0.00     0.047 C 
HETATM   19  C16 UNL     1      22.012   6.628  47.164  1.00  0.00     0.142 C 
HETATM   20  N3  UNL     1      21.587   6.461  48.511  1.00  0.00    -0.223 N 
HETATM   21  C17 UNL     1      24.888   4.288  49.658  1.00  0.00     0.151 C 
HETATM   22  H25 UNL     1      21.008   6.519  49.369  1.00  0.00     0.177 HD
ENDROOT
BRANCH  21  23
HETATM   23  C18 UNL     1      25.889   3.369  50.249  1.00  0.00     0.234 C 
HETATM   24  O3  UNL     1      26.814   2.964  49.511  1.00  0.00    -0.272 OA
HETATM   25  N4  UNL     1      25.955   2.872  51.554  1.00  0.00    -0.326 N 
HETATM   26  H27 UNL     1      25.172   3.228  52.160  1.00  0.00     0.169 HD
BRANCH  25  27
HETATM   27  C19 UNL     1      26.863   2.002  52.190  1.00  0.00     0.034 A 
HETATM   28  C20 UNL     1      27.962   2.349  52.936  1.00  0.00     0.030 A 
HETATM   29  C21 UNL     1      28.851   1.505  53.561  1.00  0.00     0.009 A 
HETATM   30  C22 UNL     1      28.603   0.155  53.419  1.00  0.00    -0.062 A 
HETATM   31  C23 UNL     1      29.475  -0.869  54.038  1.00  0.00     0.048 C 
HETATM   32  C24 UNL     1      27.521  -0.280  52.687  1.00  0.00     0.009 A 
HETATM   33  C25 UNL     1      26.686   0.637  52.096  1.00  0.00     0.030 A 
ENDBRANCH  25  27
ENDBRANCH  21  23
BRANCH  12  34
HETATM   34  O2  UNL     1      25.339   8.136  45.516  1.00  0.00    -0.363 OA
HETATM   35  H13 UNL     1      26.298   7.997  45.207  1.00  0.00     0.217 HD
ENDBRANCH  12  34
TORSDOF 3
ENDMDL
