MODEL 1
REMARK VINA RESULT:      -7.4      0.000      0.000
REMARK  6 active torsions:
REMARK  status: ('A' for Active; 'I' for Inactive)
REMARK    1  A    between atoms: C2_2  and  C3_3 
REMARK    2  A    between atoms: C3_3  and  C4_4 
REMARK    3  A    between atoms: C6_6  and  C7_7 
REMARK    4  A    between atoms: C7_7  and  N1_8 
REMARK    5  A    between atoms: N1_8  and  C8_9 
REMARK    6  A    between atoms: N4_23  and  O2_24 
ROOT
HETATM    1  C8  UNL     1      32.663   6.866  47.509  1.00  0.00     0.094 A 
HETATM    2  C9  UNL     1      32.534   7.253  46.162  1.00  0.00     0.032 A 
HETATM    3  C10 UNL     1      33.903   7.216  46.430  1.00  0.00     0.153 A 
HETATM    4  N2  UNL     1      34.577   6.917  47.535  1.00  0.00    -0.292 NA
HETATM    5  C11 UNL     1      34.009   6.565  48.685  1.00  0.00     0.126 A 
HETATM    6  C12 UNL     1      32.646   6.483  48.824  1.00  0.00     0.057 A 
HETATM    7  C13 UNL     1      31.349   6.323  49.576  1.00  0.00     0.252 C 
HETATM    8  O1  UNL     1      31.791   5.515  50.134  1.00  0.00    -0.268 OA
HETATM    9  N3  UNL     1      30.415   7.215  49.175  1.00  0.00    -0.352 N 
HETATM   10  C14 UNL     1      29.393   8.191  48.735  1.00  0.00     0.089 C 
HETATM   11  C15 UNL     1      29.961   9.554  49.017  1.00  0.00     0.057 C 
HETATM   12  C16 UNL     1      30.244  10.318  47.763  1.00  0.00     0.049 C 
HETATM   13  C17 UNL     1      29.029  11.051  47.260  1.00  0.00     0.040 C 
HETATM   14  C18 UNL     1      31.230  11.441  48.170  1.00  0.00     0.040 C 
HETATM   15  N4  UNL     1      30.932   9.512  46.847  1.00  0.00    -0.278 N 
HETATM   16  C19 UNL     1      30.276   8.358  46.311  1.00  0.00     0.054 C 
HETATM   17  C20 UNL     1      29.448   8.926  45.127  1.00  0.00     0.041 C 
HETATM   18  C21 UNL     1      31.201   7.394  45.617  1.00  0.00     0.048 C 
HETATM   19  C22 UNL     1      29.263   7.853  47.265  1.00  0.00     0.058 C 
HETATM   20  H13 UNL     1      29.868   6.695  49.940  1.00  0.00     0.163 HD
ENDROOT
BRANCH   1  21
HETATM   21  N1  UNL     1      31.642   5.830  47.319  1.00  0.00    -0.403 N 
HETATM   22  H10 UNL     1      30.717   5.404  47.468  1.00  0.00     0.154 HD
BRANCH  21  23
HETATM   23  C7  UNL     1      32.138   4.756  46.512  1.00  0.00     0.143 C 
BRANCH  23  24
HETATM   24  C6  UNL     1      32.355   3.468  47.179  1.00  0.00    -0.001 C 
HETATM   25  C4  UNL     1      33.348   2.745  47.653  1.00  0.00    -0.057 C 
HETATM   26  C5  UNL     1      32.980   1.454  48.261  1.00  0.00     0.048 C 
BRANCH  25  27
HETATM   27  C3  UNL     1      34.709   3.234  47.558  1.00  0.00     0.057 C 
BRANCH  27  28
HETATM   28  C2  UNL     1      35.137   3.549  46.360  1.00  0.00    -0.154 C 
HETATM   29  C1  UNL     1      35.261   3.854  45.082  1.00  0.00     0.096 C 
ENDBRANCH  27  28
ENDBRANCH  25  27
ENDBRANCH  23  24
ENDBRANCH  21  23
ENDBRANCH   1  21
BRANCH  15  30
HETATM   30  O2  UNL     1      31.773  10.118  46.017  1.00  0.00    -0.291 OA
HETATM   31  H23 UNL     1      31.664   9.961  45.069  1.00  0.00     0.244 HD
ENDBRANCH  15  30
TORSDOF 6
ENDMDL
MODEL 2
REMARK VINA RESULT:      -7.3      9.859     11.865
REMARK  6 active torsions:
REMARK  status: ('A' for Active; 'I' for Inactive)
REMARK    1  A    between atoms: C2_2  and  C3_3 
REMARK    2  A    between atoms: C3_3  and  C4_4 
REMARK    3  A    between atoms: C6_6  and  C7_7 
REMARK    4  A    between atoms: C7_7  and  N1_8 
REMARK    5  A    between atoms: N1_8  and  C8_9 
REMARK    6  A    between atoms: N4_23  and  O2_24 
ROOT
HETATM    1  C8  UNL     1      20.620   2.787  50.440  1.00  0.00     0.094 A 
HETATM    2  C9  UNL     1      20.635   3.355  51.727  1.00  0.00     0.032 A 
HETATM    3  C10 UNL     1      19.313   3.419  51.284  1.00  0.00     0.153 A 
HETATM    4  N2  UNL     1      18.743   3.029  50.150  1.00  0.00    -0.292 NA
HETATM    5  C11 UNL     1      19.396   2.453  49.146  1.00  0.00     0.126 A 
HETATM    6  C12 UNL     1      20.746   2.211  49.203  1.00  0.00     0.057 A 
HETATM    7  C13 UNL     1      22.095   1.809  48.661  1.00  0.00     0.252 C 
HETATM    8  O1  UNL     1      21.627   0.975  48.163  1.00  0.00    -0.268 OA
HETATM    9  N3  UNL     1      23.075   2.650  49.060  1.00  0.00    -0.352 N 
HETATM   10  C14 UNL     1      24.148   3.571  49.497  1.00  0.00     0.089 C 
HETATM   11  C15 UNL     1      23.786   4.927  48.959  1.00  0.00     0.057 C 
HETATM   12  C16 UNL     1      23.451   5.895  50.048  1.00  0.00     0.049 C 
HETATM   13  C17 UNL     1      24.677   6.567  50.606  1.00  0.00     0.040 C 
HETATM   14  C18 UNL     1      22.663   7.040  49.364  1.00  0.00     0.040 C 
HETATM   15  N4  UNL     1      22.567   5.310  50.964  1.00  0.00    -0.278 N 
HETATM   16  C19 UNL     1      23.011   4.188  51.735  1.00  0.00     0.054 C 
HETATM   17  C20 UNL     1      23.755   4.839  52.932  1.00  0.00     0.041 C 
HETATM   18  C21 UNL     1      21.901   3.439  52.422  1.00  0.00     0.048 C 
HETATM   19  C22 UNL     1      24.062   3.445  51.003  1.00  0.00     0.058 C 
HETATM   20  H13 UNL     1      23.642   1.967  48.453  1.00  0.00     0.163 HD
ENDROOT
BRANCH   1  21
HETATM   21  N1  UNL     1      21.479   1.692  50.904  1.00  0.00    -0.403 N 
HETATM   22  H10 UNL     1      22.386   1.238  51.083  1.00  0.00     0.154 HD
BRANCH  21  23
HETATM   23  C7  UNL     1      20.700   0.573  51.342  1.00  0.00     0.143 C 
BRANCH  23  24
HETATM   24  C6  UNL     1      20.920   0.105  52.715  1.00  0.00    -0.001 C 
HETATM   25  C4  UNL     1      21.896  -0.361  53.465  1.00  0.00    -0.057 C 
HETATM   26  C5  UNL     1      21.545  -0.689  54.858  1.00  0.00     0.048 C 
BRANCH  25  27
HETATM   27  C3  UNL     1      23.223  -0.524  52.906  1.00  0.00     0.057 C 
BRANCH  27  28
HETATM   28  C2  UNL     1      24.099   0.407  53.195  1.00  0.00    -0.154 C 
HETATM   29  C1  UNL     1      25.175   1.098  53.518  1.00  0.00     0.096 C 
ENDBRANCH  27  28
ENDBRANCH  25  27
ENDBRANCH  23  24
ENDBRANCH  21  23
ENDBRANCH   1  21
BRANCH  15  30
HETATM   30  O2  UNL     1      21.713   6.117  51.584  1.00  0.00    -0.291 OA
HETATM   31  H23 UNL     1      22.011   7.012  51.797  1.00  0.00     0.244 HD
ENDBRANCH  15  30
TORSDOF 6
ENDMDL
MODEL 3
REMARK VINA RESULT:      -7.3      8.661     10.876
REMARK  6 active torsions:
REMARK  status: ('A' for Active; 'I' for Inactive)
REMARK    1  A    between atoms: C2_2  and  C3_3 
REMARK    2  A    between atoms: C3_3  and  C4_4 
REMARK    3  A    between atoms: C6_6  and  C7_7 
REMARK    4  A    between atoms: C7_7  and  N1_8 
REMARK    5  A    between atoms: N1_8  and  C8_9 
REMARK    6  A    between atoms: N4_23  and  O2_24 
ROOT
HETATM    1  C8  UNL     1      22.165   5.428  49.935  1.00  0.00     0.094 A 
HETATM    2  C9  UNL     1      21.760   4.822  48.731  1.00  0.00     0.032 A 
HETATM    3  C10 UNL     1      21.163   6.083  48.756  1.00  0.00     0.153 A 
HETATM    4  N2  UNL     1      21.209   7.063  49.651  1.00  0.00    -0.292 NA
HETATM    5  C11 UNL     1      21.898   7.006  50.787  1.00  0.00     0.126 A 
HETATM    6  C12 UNL     1      22.635   5.900  51.132  1.00  0.00     0.057 A 
HETATM    7  C13 UNL     1      23.466   5.033  52.043  1.00  0.00     0.252 C 
HETATM    8  O1  UNL     1      24.014   5.909  52.349  1.00  0.00    -0.268 OA
HETATM    9  N3  UNL     1      23.096   3.734  51.987  1.00  0.00    -0.352 N 
HETATM   10  C14 UNL     1      22.689   2.312  51.925  1.00  0.00     0.089 C 
HETATM   11  C15 UNL     1      21.255   2.262  52.372  1.00  0.00     0.057 C 
HETATM   12  C16 UNL     1      20.333   1.865  51.266  1.00  0.00     0.049 C 
HETATM   13  C17 UNL     1      20.225   0.370  51.126  1.00  0.00     0.040 C 
HETATM   14  C18 UNL     1      18.920   2.312  51.716  1.00  0.00     0.040 C 
HETATM   15  N4  UNL     1      20.620   2.598  50.107  1.00  0.00    -0.278 N 
HETATM   16  C19 UNL     1      21.889   2.418  49.470  1.00  0.00     0.054 C 
HETATM   17  C20 UNL     1      21.675   1.167  48.576  1.00  0.00     0.041 C 
HETATM   18  C21 UNL     1      22.221   3.479  48.455  1.00  0.00     0.048 C 
HETATM   19  C22 UNL     1      22.906   1.998  50.460  1.00  0.00     0.058 C 
HETATM   20  H13 UNL     1      23.885   3.677  52.714  1.00  0.00     0.163 HD
ENDROOT
BRANCH   1  21
HETATM   21  N1  UNL     1      23.539   4.964  49.717  1.00  0.00    -0.403 N 
HETATM   22  H10 UNL     1      24.334   4.325  49.856  1.00  0.00     0.154 HD
BRANCH  21  23
HETATM   23  C7  UNL     1      24.262   5.866  48.871  1.00  0.00     0.143 C 
BRANCH  23  24
HETATM   24  C6  UNL     1      25.713   5.669  48.773  1.00  0.00    -0.001 C 
HETATM   25  C4  UNL     1      26.604   4.719  48.958  1.00  0.00    -0.057 C 
HETATM   26  C5  UNL     1      28.008   5.083  48.694  1.00  0.00     0.048 C 
BRANCH  25  27
HETATM   27  C3  UNL     1      26.181   3.404  49.397  1.00  0.00     0.057 C 
BRANCH  27  28
HETATM   28  C2  UNL     1      26.540   3.045  50.605  1.00  0.00    -0.154 C 
HETATM   29  C1  UNL     1      26.803   2.399  51.725  1.00  0.00     0.096 C 
ENDBRANCH  27  28
ENDBRANCH  25  27
ENDBRANCH  23  24
ENDBRANCH  21  23
ENDBRANCH   1  21
BRANCH  15  30
HETATM   30  O2  UNL     1      19.608   2.854  49.284  1.00  0.00    -0.291 OA
HETATM   31  H23 UNL     1      18.828   3.292  49.651  1.00  0.00     0.244 HD
ENDBRANCH  15  30
TORSDOF 6
ENDMDL
MODEL 4
REMARK VINA RESULT:      -7.3      8.973     10.753
REMARK  6 active torsions:
REMARK  status: ('A' for Active; 'I' for Inactive)
REMARK    1  A    between atoms: C2_2  and  C3_3 
REMARK    2  A    between atoms: C3_3  and  C4_4 
REMARK    3  A    between atoms: C6_6  and  C7_7 
REMARK    4  A    between atoms: C7_7  and  N1_8 
REMARK    5  A    between atoms: N1_8  and  C8_9 
REMARK    6  A    between atoms: N4_23  and  O2_24 
ROOT
HETATM    1  C8  UNL     1      23.798   4.637  50.318  1.00  0.00     0.094 A 
HETATM    2  C9  UNL     1      23.801   3.930  49.101  1.00  0.00     0.032 A 
HETATM    3  C10 UNL     1      24.398   5.164  48.840  1.00  0.00     0.153 A 
HETATM    4  N2  UNL     1      24.648   6.206  49.624  1.00  0.00    -0.292 NA
HETATM    5  C11 UNL     1      24.345   6.258  50.918  1.00  0.00     0.126 A 
HETATM    6  C12 UNL     1      23.733   5.210  51.561  1.00  0.00     0.057 A 
HETATM    7  C13 UNL     1      23.041   4.517  52.707  1.00  0.00     0.252 C 
HETATM    8  O1  UNL     1      23.764   4.946  53.381  1.00  0.00    -0.268 OA
HETATM    9  N3  UNL     1      21.973   3.797  52.296  1.00  0.00    -0.352 N 
HETATM   10  C14 UNL     1      20.804   3.009  51.846  1.00  0.00     0.089 C 
HETATM   11  C15 UNL     1      19.852   3.987  51.215  1.00  0.00     0.057 C 
HETATM   12  C16 UNL     1      19.707   3.764  49.744  1.00  0.00     0.049 C 
HETATM   13  C17 UNL     1      18.668   2.721  49.428  1.00  0.00     0.040 C 
HETATM   14  C18 UNL     1      19.116   5.079  49.177  1.00  0.00     0.040 C 
HETATM   15  N4  UNL     1      20.966   3.617  49.148  1.00  0.00    -0.278 N 
HETATM   16  C19 UNL     1      21.774   2.491  49.507  1.00  0.00     0.054 C 
HETATM   17  C20 UNL     1      21.251   1.357  48.586  1.00  0.00     0.041 C 
HETATM   18  C21 UNL     1      23.213   2.609  49.079  1.00  0.00     0.048 C 
HETATM   19  C22 UNL     1      21.446   2.039  50.878  1.00  0.00     0.058 C 
HETATM   20  H13 UNL     1      21.930   3.617  53.355  1.00  0.00     0.163 HD
ENDROOT
BRANCH   1  21
HETATM   21  N1  UNL     1      24.237   3.432  51.030  1.00  0.00    -0.403 N 
HETATM   22  H10 UNL     1      24.094   2.602  51.622  1.00  0.00     0.154 HD
BRANCH  21  23
HETATM   23  C7  UNL     1      25.653   3.250  50.914  1.00  0.00     0.143 C 
BRANCH  23  24
HETATM   24  C6  UNL     1      26.191   1.944  51.312  1.00  0.00    -0.001 C 
HETATM   25  C4  UNL     1      26.006   1.031  52.242  1.00  0.00    -0.057 C 
HETATM   26  C5  UNL     1      26.869  -0.161  52.163  1.00  0.00     0.048 C 
BRANCH  25  27
HETATM   27  C3  UNL     1      24.997   1.231  53.263  1.00  0.00     0.057 C 
BRANCH  27  28
HETATM   28  C2  UNL     1      23.928   0.478  53.187  1.00  0.00    -0.154 C 
HETATM   29  C1  UNL     1      22.959  -0.396  53.384  1.00  0.00     0.096 C 
ENDBRANCH  27  28
ENDBRANCH  25  27
ENDBRANCH  23  24
ENDBRANCH  21  23
ENDBRANCH   1  21
BRANCH  15  30
HETATM   30  O2  UNL     1      21.093   4.023  47.889  1.00  0.00    -0.291 OA
HETATM   31  H23 UNL     1      21.043   4.973  47.714  1.00  0.00     0.244 HD
ENDBRANCH  15  30
TORSDOF 6
ENDMDL
MODEL 5
REMARK VINA RESULT:      -7.3      9.124     11.006
REMARK  6 active torsions:
REMARK  status: ('A' for Active; 'I' for Inactive)
REMARK    1  A    between atoms: C2_2  and  C3_3 
REMARK    2  A    between atoms: C3_3  and  C4_4 
REMARK    3  A    between atoms: C6_6  and  C7_7 
REMARK    4  A    between atoms: C7_7  and  N1_8 
REMARK    5  A    between atoms: N1_8  and  C8_9 
REMARK    6  A    between atoms: N4_23  and  O2_24 
ROOT
HETATM    1  C8  UNL     1      21.613   2.902  51.391  1.00  0.00     0.094 A 
HETATM    2  C9  UNL     1      22.318   4.111  51.542  1.00  0.00     0.032 A 
HETATM    3  C10 UNL     1      21.282   4.142  52.476  1.00  0.00     0.153 A 
HETATM    4  N2  UNL     1      20.324   3.267  52.760  1.00  0.00    -0.292 NA
HETATM    5  C11 UNL     1      20.175   2.097  52.146  1.00  0.00     0.126 A 
HETATM    6  C12 UNL     1      21.020   1.692  51.143  1.00  0.00     0.057 A 
HETATM    7  C13 UNL     1      21.494   0.806  50.019  1.00  0.00     0.252 C 
HETATM    8  O1  UNL     1      21.251  -0.056  50.619  1.00  0.00    -0.268 OA
HETATM    9  N3  UNL     1      21.924   1.519  48.955  1.00  0.00    -0.352 N 
HETATM   10  C14 UNL     1      22.396   2.301  47.789  1.00  0.00     0.089 C 
HETATM   11  C15 UNL     1      21.219   3.107  47.317  1.00  0.00     0.057 C 
HETATM   12  C16 UNL     1      21.423   4.574  47.519  1.00  0.00     0.049 C 
HETATM   13  C17 UNL     1      22.172   5.205  46.375  1.00  0.00     0.040 C 
HETATM   14  C18 UNL     1      20.011   5.208  47.449  1.00  0.00     0.040 C 
HETATM   15  N4  UNL     1      21.897   4.826  48.813  1.00  0.00    -0.278 N 
HETATM   16  C19 UNL     1      23.185   4.326  49.188  1.00  0.00     0.054 C 
HETATM   17  C20 UNL     1      24.165   5.410  48.662  1.00  0.00     0.041 C 
HETATM   18  C21 UNL     1      23.446   4.356  50.670  1.00  0.00     0.048 C 
HETATM   19  C22 UNL     1      23.515   3.115  48.403  1.00  0.00     0.058 C 
HETATM   20  H13 UNL     1      22.070   0.519  48.587  1.00  0.00     0.163 HD
ENDROOT
BRANCH   1  21
HETATM   21  N1  UNL     1      22.877   2.164  51.309  1.00  0.00    -0.403 N 
HETATM   22  H10 UNL     1      23.639   1.685  50.808  1.00  0.00     0.154 HD
BRANCH  21  23
HETATM   23  C7  UNL     1      23.397   1.880  52.613  1.00  0.00     0.143 C 
BRANCH  23  24
HETATM   24  C6  UNL     1      24.356   0.775  52.721  1.00  0.00    -0.001 C 
HETATM   25  C4  UNL     1      25.614   0.516  52.435  1.00  0.00    -0.057 C 
HETATM   26  C5  UNL     1      26.095  -0.834  52.781  1.00  0.00     0.048 C 
BRANCH  25  27
HETATM   27  C3  UNL     1      26.441   1.532  51.816  1.00  0.00     0.057 C 
BRANCH  27  28
HETATM   28  C2  UNL     1      27.349   2.094  52.577  1.00  0.00    -0.154 C 
HETATM   29  C1  UNL     1      28.308   2.362  53.441  1.00  0.00     0.096 C 
ENDBRANCH  27  28
ENDBRANCH  25  27
ENDBRANCH  23  24
ENDBRANCH  21  23
ENDBRANCH   1  21
BRANCH  15  30
HETATM   30  O2  UNL     1      21.558   5.984  49.369  1.00  0.00    -0.291 OA
HETATM   31  H23 UNL     1      22.239   6.669  49.436  1.00  0.00     0.244 HD
ENDBRANCH  15  30
TORSDOF 6
ENDMDL
MODEL 6
REMARK VINA RESULT:      -7.2     11.098     12.950
REMARK  6 active torsions:
REMARK  status: ('A' for Active; 'I' for Inactive)
REMARK    1  A    between atoms: C2_2  and  C3_3 
REMARK    2  A    between atoms: C3_3  and  C4_4 
REMARK    3  A    between atoms: C6_6  and  C7_7 
REMARK    4  A    between atoms: C7_7  and  N1_8 
REMARK    5  A    between atoms: N1_8  and  C8_9 
REMARK    6  A    between atoms: N4_23  and  O2_24 
ROOT
HETATM    1  C8  UNL     1      21.842   2.412  49.543  1.00  0.00     0.094 A 
HETATM    2  C9  UNL     1      21.450   1.061  49.528  1.00  0.00     0.032 A 
HETATM    3  C10 UNL     1      21.968   1.334  48.261  1.00  0.00     0.153 A 
HETATM    4  N2  UNL     1      22.476   2.443  47.737  1.00  0.00    -0.292 NA
HETATM    5  C11 UNL     1      22.590   3.595  48.391  1.00  0.00     0.126 A 
HETATM    6  C12 UNL     1      22.180   3.731  49.694  1.00  0.00     0.057 A 
HETATM    7  C13 UNL     1      21.859   4.481  50.962  1.00  0.00     0.252 C 
HETATM    8  O1  UNL     1      22.766   5.049  50.836  1.00  0.00    -0.268 OA
HETATM    9  N3  UNL     1      20.698   4.068  51.518  1.00  0.00    -0.352 N 
HETATM   10  C14 UNL     1      19.427   3.614  52.126  1.00  0.00     0.089 C 
HETATM   11  C15 UNL     1      18.352   3.883  51.110  1.00  0.00     0.057 C 
HETATM   12  C16 UNL     1      17.753   2.622  50.575  1.00  0.00     0.049 C 
HETATM   13  C17 UNL     1      16.641   2.108  51.450  1.00  0.00     0.040 C 
HETATM   14  C18 UNL     1      17.050   3.020  49.253  1.00  0.00     0.040 C 
HETATM   15  N4  UNL     1      18.762   1.717  50.220  1.00  0.00    -0.278 N 
HETATM   16  C19 UNL     1      19.612   1.192  51.245  1.00  0.00     0.054 C 
HETATM   17  C20 UNL     1      18.800  -0.001  51.817  1.00  0.00     0.041 C 
HETATM   18  C21 UNL     1      20.850   0.511  50.724  1.00  0.00     0.048 C 
HETATM   19  C22 UNL     1      19.713   2.148  52.370  1.00  0.00     0.058 C 
HETATM   20  H13 UNL     1      20.981   4.837  52.214  1.00  0.00     0.163 HD
ENDROOT
BRANCH   1  21
HETATM   21  N1  UNL     1      22.449   2.230  50.866  1.00  0.00    -0.403 N 
HETATM   22  H10 UNL     1      22.463   2.287  51.894  1.00  0.00     0.154 HD
BRANCH  21  23
HETATM   23  C7  UNL     1      23.784   1.724  50.758  1.00  0.00     0.143 C 
BRANCH  23  24
HETATM   24  C6  UNL     1      24.501   1.464  52.012  1.00  0.00    -0.001 C 
HETATM   25  C4  UNL     1      24.499   0.593  52.999  1.00  0.00    -0.057 C 
HETATM   26  C5  UNL     1      25.493   0.815  54.064  1.00  0.00     0.048 C 
BRANCH  25  27
HETATM   27  C3  UNL     1      23.554  -0.506  52.993  1.00  0.00     0.057 C 
BRANCH  27  28
HETATM   28  C2  UNL     1      22.592  -0.456  53.881  1.00  0.00    -0.154 C 
HETATM   29  C1  UNL     1      21.531  -0.156  54.606  1.00  0.00     0.096 C 
ENDBRANCH  27  28
ENDBRANCH  25  27
ENDBRANCH  23  24
ENDBRANCH  21  23
ENDBRANCH   1  21
BRANCH  15  30
HETATM   30  O2  UNL     1      18.503   0.882  49.219  1.00  0.00    -0.291 OA
HETATM   31  H23 UNL     1      18.224  -0.016  49.441  1.00  0.00     0.244 HD
ENDBRANCH  15  30
TORSDOF 6
ENDMDL
MODEL 7
REMARK VINA RESULT:      -7.2      8.957     11.332
REMARK  6 active torsions:
REMARK  status: ('A' for Active; 'I' for Inactive)
REMARK    1  A    between atoms: C2_2  and  C3_3 
REMARK    2  A    between atoms: C3_3  and  C4_4 
REMARK    3  A    between atoms: C6_6  and  C7_7 
REMARK    4  A    between atoms: C7_7  and  N1_8 
REMARK    5  A    between atoms: N1_8  and  C8_9 
REMARK    6  A    between atoms: N4_23  and  O2_24 
ROOT
HETATM    1  C8  UNL     1      21.759   3.797  48.650  1.00  0.00     0.094 A 
HETATM    2  C9  UNL     1      22.734   2.782  48.658  1.00  0.00     0.032 A 
HETATM    3  C10 UNL     1      22.134   2.740  47.399  1.00  0.00     0.153 A 
HETATM    4  N2  UNL     1      21.163   3.468  46.860  1.00  0.00    -0.292 NA
HETATM    5  C11 UNL     1      20.536   4.459  47.487  1.00  0.00     0.126 A 
HETATM    6  C12 UNL     1      20.851   4.815  48.775  1.00  0.00     0.057 A 
HETATM    7  C13 UNL     1      20.674   5.550  50.080  1.00  0.00     0.252 C 
HETATM    8  O1  UNL     1      20.465   6.450  49.525  1.00  0.00    -0.268 OA
HETATM    9  N3  UNL     1      20.854   4.740  51.147  1.00  0.00    -0.352 N 
HETATM   10  C14 UNL     1      21.052   3.854  52.316  1.00  0.00     0.089 C 
HETATM   11  C15 UNL     1      20.008   2.778  52.212  1.00  0.00     0.057 C 
HETATM   12  C16 UNL     1      20.608   1.433  51.954  1.00  0.00     0.049 C 
HETATM   13  C17 UNL     1      21.029   0.746  53.225  1.00  0.00     0.040 C 
HETATM   14  C18 UNL     1      19.453   0.557  51.407  1.00  0.00     0.040 C 
HETATM   15  N4  UNL     1      21.554   1.513  50.924  1.00  0.00    -0.278 N 
HETATM   16  C19 UNL     1      22.736   2.295  51.129  1.00  0.00     0.054 C 
HETATM   17  C20 UNL     1      23.691   1.324  51.875  1.00  0.00     0.041 C 
HETATM   18  C21 UNL     1      23.504   2.586  49.867  1.00  0.00     0.048 C 
HETATM   19  C22 UNL     1      22.473   3.379  52.101  1.00  0.00     0.058 C 
HETATM   20  H13 UNL     1      20.621   5.665  51.644  1.00  0.00     0.163 HD
ENDROOT
BRANCH   1  21
HETATM   21  N1  UNL     1      22.702   4.721  49.290  1.00  0.00    -0.403 N 
HETATM   22  H10 UNL     1      23.117   5.210  50.095  1.00  0.00     0.154 HD
BRANCH  21  23
HETATM   23  C7  UNL     1      23.522   5.379  48.318  1.00  0.00     0.143 C 
BRANCH  23  24
HETATM   24  C6  UNL     1      24.540   6.306  48.824  1.00  0.00    -0.001 C 
HETATM   25  C4  UNL     1      25.815   6.305  49.152  1.00  0.00    -0.057 C 
HETATM   26  C5  UNL     1      26.366   7.587  49.626  1.00  0.00     0.048 C 
BRANCH  25  27
HETATM   27  C3  UNL     1      26.591   5.087  49.034  1.00  0.00     0.057 C 
BRANCH  27  28
HETATM   28  C2  UNL     1      27.782   5.200  48.498  1.00  0.00    -0.154 C 
HETATM   29  C1  UNL     1      29.045   5.464  48.227  1.00  0.00     0.096 C 
ENDBRANCH  27  28
ENDBRANCH  25  27
ENDBRANCH  23  24
ENDBRANCH  21  23
ENDBRANCH   1  21
BRANCH  15  30
HETATM   30  O2  UNL     1      21.716   0.435  50.163  1.00  0.00    -0.291 OA
HETATM   31  H23 UNL     1      21.877   0.569  49.219  1.00  0.00     0.244 HD
ENDBRANCH  15  30
TORSDOF 6
ENDMDL
MODEL 8
REMARK VINA RESULT:      -6.9      9.455     11.048
REMARK  6 active torsions:
REMARK  status: ('A' for Active; 'I' for Inactive)
REMARK    1  A    between atoms: C2_2  and  C3_3 
REMARK    2  A    between atoms: C3_3  and  C4_4 
REMARK    3  A    between atoms: C6_6  and  C7_7 
REMARK    4  A    between atoms: C7_7  and  N1_8 
REMARK    5  A    between atoms: N1_8  and  C8_9 
REMARK    6  A    between atoms: N4_23  and  O2_24 
ROOT
HETATM    1  C8  UNL     1      22.643   3.536  50.843  1.00  0.00     0.094 A 
HETATM    2  C9  UNL     1      23.388   3.231  49.689  1.00  0.00     0.032 A 
HETATM    3  C10 UNL     1      24.312   3.597  50.668  1.00  0.00     0.153 A 
HETATM    4  N2  UNL     1      24.155   3.977  51.931  1.00  0.00    -0.292 NA
HETATM    5  C11 UNL     1      22.978   4.082  52.539  1.00  0.00     0.126 A 
HETATM    6  C12 UNL     1      21.801   3.799  51.892  1.00  0.00     0.057 A 
HETATM    7  C13 UNL     1      20.303   3.742  51.725  1.00  0.00     0.252 C 
HETATM    8  O1  UNL     1      20.221   3.385  52.738  1.00  0.00    -0.268 OA
HETATM    9  N3  UNL     1      19.912   4.144  50.495  1.00  0.00    -0.352 N 
HETATM   10  C14 UNL     1      19.484   4.584  49.148  1.00  0.00     0.089 C 
HETATM   11  C15 UNL     1      19.942   6.009  49.004  1.00  0.00     0.057 C 
HETATM   12  C16 UNL     1      21.007   6.156  47.965  1.00  0.00     0.049 C 
HETATM   13  C17 UNL     1      20.433   6.318  46.583  1.00  0.00     0.040 C 
HETATM   14  C18 UNL     1      21.692   7.515  48.258  1.00  0.00     0.040 C 
HETATM   15  N4  UNL     1      21.995   5.179  48.140  1.00  0.00    -0.278 N 
HETATM   16  C19 UNL     1      21.644   3.802  47.964  1.00  0.00     0.054 C 
HETATM   17  C20 UNL     1      21.761   3.588  46.431  1.00  0.00     0.041 C 
HETATM   18  C21 UNL     1      22.670   2.836  48.498  1.00  0.00     0.048 C 
HETATM   19  C22 UNL     1      20.209   3.595  48.261  1.00  0.00     0.058 C 
HETATM   20  H13 UNL     1      18.957   3.931  50.941  1.00  0.00     0.163 HD
ENDROOT
BRANCH   1  21
HETATM   21  N1  UNL     1      21.812   2.345  50.633  1.00  0.00    -0.403 N 
HETATM   22  H10 UNL     1      20.928   1.856  50.434  1.00  0.00     0.154 HD
BRANCH  21  23
HETATM   23  C7  UNL     1      22.571   1.145  50.820  1.00  0.00     0.143 C 
BRANCH  23  24
HETATM   24  C6  UNL     1      22.406   0.447  52.100  1.00  0.00    -0.001 C 
HETATM   25  C4  UNL     1      23.094   0.193  53.193  1.00  0.00    -0.057 C 
HETATM   26  C5  UNL     1      22.402  -0.595  54.229  1.00  0.00     0.048 C 
BRANCH  25  27
HETATM   27  C3  UNL     1      24.452   0.682  53.323  1.00  0.00     0.057 C 
BRANCH  27  28
HETATM   28  C2  UNL     1      25.405  -0.114  52.904  1.00  0.00    -0.154 C 
HETATM   29  C1  UNL     1      26.329  -1.046  52.768  1.00  0.00     0.096 C 
ENDBRANCH  27  28
ENDBRANCH  25  27
ENDBRANCH  23  24
ENDBRANCH  21  23
ENDBRANCH   1  21
BRANCH  15  30
HETATM   30  O2  UNL     1      23.233   5.496  47.777  1.00  0.00    -0.291 OA
HETATM   31  H23 UNL     1      23.718   6.125  48.329  1.00  0.00     0.244 HD
ENDBRANCH  15  30
TORSDOF 6
ENDMDL
MODEL 9
REMARK VINA RESULT:      -6.8      9.059     10.756
REMARK  6 active torsions:
REMARK  status: ('A' for Active; 'I' for Inactive)
REMARK    1  A    between atoms: C2_2  and  C3_3 
REMARK    2  A    between atoms: C3_3  and  C4_4 
REMARK    3  A    between atoms: C6_6  and  C7_7 
REMARK    4  A    between atoms: C7_7  and  N1_8 
REMARK    5  A    between atoms: N1_8  and  C8_9 
REMARK    6  A    between atoms: N4_23  and  O2_24 
ROOT
HETATM    1  C8  UNL     1      23.241   3.718  50.458  1.00  0.00     0.094 A 
HETATM    2  C9  UNL     1      23.779   3.733  49.158  1.00  0.00     0.032 A 
HETATM    3  C10 UNL     1      24.709   3.071  49.961  1.00  0.00     0.153 A 
HETATM    4  N2  UNL     1      24.707   2.781  51.257  1.00  0.00    -0.292 NA
HETATM    5  C11 UNL     1      23.723   3.099  52.093  1.00  0.00     0.126 A 
HETATM    6  C12 UNL     1      22.603   3.772  51.670  1.00  0.00     0.057 A 
HETATM    7  C13 UNL     1      21.301   4.514  51.837  1.00  0.00     0.252 C 
HETATM    8  O1  UNL     1      20.996   3.780  52.565  1.00  0.00    -0.268 OA
HETATM    9  N3  UNL     1      21.236   5.610  51.049  1.00  0.00    -0.352 N 
HETATM   10  C14 UNL     1      21.165   6.811  50.185  1.00  0.00     0.089 C 
HETATM   11  C15 UNL     1      22.298   7.703  50.608  1.00  0.00     0.057 C 
HETATM   12  C16 UNL     1      23.338   7.838  49.543  1.00  0.00     0.049 C 
HETATM   13  C17 UNL     1      23.000   8.923  48.555  1.00  0.00     0.040 C 
HETATM   14  C18 UNL     1      24.609   8.355  50.261  1.00  0.00     0.040 C 
HETATM   15  N4  UNL     1      23.670   6.580  49.025  1.00  0.00    -0.278 N 
HETATM   16  C19 UNL     1      22.669   5.833  48.324  1.00  0.00     0.054 C 
HETATM   17  C20 UNL     1      22.736   6.399  46.880  1.00  0.00     0.041 C 
HETATM   18  C21 UNL     1      23.021   4.385  48.113  1.00  0.00     0.048 C 
HETATM   19  C22 UNL     1      21.319   6.204  48.808  1.00  0.00     0.058 C 
HETATM   20  H13 UNL     1      20.287   5.677  51.549  1.00  0.00     0.163 HD
ENDROOT
BRANCH   1  21
HETATM   21  N1  UNL     1      21.927   3.349  49.920  1.00  0.00    -0.403 N 
HETATM   22  H10 UNL     1      20.960   3.542  49.624  1.00  0.00     0.154 HD
BRANCH  21  23
HETATM   23  C7  UNL     1      21.849   1.942  49.664  1.00  0.00     0.143 C 
BRANCH  23  24
HETATM   24  C6  UNL     1      20.768   1.204  50.327  1.00  0.00    -0.001 C 
HETATM   25  C4  UNL     1      20.595   0.394  51.349  1.00  0.00    -0.057 C 
HETATM   26  C5  UNL     1      19.217  -0.076  51.581  1.00  0.00     0.048 C 
BRANCH  25  27
HETATM   27  C3  UNL     1      21.725   0.015  52.172  1.00  0.00     0.057 C 
BRANCH  27  28
HETATM   28  C2  UNL     1      21.555   0.080  53.470  1.00  0.00    -0.154 C 
HETATM   29  C1  UNL     1      21.092   0.047  54.705  1.00  0.00     0.096 C 
ENDBRANCH  27  28
ENDBRANCH  25  27
ENDBRANCH  23  24
ENDBRANCH  21  23
ENDBRANCH   1  21
BRANCH  15  30
HETATM   30  O2  UNL     1      24.911   6.415  48.580  1.00  0.00    -0.291 OA
HETATM   31  H23 UNL     1      25.335   7.163  48.138  1.00  0.00     0.244 HD
ENDBRANCH  15  30
TORSDOF 6
ENDMDL
