MODEL 1
REMARK VINA RESULT:      -9.4      0.000      0.000
REMARK  2 active torsions:
REMARK  status: ('A' for Active; 'I' for Inactive)
REMARK    1  A    between atoms: C11_17  and  N5_18 
REMARK    2  A    between atoms: N5_18  and  C12_19 
ROOT
HETATM    1  C1  UNL     1      23.372   4.534  52.673  1.00  0.00     0.169 C 
HETATM    2  N1  UNL     1      23.136   3.442  51.671  1.00  0.00    -0.210 N 
HETATM    3  C2  UNL     1      21.812   2.758  51.656  1.00  0.00     0.135 C 
HETATM    4  C3  UNL     1      21.686   1.597  52.408  1.00  0.00     0.059 A 
HETATM    5  C4  UNL     1      21.480   0.297  53.229  1.00  0.00    -0.011 A 
HETATM    6 BR1  UNL     1      19.784  -0.517  53.457  1.00  0.00    -0.059 Br
HETATM    7  C5  UNL     1      22.294  -0.396  53.896  1.00  0.00     0.042 A 
HETATM    8  O1  UNL     1      22.705   0.675  53.142  1.00  0.00     0.000 OA
HETATM    9  C6  UNL     1      23.669  -0.830  54.364  1.00  0.00    -0.013 C 
HETATM   10  C7  UNL     1      25.021  -0.892  54.481  1.00  0.00    -0.028 C 
HETATM   11  C8  UNL     1      25.736   0.034  53.652  1.00  0.00     0.045 C 
HETATM   12  C9  UNL     1      26.799   0.957  54.277  1.00  0.00     0.141 C 
HETATM   13  N2  UNL     1      27.097   1.978  53.214  1.00  0.00    -0.113 NA
HETATM   14  N3  UNL     1      26.462   1.736  52.081  1.00  0.00    -0.141 NA
HETATM   15  C10 UNL     1      26.705   2.676  51.053  1.00  0.00     0.298 A 
HETATM   16  N4  UNL     1      27.101   3.546  50.041  1.00  0.00    -0.021 NA
HETATM   17  C11 UNL     1      26.039   4.357  49.648  1.00  0.00     0.746 A 
HETATM   18  N6  UNL     1      24.751   4.476  50.023  1.00  0.00     0.130 NA
HETATM   19  C18 UNL     1      24.459   3.531  51.074  1.00  0.00     0.743 A 
HETATM   20  N7  UNL     1      25.491   2.808  51.390  1.00  0.00    -0.021 NA
HETATM   21  H6  UNL     1      23.275   0.441  52.235  1.00  0.00     0.000 HD
ENDROOT
BRANCH  17  22
HETATM   22  N5  UNL     1      26.427   5.316  48.640  1.00  0.00    -0.188 N 
HETATM   23  H13 UNL     1      25.799   5.386  47.759  1.00  0.00     0.184 HD
BRANCH  22  24
HETATM   24  C12 UNL     1      27.481   6.235  48.580  1.00  0.00     0.049 A 
HETATM   25  C13 UNL     1      27.162   7.556  48.969  1.00  0.00     0.033 A 
HETATM   26  C14 UNL     1      28.296   8.388  48.904  1.00  0.00     0.044 A 
HETATM   27  C15 UNL     1      29.658   8.105  48.520  1.00  0.00     0.116 A 
HETATM   28  F1  UNL     1      30.490   9.134  48.556  1.00  0.00    -0.206 F 
HETATM   29  C16 UNL     1      29.752   6.761  48.173  1.00  0.00     0.044 A 
HETATM   30  C17 UNL     1      28.689   5.870  48.208  1.00  0.00     0.033 A 
ENDBRANCH  22  24
ENDBRANCH  17  22
TORSDOF 2
ENDMDL
MODEL 2
REMARK VINA RESULT:      -8.9      4.409      7.332
REMARK  2 active torsions:
REMARK  status: ('A' for Active; 'I' for Inactive)
REMARK    1  A    between atoms: C11_17  and  N5_18 
REMARK    2  A    between atoms: N5_18  and  C12_19 
ROOT
HETATM    1  C1  UNL     1      23.110   4.148  52.450  1.00  0.00     0.169 C 
HETATM    2  N1  UNL     1      23.540   3.353  51.251  1.00  0.00    -0.210 N 
HETATM    3  C2  UNL     1      23.915   4.081  50.007  1.00  0.00     0.135 C 
HETATM    4  C3  UNL     1      22.917   4.282  49.061  1.00  0.00     0.059 A 
HETATM    5  C4  UNL     1      21.848   4.542  47.967  1.00  0.00    -0.011 A 
HETATM    6 BR1  UNL     1      22.164   5.648  46.461  1.00  0.00    -0.059 Br
HETATM    7  C5  UNL     1      20.650   4.161  47.877  1.00  0.00     0.042 A 
HETATM    8  O1  UNL     1      21.472   3.726  48.887  1.00  0.00     0.000 OA
HETATM    9  C6  UNL     1      19.438   3.334  48.258  1.00  0.00    -0.013 C 
HETATM   10  C7  UNL     1      18.661   2.419  48.895  1.00  0.00    -0.028 C 
HETATM   11  C8  UNL     1      19.332   1.675  49.920  1.00  0.00     0.045 C 
HETATM   12  C9  UNL     1      18.717   1.589  51.329  1.00  0.00     0.141 C 
HETATM   13  N2  UNL     1      19.811   1.026  52.195  1.00  0.00    -0.113 NA
HETATM   14  N3  UNL     1      20.889   0.698  51.506  1.00  0.00    -0.141 NA
HETATM   15  C10 UNL     1      21.949   0.173  52.280  1.00  0.00     0.298 A 
HETATM   16  N4  UNL     1      22.893  -0.475  53.072  1.00  0.00    -0.021 NA
HETATM   17  C11 UNL     1      24.051   0.290  53.180  1.00  0.00     0.746 A 
HETATM   18  N6  UNL     1      24.443   1.485  52.697  1.00  0.00     0.130 NA
HETATM   19  C18 UNL     1      23.388   2.059  51.897  1.00  0.00     0.743 A 
HETATM   20  N7  UNL     1      22.339   1.294  51.838  1.00  0.00    -0.021 NA
HETATM   21  H6  UNL     1      21.792   2.679  48.837  1.00  0.00     0.000 HD
ENDROOT
BRANCH  17  22
HETATM   22  N5  UNL     1      25.033  -0.320  54.045  1.00  0.00    -0.188 N 
HETATM   23  H13 UNL     1      24.671  -0.763  54.967  1.00  0.00     0.184 HD
BRANCH  22  24
HETATM   24  C12 UNL     1      26.417  -0.489  53.916  1.00  0.00     0.049 A 
HETATM   25  C13 UNL     1      27.208   0.253  54.822  1.00  0.00     0.033 A 
HETATM   26  C14 UNL     1      28.577  -0.013  54.629  1.00  0.00     0.044 A 
HETATM   27  C15 UNL     1      29.252  -0.883  53.695  1.00  0.00     0.116 A 
HETATM   28  F1  UNL     1      30.573  -0.891  53.770  1.00  0.00    -0.206 F 
HETATM   29  C16 UNL     1      28.295  -1.508  52.900  1.00  0.00     0.044 A 
HETATM   30  C17 UNL     1      26.927  -1.306  53.020  1.00  0.00     0.033 A 
ENDBRANCH  22  24
ENDBRANCH  17  22
TORSDOF 2
ENDMDL
MODEL 3
REMARK VINA RESULT:      -8.7      2.795      3.298
REMARK  2 active torsions:
REMARK  status: ('A' for Active; 'I' for Inactive)
REMARK    1  A    between atoms: C11_17  and  N5_18 
REMARK    2  A    between atoms: N5_18  and  C12_19 
ROOT
HETATM    1  C1  UNL     1      23.729   4.616  52.971  1.00  0.00     0.169 C 
HETATM    2  N1  UNL     1      23.301   3.641  51.914  1.00  0.00    -0.210 N 
HETATM    3  C2  UNL     1      22.104   2.791  52.166  1.00  0.00     0.135 C 
HETATM    4  C3  UNL     1      22.320   1.535  52.721  1.00  0.00     0.059 A 
HETATM    5  C4  UNL     1      22.493   0.124  53.341  1.00  0.00    -0.011 A 
HETATM    6 BR1  UNL     1      21.030  -0.938  53.909  1.00  0.00    -0.059 Br
HETATM    7  C5  UNL     1      23.532  -0.531  53.624  1.00  0.00     0.042 A 
HETATM    8  O1  UNL     1      23.594   0.674  52.971  1.00  0.00     0.000 OA
HETATM    9  C6  UNL     1      25.018  -0.830  53.600  1.00  0.00    -0.013 C 
HETATM   10  C7  UNL     1      26.342  -0.721  53.313  1.00  0.00    -0.028 C 
HETATM   11  C8  UNL     1      26.682   0.393  52.478  1.00  0.00     0.045 C 
HETATM   12  C9  UNL     1      27.795   1.365  52.915  1.00  0.00     0.141 C 
HETATM   13  N2  UNL     1      27.660   2.546  51.994  1.00  0.00    -0.113 NA
HETATM   14  N3  UNL     1      26.737   2.368  51.067  1.00  0.00    -0.141 NA
HETATM   15  C10 UNL     1      26.568   3.458  50.182  1.00  0.00     0.298 A 
HETATM   16  N4  UNL     1      26.556   4.497  49.256  1.00  0.00    -0.021 NA
HETATM   17  C11 UNL     1      25.355   5.199  49.322  1.00  0.00     0.746 A 
HETATM   18  N6  UNL     1      24.237   5.091  50.064  1.00  0.00     0.130 NA
HETATM   19  C18 UNL     1      24.365   3.986  50.985  1.00  0.00     0.743 A 
HETATM   20  N7  UNL     1      25.507   3.377  50.869  1.00  0.00    -0.021 NA
HETATM   21  H6  UNL     1      23.880   0.640  51.913  1.00  0.00     0.000 HD
ENDROOT
BRANCH  17  22
HETATM   22  N5  UNL     1      25.328   6.324  48.418  1.00  0.00    -0.188 N 
HETATM   23  H13 UNL     1      26.235   6.532  47.860  1.00  0.00     0.184 HD
BRANCH  22  24
HETATM   24  C12 UNL     1      24.312   7.227  48.079  1.00  0.00     0.049 A 
HETATM   25  C13 UNL     1      24.327   8.453  48.782  1.00  0.00     0.033 A 
HETATM   26  C14 UNL     1      23.289   9.296  48.343  1.00  0.00     0.044 A 
HETATM   27  C15 UNL     1      22.270   9.103  47.339  1.00  0.00     0.116 A 
HETATM   28  F1  UNL     1      21.423  10.108  47.180  1.00  0.00    -0.206 F 
HETATM   29  C16 UNL     1      22.434   7.840  46.777  1.00  0.00     0.044 A 
HETATM   30  C17 UNL     1      23.427   6.944  47.148  1.00  0.00     0.033 A 
ENDBRANCH  22  24
ENDBRANCH  17  22
TORSDOF 2
ENDMDL
MODEL 4
REMARK VINA RESULT:      -8.7      4.163      6.895
REMARK  2 active torsions:
REMARK  status: ('A' for Active; 'I' for Inactive)
REMARK    1  A    between atoms: C11_17  and  N5_18 
REMARK    2  A    between atoms: N5_18  and  C12_19 
ROOT
HETATM    1  C1  UNL     1      21.205   0.260  50.685  1.00  0.00     0.169 C 
HETATM    2  N1  UNL     1      20.948   1.169  51.852  1.00  0.00    -0.210 N 
HETATM    3  C2  UNL     1      19.539   1.476  52.223  1.00  0.00     0.135 C 
HETATM    4  C3  UNL     1      18.970   2.619  51.674  1.00  0.00     0.059 A 
HETATM    5  C4  UNL     1      18.276   3.879  51.094  1.00  0.00    -0.011 A 
HETATM    6 BR1  UNL     1      16.429   4.234  51.320  1.00  0.00    -0.059 Br
HETATM    7  C5  UNL     1      18.727   4.813  50.376  1.00  0.00     0.042 A 
HETATM    8  O1  UNL     1      19.543   3.832  50.882  1.00  0.00     0.000 OA
HETATM    9  C6  UNL     1      19.814   5.629  49.706  1.00  0.00    -0.013 C 
HETATM   10  C7  UNL     1      21.049   6.054  49.331  1.00  0.00    -0.028 C 
HETATM   11  C8  UNL     1      22.135   5.287  49.868  1.00  0.00     0.045 C 
HETATM   12  C9  UNL     1      23.217   4.728  48.926  1.00  0.00     0.141 C 
HETATM   13  N2  UNL     1      23.985   3.741  49.760  1.00  0.00    -0.113 NA
HETATM   14  N3  UNL     1      23.585   3.717  51.019  1.00  0.00    -0.141 NA
HETATM   15  C10 UNL     1      24.273   2.796  51.842  1.00  0.00     0.298 A 
HETATM   16  N4  UNL     1      25.086   1.984  52.628  1.00  0.00    -0.021 NA
HETATM   17  C11 UNL     1      24.368   0.894  53.112  1.00  0.00     0.746 A 
HETATM   18  N6  UNL     1      23.096   0.469  52.990  1.00  0.00     0.130 NA
HETATM   19  C18 UNL     1      22.354   1.384  52.156  1.00  0.00     0.743 A 
HETATM   20  N7  UNL     1      23.083   2.376  51.740  1.00  0.00    -0.021 NA
HETATM   21  H6  UNL     1      20.231   4.135  51.680  1.00  0.00     0.000 HD
ENDROOT
BRANCH  17  22
HETATM   22  N5  UNL     1      25.193  -0.006  53.884  1.00  0.00    -0.188 N 
HETATM   23  H13 UNL     1      24.696  -0.606  54.639  1.00  0.00     0.184 HD
BRANCH  22  24
HETATM   24  C12 UNL     1      26.562  -0.294  53.835  1.00  0.00     0.049 A 
HETATM   25  C13 UNL     1      27.363   0.386  54.780  1.00  0.00     0.033 A 
HETATM   26  C14 UNL     1      28.712   0.000  54.666  1.00  0.00     0.044 A 
HETATM   27  C15 UNL     1      29.360  -0.933  53.776  1.00  0.00     0.116 A 
HETATM   28  F1  UNL     1      30.669  -1.054  53.926  1.00  0.00    -0.206 F 
HETATM   29  C16 UNL     1      28.399  -1.482  52.932  1.00  0.00     0.044 A 
HETATM   30  C17 UNL     1      27.049  -1.162  52.974  1.00  0.00     0.033 A 
ENDBRANCH  22  24
ENDBRANCH  17  22
TORSDOF 2
ENDMDL
MODEL 5
REMARK VINA RESULT:      -8.5      4.428      7.210
REMARK  2 active torsions:
REMARK  status: ('A' for Active; 'I' for Inactive)
REMARK    1  A    between atoms: C11_17  and  N5_18 
REMARK    2  A    between atoms: N5_18  and  C12_19 
ROOT
HETATM    1  C1  UNL     1      22.953   2.529  48.689  1.00  0.00     0.169 C 
HETATM    2  N1  UNL     1      21.792   2.558  49.640  1.00  0.00    -0.210 N 
HETATM    3  C2  UNL     1      20.410   2.532  49.085  1.00  0.00     0.135 C 
HETATM    4  C3  UNL     1      19.790   3.755  48.863  1.00  0.00     0.059 A 
HETATM    5  C4  UNL     1      19.043   5.087  48.590  1.00  0.00    -0.011 A 
HETATM    6 BR1  UNL     1      17.383   5.168  47.679  1.00  0.00    -0.059 Br
HETATM    7  C5  UNL     1      19.366   6.280  48.836  1.00  0.00     0.042 A 
HETATM    8  O1  UNL     1      20.129   5.222  49.263  1.00  0.00     0.000 OA
HETATM    9  C6  UNL     1      20.195   7.375  49.477  1.00  0.00    -0.013 C 
HETATM   10  C7  UNL     1      21.147   7.987  50.230  1.00  0.00    -0.028 C 
HETATM   11  C8  UNL     1      22.010   7.092  50.944  1.00  0.00     0.045 C 
HETATM   12  C9  UNL     1      23.538   7.242  50.820  1.00  0.00     0.141 C 
HETATM   13  N2  UNL     1      24.100   5.982  51.419  1.00  0.00    -0.113 NA
HETATM   14  N3  UNL     1      23.168   5.201  51.934  1.00  0.00    -0.141 NA
HETATM   15  C10 UNL     1      23.649   3.999  52.501  1.00  0.00     0.298 A 
HETATM   16  N4  UNL     1      24.198   2.911  53.173  1.00  0.00    -0.021 NA
HETATM   17  C11 UNL     1      23.855   1.719  52.539  1.00  0.00     0.746 A 
HETATM   18  N6  UNL     1      23.128   1.402  51.451  1.00  0.00     0.130 NA
HETATM   19  C18 UNL     1      22.614   2.605  50.839  1.00  0.00     0.743 A 
HETATM   20  N7  UNL     1      22.971   3.677  51.481  1.00  0.00    -0.021 NA
HETATM   21  H6  UNL     1      20.121   5.019  50.340  1.00  0.00     0.000 HD
ENDROOT
BRANCH  17  22
HETATM   22  N5  UNL     1      24.456   0.569  53.172  1.00  0.00    -0.188 N 
HETATM   23  H13 UNL     1      23.788  -0.221  53.498  1.00  0.00     0.184 HD
BRANCH  22  24
HETATM   24  C12 UNL     1      25.791   0.239  53.439  1.00  0.00     0.049 A 
HETATM   25  C13 UNL     1      26.447  -0.507  52.434  1.00  0.00     0.033 A 
HETATM   26  C14 UNL     1      27.788  -0.755  52.786  1.00  0.00     0.044 A 
HETATM   27  C15 UNL     1      28.545  -0.380  53.956  1.00  0.00     0.116 A 
HETATM   28  F1  UNL     1      29.803  -0.792  53.981  1.00  0.00    -0.206 F 
HETATM   29  C16 UNL     1      27.715   0.338  54.812  1.00  0.00     0.044 A 
HETATM   30  C17 UNL     1      26.384   0.628  54.547  1.00  0.00     0.033 A 
ENDBRANCH  22  24
ENDBRANCH  17  22
TORSDOF 2
ENDMDL
MODEL 6
REMARK VINA RESULT:      -8.2      6.228     10.685
REMARK  2 active torsions:
REMARK  status: ('A' for Active; 'I' for Inactive)
REMARK    1  A    between atoms: C11_17  and  N5_18 
REMARK    2  A    between atoms: N5_18  and  C12_19 
ROOT
HETATM    1  C1  UNL     1      20.914   0.209  54.935  1.00  0.00     0.169 C 
HETATM    2  N1  UNL     1      21.308  -0.389  53.616  1.00  0.00    -0.210 N 
HETATM    3  C2  UNL     1      22.632  -1.061  53.501  1.00  0.00     0.135 C 
HETATM    4  C3  UNL     1      23.701  -0.291  53.058  1.00  0.00     0.059 A 
HETATM    5  C4  UNL     1      24.935   0.514  52.572  1.00  0.00    -0.011 A 
HETATM    6 BR1  UNL     1      26.697  -0.182  52.609  1.00  0.00    -0.059 Br
HETATM    7  C5  UNL     1      25.034   1.695  52.145  1.00  0.00     0.042 A 
HETATM    8  O1  UNL     1      23.816   1.129  52.426  1.00  0.00     0.000 OA
HETATM    9  C6  UNL     1      24.505   3.020  51.630  1.00  0.00    -0.013 C 
HETATM   10  C7  UNL     1      23.634   3.977  51.216  1.00  0.00    -0.028 C 
HETATM   11  C8  UNL     1      22.256   3.585  51.247  1.00  0.00     0.045 C 
HETATM   12  C9  UNL     1      21.223   4.474  51.964  1.00  0.00     0.141 C 
HETATM   13  N2  UNL     1      19.989   3.623  52.073  1.00  0.00    -0.113 NA
HETATM   14  N3  UNL     1      20.117   2.457  51.465  1.00  0.00    -0.141 NA
HETATM   15  C10 UNL     1      18.983   1.617  51.548  1.00  0.00     0.298 A 
HETATM   16  N4  UNL     1      17.787   0.904  51.537  1.00  0.00    -0.021 NA
HETATM   17  C11 UNL     1      17.906  -0.264  52.284  1.00  0.00     0.746 A 
HETATM   18  N6  UNL     1      18.898  -0.837  52.993  1.00  0.00     0.130 NA
HETATM   19  C18 UNL     1      20.080  -0.011  52.934  1.00  0.00     0.743 A 
HETATM   20  N7  UNL     1      19.900   1.061  52.221  1.00  0.00    -0.021 NA
HETATM   21  H6  UNL     1      23.181   0.888  51.566  1.00  0.00     0.000 HD
ENDROOT
BRANCH  17  22
HETATM   22  N5  UNL     1      16.667  -1.003  52.347  1.00  0.00    -0.188 N 
HETATM   23  H13 UNL     1      15.770  -0.491  52.015  1.00  0.00     0.184 HD
BRANCH  22  24
HETATM   24  C12 UNL     1      16.379  -2.315  52.742  1.00  0.00     0.049 A 
HETATM   25  C13 UNL     1      15.107  -2.801  52.363  1.00  0.00     0.033 A 
HETATM   26  C14 UNL     1      14.934  -4.135  52.779  1.00  0.00     0.044 A 
HETATM   27  C15 UNL     1      15.815  -5.027  53.496  1.00  0.00     0.116 A 
HETATM   28  F1  UNL     1      15.331  -6.233  53.746  1.00  0.00    -0.206 F 
HETATM   29  C16 UNL     1      17.000  -4.352  53.774  1.00  0.00     0.044 A 
HETATM   30  C17 UNL     1      17.257  -3.040  53.402  1.00  0.00     0.033 A 
ENDBRANCH  22  24
ENDBRANCH  17  22
TORSDOF 2
ENDMDL
MODEL 7
REMARK VINA RESULT:      -8.0      7.840      9.805
REMARK  2 active torsions:
REMARK  status: ('A' for Active; 'I' for Inactive)
REMARK    1  A    between atoms: C11_17  and  N5_18 
REMARK    2  A    between atoms: N5_18  and  C12_19 
ROOT
HETATM    1  C1  UNL     1      28.683   8.230  45.781  1.00  0.00     0.169 C 
HETATM    2  N1  UNL     1      27.977   8.107  47.100  1.00  0.00    -0.210 N 
HETATM    3  C2  UNL     1      26.489   8.151  47.124  1.00  0.00     0.135 C 
HETATM    4  C3  UNL     1      25.892   9.389  47.334  1.00  0.00     0.059 A 
HETATM    5  C4  UNL     1      25.165  10.740  47.562  1.00  0.00    -0.011 A 
HETATM    6 BR1  UNL     1      23.289  10.942  47.384  1.00  0.00    -0.059 Br
HETATM    7  C5  UNL     1      25.616  11.885  47.831  1.00  0.00     0.042 A 
HETATM    8  O1  UNL     1      26.432  10.782  47.776  1.00  0.00     0.000 OA
HETATM    9  C6  UNL     1      26.681  12.879  48.251  1.00  0.00    -0.013 C 
HETATM   10  C7  UNL     1      27.878  13.379  48.657  1.00  0.00    -0.028 C 
HETATM   11  C8  UNL     1      28.903  12.395  48.847  1.00  0.00     0.045 C 
HETATM   12  C9  UNL     1      30.273  12.576  48.167  1.00  0.00     0.141 C 
HETATM   13  N2  UNL     1      30.958  11.245  48.316  1.00  0.00    -0.113 NA
HETATM   14  N3  UNL     1      30.256  10.388  49.036  1.00  0.00    -0.141 NA
HETATM   15  C10 UNL     1      30.857   9.118  49.196  1.00  0.00     0.298 A 
HETATM   16  N4  UNL     1      31.566   7.947  49.443  1.00  0.00    -0.021 NA
HETATM   17  C11 UNL     1      30.948   6.861  48.829  1.00  0.00     0.746 A 
HETATM   18  N6  UNL     1      29.845   6.704  48.072  1.00  0.00     0.130 NA
HETATM   19  C18 UNL     1      29.197   7.980  47.883  1.00  0.00     0.743 A 
HETATM   20  N7  UNL     1      29.825   8.947  48.482  1.00  0.00    -0.021 NA
HETATM   21  H6  UNL     1      26.826  10.420  48.732  1.00  0.00     0.000 HD
ENDROOT
BRANCH  17  22
HETATM   22  N5  UNL     1      31.688   5.634  49.011  1.00  0.00    -0.188 N 
HETATM   23  H13 UNL     1      31.597   5.141  49.973  1.00  0.00     0.184 HD
BRANCH  22  24
HETATM   24  C12 UNL     1      32.515   4.904  48.148  1.00  0.00     0.049 A 
HETATM   25  C13 UNL     1      33.895   5.195  48.236  1.00  0.00     0.033 A 
HETATM   26  C14 UNL     1      34.637   4.386  47.354  1.00  0.00     0.044 A 
HETATM   27  C15 UNL     1      34.218   3.362  46.427  1.00  0.00     0.116 A 
HETATM   28  F1  UNL     1      35.185   2.794  45.724  1.00  0.00    -0.206 F 
HETATM   29  C16 UNL     1      32.833   3.240  46.496  1.00  0.00     0.044 A 
HETATM   30  C17 UNL     1      32.024   3.994  47.335  1.00  0.00     0.033 A 
ENDBRANCH  22  24
ENDBRANCH  17  22
TORSDOF 2
ENDMDL
MODEL 8
REMARK VINA RESULT:      -8.0      4.789      8.752
REMARK  2 active torsions:
REMARK  status: ('A' for Active; 'I' for Inactive)
REMARK    1  A    between atoms: C11_17  and  N5_18 
REMARK    2  A    between atoms: N5_18  and  C12_19 
ROOT
HETATM    1  C1  UNL     1      22.290   3.797  47.304  1.00  0.00     0.169 C 
HETATM    2  N1  UNL     1      22.137   5.015  48.168  1.00  0.00    -0.210 N 
HETATM    3  C2  UNL     1      21.735   6.299  47.532  1.00  0.00     0.135 C 
HETATM    4  C3  UNL     1      22.752   7.159  47.134  1.00  0.00     0.059 A 
HETATM    5  C4  UNL     1      23.839   8.160  46.664  1.00  0.00    -0.011 A 
HETATM    6 BR1  UNL     1      23.443   9.707  45.645  1.00  0.00    -0.059 Br
HETATM    7  C5  UNL     1      25.093   8.139  46.796  1.00  0.00     0.042 A 
HETATM    8  O1  UNL     1      24.289   7.197  47.387  1.00  0.00     0.000 OA
HETATM    9  C6  UNL     1      26.407   7.640  47.362  1.00  0.00    -0.013 C 
HETATM   10  C7  UNL     1      27.293   6.922  48.102  1.00  0.00    -0.028 C 
HETATM   11  C8  UNL     1      26.697   5.945  48.966  1.00  0.00     0.045 C 
HETATM   12  C9  UNL     1      27.189   4.487  48.926  1.00  0.00     0.141 C 
HETATM   13  N2  UNL     1      26.158   3.709  49.697  1.00  0.00    -0.113 NA
HETATM   14  N3  UNL     1      25.233   4.483  50.236  1.00  0.00    -0.141 NA
HETATM   15  C10 UNL     1      24.236   3.795  50.964  1.00  0.00     0.298 A 
HETATM   16  N4  UNL     1      23.375   3.076  51.788  1.00  0.00    -0.021 NA
HETATM   17  C11 UNL     1      22.082   3.083  51.271  1.00  0.00     0.746 A 
HETATM   18  N6  UNL     1      21.502   3.619  50.181  1.00  0.00     0.130 NA
HETATM   19  C18 UNL     1      22.487   4.335  49.406  1.00  0.00     0.743 A 
HETATM   20  N7  UNL     1      23.669   4.289  49.945  1.00  0.00    -0.021 NA
HETATM   21  H6  UNL     1      24.191   7.255  48.478  1.00  0.00     0.000 HD
ENDROOT
BRANCH  17  22
HETATM   22  N5  UNL     1      21.170   2.295  52.067  1.00  0.00    -0.188 N 
HETATM   23  H13 UNL     1      20.134   2.618  52.096  1.00  0.00     0.184 HD
BRANCH  22  24
HETATM   24  C12 UNL     1      21.354   1.130  52.823  1.00  0.00     0.049 A 
HETATM   25  C13 UNL     1      22.121   0.118  52.205  1.00  0.00     0.033 A 
HETATM   26  C14 UNL     1      22.272  -0.991  53.059  1.00  0.00     0.044 A 
HETATM   27  C15 UNL     1      21.785  -1.231  54.397  1.00  0.00     0.116 A 
HETATM   28  F1  UNL     1      22.100  -2.405  54.920  1.00  0.00    -0.206 F 
HETATM   29  C16 UNL     1      21.057  -0.120  54.810  1.00  0.00     0.044 A 
HETATM   30  C17 UNL     1      20.857   1.015  54.036  1.00  0.00     0.033 A 
ENDBRANCH  22  24
ENDBRANCH  17  22
TORSDOF 2
ENDMDL
MODEL 9
REMARK VINA RESULT:      -7.8      6.020     10.045
REMARK  2 active torsions:
REMARK  status: ('A' for Active; 'I' for Inactive)
REMARK    1  A    between atoms: C11_17  and  N5_18 
REMARK    2  A    between atoms: N5_18  and  C12_19 
ROOT
HETATM    1  C1  UNL     1      20.755   0.181  54.787  1.00  0.00     0.169 C 
HETATM    2  N1  UNL     1      21.180  -0.336  53.444  1.00  0.00    -0.210 N 
HETATM    3  C2  UNL     1      22.412  -1.167  53.353  1.00  0.00     0.135 C 
HETATM    4  C3  UNL     1      23.604  -0.511  53.070  1.00  0.00     0.059 A 
HETATM    5  C4  UNL     1      24.967   0.161  52.760  1.00  0.00    -0.011 A 
HETATM    6 BR1  UNL     1      26.616  -0.767  52.848  1.00  0.00    -0.059 Br
HETATM    7  C5  UNL     1      25.251   1.354  52.469  1.00  0.00     0.042 A 
HETATM    8  O1  UNL     1      23.951   0.933  52.601  1.00  0.00     0.000 OA
HETATM    9  C6  UNL     1      24.941   2.781  52.059  1.00  0.00    -0.013 C 
HETATM   10  C7  UNL     1      24.238   3.883  51.688  1.00  0.00    -0.028 C 
HETATM   11  C8  UNL     1      22.823   3.680  51.580  1.00  0.00     0.045 C 
HETATM   12  C9  UNL     1      21.856   4.628  52.313  1.00  0.00     0.141 C 
HETATM   13  N2  UNL     1      20.517   3.946  52.244  1.00  0.00    -0.113 NA
HETATM   14  N3  UNL     1      20.546   2.836  51.527  1.00  0.00    -0.141 NA
HETATM   15  C10 UNL     1      19.311   2.154  51.441  1.00  0.00     0.298 A 
HETATM   16  N4  UNL     1      18.040   1.615  51.269  1.00  0.00    -0.021 NA
HETATM   17  C11 UNL     1      17.945   0.375  51.896  1.00  0.00     0.746 A 
HETATM   18  N6  UNL     1      18.792  -0.392  52.608  1.00  0.00     0.130 NA
HETATM   19  C18 UNL     1      20.072   0.268  52.721  1.00  0.00     0.743 A 
HETATM   20  N7  UNL     1      20.090   1.417  52.114  1.00  0.00    -0.021 NA
HETATM   21  H6  UNL     1      23.365   0.864  51.677  1.00  0.00     0.000 HD
ENDROOT
BRANCH  17  22
HETATM   22  N5  UNL     1      16.621  -0.192  51.792  1.00  0.00    -0.188 N 
HETATM   23  H13 UNL     1      15.936   0.002  52.611  1.00  0.00     0.184 HD
BRANCH  22  24
HETATM   24  C12 UNL     1      16.004  -0.953  50.791  1.00  0.00     0.049 A 
HETATM   25  C13 UNL     1      15.097  -1.936  51.245  1.00  0.00     0.033 A 
HETATM   26  C14 UNL     1      14.511  -2.618  50.161  1.00  0.00     0.044 A 
HETATM   27  C15 UNL     1      14.692  -2.469  48.737  1.00  0.00     0.116 A 
HETATM   28  F1  UNL     1      13.987  -3.293  47.979  1.00  0.00    -0.206 F 
HETATM   29  C16 UNL     1      15.623  -1.459  48.511  1.00  0.00     0.044 A 
HETATM   30  C17 UNL     1      16.249  -0.735  49.517  1.00  0.00     0.033 A 
ENDBRANCH  22  24
ENDBRANCH  17  22
TORSDOF 2
ENDMDL
