MODEL 1
REMARK VINA RESULT:      -6.6      0.000      0.000
REMARK  8 active torsions:
REMARK  status: ('A' for Active; 'I' for Inactive)
REMARK    1  A    between atoms: C2_2  and  O1_3 
REMARK    2  A    between atoms: O1_3  and  C3_4 
REMARK    3  A    between atoms: C10_12  and  N2_13 
REMARK       I    between atoms: N2_13  and  C11_14 
REMARK    4  A    between atoms: C11_14  and  C12_16 
REMARK    5  A    between atoms: C13_17  and  C14_18 
REMARK    6  A    between atoms: C14_18  and  N3_19 
REMARK    7  A    between atoms: N3_19  and  C16_21 
REMARK    8  A    between atoms: C16_21  and  C17_22 
ROOT
HETATM    1  C3  UNL     1      25.083   0.142  53.351  1.00  0.00     0.118 C 
HETATM    2  C4  UNL     1      26.246  -0.307  53.801  1.00  0.00     0.045 C 
HETATM    3  C5  UNL     1      27.200  -0.879  52.673  1.00  0.00     0.098 C 
HETATM    4  C6  UNL     1      27.577   0.647  52.655  1.00  0.00    -0.052 C 
HETATM    5  C7  UNL     1      28.541   0.887  53.519  1.00  0.00     0.000 C 
HETATM    6  C8  UNL     1      28.467   0.031  54.805  1.00  0.00     0.147 C 
HETATM    7  N1  UNL     1      27.003  -0.249  55.006  1.00  0.00    -0.387 N 
HETATM    8  C9  UNL     1      26.600   1.394  51.852  1.00  0.00     0.039 C 
HETATM    9  C10 UNL     1      25.281   1.129  52.204  1.00  0.00     0.071 C 
HETATM   10  H11 UNL     1      26.212  -0.416  55.717  1.00  0.00     0.159 HD
ENDROOT
BRANCH   9  11
HETATM   11  N2  UNL     1      24.152   1.652  51.645  1.00  0.00    -0.321 N 
HETATM   12  C11 UNL     1      23.606   2.848  52.183  1.00  0.00     0.245 C 
HETATM   13  O2  UNL     1      24.083   3.477  53.145  1.00  0.00    -0.268 OA
HETATM   14  H13 UNL     1      23.744   1.130  50.835  1.00  0.00     0.169 HD
BRANCH  12  15
HETATM   15  C12 UNL     1      22.392   3.411  51.586  1.00  0.00     0.072 C 
HETATM   16  C13 UNL     1      21.139   3.364  51.945  1.00  0.00     0.008 C 
BRANCH  16  17
HETATM   17  C14 UNL     1      19.867   3.882  51.431  1.00  0.00     0.299 C 
BRANCH  17  18
HETATM   18  N3  UNL     1      18.832   2.894  51.257  1.00  0.00     0.089 N 
HETATM   19  C15 UNL     1      17.544   3.441  51.585  1.00  0.00     0.310 C 
BRANCH  18  20
HETATM   20  C16 UNL     1      19.153   1.680  51.962  1.00  0.00     0.303 C 
BRANCH  20  21
HETATM   21  C17 UNL     1      19.255   0.551  50.954  1.00  0.00     0.252 C 
HETATM   22  F1  UNL     1      20.576   0.158  50.842  1.00  0.00    -0.254 F 
ENDBRANCH  20  21
ENDBRANCH  18  20
ENDBRANCH  17  18
ENDBRANCH  16  17
ENDBRANCH  12  15
ENDBRANCH   9  11
BRANCH   1  23
HETATM   23  O1  UNL     1      24.115  -0.388  54.038  1.00  0.00    -0.347 OA
BRANCH  23  24
HETATM   24  C2  UNL     1      22.868  -0.856  53.949  1.00  0.00     0.171 C 
HETATM   25  C1  UNL     1      21.751   0.165  54.074  1.00  0.00     0.034 C 
ENDBRANCH  23  24
ENDBRANCH   1  23
TORSDOF 8
ENDMDL
MODEL 2
REMARK VINA RESULT:      -6.4      2.540      3.216
REMARK  8 active torsions:
REMARK  status: ('A' for Active; 'I' for Inactive)
REMARK    1  A    between atoms: C2_2  and  O1_3 
REMARK    2  A    between atoms: O1_3  and  C3_4 
REMARK    3  A    between atoms: C10_12  and  N2_13 
REMARK       I    between atoms: N2_13  and  C11_14 
REMARK    4  A    between atoms: C11_14  and  C12_16 
REMARK    5  A    between atoms: C13_17  and  C14_18 
REMARK    6  A    between atoms: C14_18  and  N3_19 
REMARK    7  A    between atoms: N3_19  and  C16_21 
REMARK    8  A    between atoms: C16_21  and  C17_22 
ROOT
HETATM    1  C3  UNL     1      25.044   0.048  53.434  1.00  0.00     0.118 C 
HETATM    2  C4  UNL     1      26.204  -0.396  53.898  1.00  0.00     0.045 C 
HETATM    3  C5  UNL     1      27.127  -1.067  52.800  1.00  0.00     0.098 C 
HETATM    4  C6  UNL     1      27.538   0.444  52.671  1.00  0.00    -0.052 C 
HETATM    5  C7  UNL     1      28.521   0.722  53.503  1.00  0.00     0.000 C 
HETATM    6  C8  UNL     1      28.447  -0.041  54.847  1.00  0.00     0.147 C 
HETATM    7  N1  UNL     1      26.980  -0.273  55.086  1.00  0.00    -0.387 N 
HETATM    8  C9  UNL     1      26.566   1.157  51.831  1.00  0.00     0.039 C 
HETATM    9  C10 UNL     1      25.247   0.948  52.218  1.00  0.00     0.071 C 
HETATM   10  H11 UNL     1      26.196  -0.372  55.817  1.00  0.00     0.159 HD
ENDROOT
BRANCH   9  11
HETATM   11  N2  UNL     1      24.122   1.457  51.639  1.00  0.00    -0.321 N 
HETATM   12  C11 UNL     1      23.587   2.679  52.129  1.00  0.00     0.245 C 
HETATM   13  O2  UNL     1      24.070   3.342  53.064  1.00  0.00    -0.268 OA
HETATM   14  H13 UNL     1      23.709   0.906  50.852  1.00  0.00     0.169 HD
BRANCH  12  15
HETATM   15  C12 UNL     1      22.377   3.227  51.511  1.00  0.00     0.072 C 
HETATM   16  C13 UNL     1      21.967   4.451  51.327  1.00  0.00     0.008 C 
BRANCH  16  17
HETATM   17  C14 UNL     1      20.795   5.101  50.733  1.00  0.00     0.299 C 
BRANCH  17  18
HETATM   18  N3  UNL     1      21.082   6.264  49.931  1.00  0.00     0.089 N 
HETATM   19  C15 UNL     1      21.997   5.942  48.872  1.00  0.00     0.310 C 
BRANCH  18  20
HETATM   20  C16 UNL     1      21.499   7.369  50.756  1.00  0.00     0.303 C 
BRANCH  20  21
HETATM   21  C17 UNL     1      22.717   8.011  50.119  1.00  0.00     0.252 C 
HETATM   22  F1  UNL     1      23.730   8.097  51.058  1.00  0.00    -0.254 F 
ENDBRANCH  20  21
ENDBRANCH  18  20
ENDBRANCH  17  18
ENDBRANCH  16  17
ENDBRANCH  12  15
ENDBRANCH   9  11
BRANCH   1  23
HETATM   23  O1  UNL     1      24.076  -0.411  54.169  1.00  0.00    -0.347 OA
BRANCH  23  24
HETATM   24  C2  UNL     1      22.831  -0.890  54.125  1.00  0.00     0.171 C 
HETATM   25  C1  UNL     1      21.712   0.135  54.058  1.00  0.00     0.034 C 
ENDBRANCH  23  24
ENDBRANCH   1  23
TORSDOF 8
ENDMDL
MODEL 3
REMARK VINA RESULT:      -6.2      5.717      7.979
REMARK  8 active torsions:
REMARK  status: ('A' for Active; 'I' for Inactive)
REMARK    1  A    between atoms: C2_2  and  O1_3 
REMARK    2  A    between atoms: O1_3  and  C3_4 
REMARK    3  A    between atoms: C10_12  and  N2_13 
REMARK       I    between atoms: N2_13  and  C11_14 
REMARK    4  A    between atoms: C11_14  and  C12_16 
REMARK    5  A    between atoms: C13_17  and  C14_18 
REMARK    6  A    between atoms: C14_18  and  N3_19 
REMARK    7  A    between atoms: N3_19  and  C16_21 
REMARK    8  A    between atoms: C16_21  and  C17_22 
ROOT
HETATM    1  C3  UNL     1      26.601   2.303  51.940  1.00  0.00     0.118 C 
HETATM    2  C4  UNL     1      25.736   1.788  52.803  1.00  0.00     0.045 C 
HETATM    3  C5  UNL     1      24.518   2.741  53.145  1.00  0.00     0.098 C 
HETATM    4  C6  UNL     1      23.982   1.997  51.869  1.00  0.00    -0.052 C 
HETATM    5  C7  UNL     1      23.367   0.885  52.216  1.00  0.00     0.000 C 
HETATM    6  C8  UNL     1      23.995   0.167  53.434  1.00  0.00     0.147 C 
HETATM    7  N1  UNL     1      25.456   0.518  53.385  1.00  0.00    -0.387 N 
HETATM    8  C9  UNL     1      24.513   2.635  50.658  1.00  0.00     0.039 C 
HETATM    9  C10 UNL     1      25.892   2.810  50.688  1.00  0.00     0.071 C 
HETATM   10  H11 UNL     1      26.463   0.197  53.593  1.00  0.00     0.159 HD
ENDROOT
BRANCH   9  11
HETATM   11  N2  UNL     1      26.677   3.377  49.727  1.00  0.00    -0.321 N 
HETATM   12  C11 UNL     1      26.553   4.767  49.467  1.00  0.00     0.245 C 
HETATM   13  O2  UNL     1      25.771   5.535  50.057  1.00  0.00    -0.268 OA
HETATM   14  H13 UNL     1      27.338   2.739  49.225  1.00  0.00     0.169 HD
BRANCH  12  15
HETATM   15  C12 UNL     1      27.393   5.379  48.433  1.00  0.00     0.072 C 
HETATM   16  C13 UNL     1      28.038   6.511  48.388  1.00  0.00     0.008 C 
BRANCH  16  17
HETATM   17  C14 UNL     1      28.891   7.209  47.421  1.00  0.00     0.299 C 
BRANCH  17  18
HETATM   18  N3  UNL     1      29.895   8.067  48.000  1.00  0.00     0.089 N 
HETATM   19  C15 UNL     1      31.045   7.307  48.405  1.00  0.00     0.310 C 
BRANCH  18  20
HETATM   20  C16 UNL     1      29.334   8.888  49.042  1.00  0.00     0.303 C 
BRANCH  20  21
HETATM   21  C17 UNL     1      29.939  10.275  48.941  1.00  0.00     0.252 C 
HETATM   22  F1  UNL     1      30.884  10.433  49.938  1.00  0.00    -0.254 F 
ENDBRANCH  20  21
ENDBRANCH  18  20
ENDBRANCH  17  18
ENDBRANCH  16  17
ENDBRANCH  12  15
ENDBRANCH   9  11
BRANCH   1  23
HETATM   23  O1  UNL     1      27.805   2.206  52.419  1.00  0.00    -0.347 OA
BRANCH  23  24
HETATM   24  C2  UNL     1      28.535   2.369  53.525  1.00  0.00     0.171 C 
HETATM   25  C1  UNL     1      29.169   1.119  54.109  1.00  0.00     0.034 C 
ENDBRANCH  23  24
ENDBRANCH   1  23
TORSDOF 8
ENDMDL
MODEL 4
REMARK VINA RESULT:      -6.2      1.367      1.565
REMARK  8 active torsions:
REMARK  status: ('A' for Active; 'I' for Inactive)
REMARK    1  A    between atoms: C2_2  and  O1_3 
REMARK    2  A    between atoms: O1_3  and  C3_4 
REMARK    3  A    between atoms: C10_12  and  N2_13 
REMARK       I    between atoms: N2_13  and  C11_14 
REMARK    4  A    between atoms: C11_14  and  C12_16 
REMARK    5  A    between atoms: C13_17  and  C14_18 
REMARK    6  A    between atoms: C14_18  and  N3_19 
REMARK    7  A    between atoms: N3_19  and  C16_21 
REMARK    8  A    between atoms: C16_21  and  C17_22 
ROOT
HETATM    1  C3  UNL     1      25.185   0.035  53.534  1.00  0.00     0.118 C 
HETATM    2  C4  UNL     1      26.386  -0.395  53.897  1.00  0.00     0.045 C 
HETATM    3  C5  UNL     1      27.256  -0.970  52.705  1.00  0.00     0.098 C 
HETATM    4  C6  UNL     1      27.612   0.559  52.641  1.00  0.00    -0.052 C 
HETATM    5  C7  UNL     1      28.637   0.822  53.425  1.00  0.00     0.000 C 
HETATM    6  C8  UNL     1      28.674  -0.019  54.723  1.00  0.00     0.147 C 
HETATM    7  N1  UNL     1      27.233  -0.313  55.039  1.00  0.00    -0.387 N 
HETATM    8  C9  UNL     1      26.566   1.285  51.907  1.00  0.00     0.039 C 
HETATM    9  C10 UNL     1      25.282   1.010  52.363  1.00  0.00     0.071 C 
HETATM   10  H11 UNL     1      26.501  -0.480  55.811  1.00  0.00     0.159 HD
ENDROOT
BRANCH   9  11
HETATM   11  N2  UNL     1      24.107   1.514  51.887  1.00  0.00    -0.321 N 
HETATM   12  C11 UNL     1      23.601   2.721  52.437  1.00  0.00     0.245 C 
HETATM   13  O2  UNL     1      24.153   3.379  53.338  1.00  0.00    -0.268 OA
HETATM   14  H13 UNL     1      23.636   0.967  51.129  1.00  0.00     0.169 HD
BRANCH  12  15
HETATM   15  C12 UNL     1      22.338   3.264  51.930  1.00  0.00     0.072 C 
HETATM   16  C13 UNL     1      22.061   4.033  50.915  1.00  0.00     0.008 C 
BRANCH  16  17
HETATM   17  C14 UNL     1      20.855   4.626  50.329  1.00  0.00     0.299 C 
BRANCH  17  18
HETATM   18  N3  UNL     1      20.226   3.838  49.298  1.00  0.00     0.089 N 
HETATM   19  C15 UNL     1      19.252   2.945  49.861  1.00  0.00     0.310 C 
BRANCH  18  20
HETATM   20  C16 UNL     1      21.211   3.190  48.470  1.00  0.00     0.303 C 
BRANCH  20  21
HETATM   21  C17 UNL     1      20.979   1.692  48.529  1.00  0.00     0.252 C 
HETATM   22  F1  UNL     1      22.015   1.098  49.225  1.00  0.00    -0.254 F 
ENDBRANCH  20  21
ENDBRANCH  18  20
ENDBRANCH  17  18
ENDBRANCH  16  17
ENDBRANCH  12  15
ENDBRANCH   9  11
BRANCH   1  23
HETATM   23  O1  UNL     1      24.281  -0.497  54.300  1.00  0.00    -0.347 OA
BRANCH  23  24
HETATM   24  C2  UNL     1      22.976  -0.765  54.392  1.00  0.00     0.171 C 
HETATM   25  C1  UNL     1      22.279  -1.183  53.109  1.00  0.00     0.034 C 
ENDBRANCH  23  24
ENDBRANCH   1  23
TORSDOF 8
ENDMDL
MODEL 5
REMARK VINA RESULT:      -6.2      4.745      6.285
REMARK  8 active torsions:
REMARK  status: ('A' for Active; 'I' for Inactive)
REMARK    1  A    between atoms: C2_2  and  O1_3 
REMARK    2  A    between atoms: O1_3  and  C3_4 
REMARK    3  A    between atoms: C10_12  and  N2_13 
REMARK       I    between atoms: N2_13  and  C11_14 
REMARK    4  A    between atoms: C11_14  and  C12_16 
REMARK    5  A    between atoms: C13_17  and  C14_18 
REMARK    6  A    between atoms: C14_18  and  N3_19 
REMARK    7  A    between atoms: N3_19  and  C16_21 
REMARK    8  A    between atoms: C16_21  and  C17_22 
ROOT
HETATM    1  C3  UNL     1      24.938   1.648  51.702  1.00  0.00     0.118 C 
HETATM    2  C4  UNL     1      25.073   0.557  52.442  1.00  0.00     0.045 C 
HETATM    3  C5  UNL     1      26.427  -0.229  52.197  1.00  0.00     0.098 C 
HETATM    4  C6  UNL     1      26.862   0.805  53.297  1.00  0.00    -0.052 C 
HETATM    5  C7  UNL     1      26.649   0.308  54.498  1.00  0.00     0.000 C 
HETATM    6  C8  UNL     1      25.388  -0.583  54.601  1.00  0.00     0.147 C 
HETATM    7  N1  UNL     1      24.438  -0.036  53.570  1.00  0.00    -0.387 N 
HETATM    8  C9  UNL     1      27.165   2.100  52.675  1.00  0.00     0.039 C 
HETATM    9  C10 UNL     1      26.162   2.551  51.824  1.00  0.00     0.071 C 
HETATM   10  H11 UNL     1      23.410   0.135  53.302  1.00  0.00     0.159 HD
ENDROOT
BRANCH   9  11
HETATM   11  N2  UNL     1      26.148   3.703  51.095  1.00  0.00    -0.321 N 
HETATM   12  C11 UNL     1      26.638   3.683  49.762  1.00  0.00     0.245 C 
HETATM   13  O2  UNL     1      27.089   2.676  49.186  1.00  0.00    -0.268 OA
HETATM   14  H13 UNL     1      25.771   4.555  51.572  1.00  0.00     0.169 HD
BRANCH  12  15
HETATM   15  C12 UNL     1      26.628   4.920  48.977  1.00  0.00     0.072 C 
HETATM   16  C13 UNL     1      27.588   5.678  48.528  1.00  0.00     0.008 C 
BRANCH  16  17
HETATM   17  C14 UNL     1      27.688   6.916  47.747  1.00  0.00     0.299 C 
BRANCH  17  18
HETATM   18  N3  UNL     1      26.877   8.007  48.227  1.00  0.00     0.089 N 
HETATM   19  C15 UNL     1      25.995   8.479  47.196  1.00  0.00     0.310 C 
BRANCH  18  20
HETATM   20  C16 UNL     1      27.694   9.034  48.820  1.00  0.00     0.303 C 
BRANCH  20  21
HETATM   21  C17 UNL     1      27.266   9.214  50.264  1.00  0.00     0.252 C 
HETATM   22  F1  UNL     1      26.571   8.091  50.677  1.00  0.00    -0.254 F 
ENDBRANCH  20  21
ENDBRANCH  18  20
ENDBRANCH  17  18
ENDBRANCH  16  17
ENDBRANCH  12  15
ENDBRANCH   9  11
BRANCH   1  23
HETATM   23  O1  UNL     1      23.786   1.627  51.100  1.00  0.00    -0.347 OA
BRANCH  23  24
HETATM   24  C2  UNL     1      23.014   2.294  50.239  1.00  0.00     0.171 C 
HETATM   25  C1  UNL     1      21.909   1.500  49.564  1.00  0.00     0.034 C 
ENDBRANCH  23  24
ENDBRANCH   1  23
TORSDOF 8
ENDMDL
MODEL 6
REMARK VINA RESULT:      -5.9      1.788      3.280
REMARK  8 active torsions:
REMARK  status: ('A' for Active; 'I' for Inactive)
REMARK    1  A    between atoms: C2_2  and  O1_3 
REMARK    2  A    between atoms: O1_3  and  C3_4 
REMARK    3  A    between atoms: C10_12  and  N2_13 
REMARK       I    between atoms: N2_13  and  C11_14 
REMARK    4  A    between atoms: C11_14  and  C12_16 
REMARK    5  A    between atoms: C13_17  and  C14_18 
REMARK    6  A    between atoms: C14_18  and  N3_19 
REMARK    7  A    between atoms: N3_19  and  C16_21 
REMARK    8  A    between atoms: C16_21  and  C17_22 
ROOT
HETATM    1  C3  UNL     1      25.193   1.424  53.502  1.00  0.00     0.118 C 
HETATM    2  C4  UNL     1      26.460   1.632  53.831  1.00  0.00     0.045 C 
HETATM    3  C5  UNL     1      26.956   0.779  55.071  1.00  0.00     0.098 C 
HETATM    4  C6  UNL     1      27.226  -0.213  53.882  1.00  0.00    -0.052 C 
HETATM    5  C7  UNL     1      28.429  -0.011  53.385  1.00  0.00     0.000 C 
HETATM    6  C8  UNL     1      28.876   1.470  53.392  1.00  0.00     0.147 C 
HETATM    7  N1  UNL     1      27.605   2.264  53.267  1.00  0.00    -0.387 N 
HETATM    8  C9  UNL     1      25.987  -0.917  53.528  1.00  0.00     0.039 C 
HETATM    9  C10 UNL     1      24.906  -0.065  53.334  1.00  0.00     0.071 C 
HETATM   10  H11 UNL     1      27.141   3.159  52.890  1.00  0.00     0.159 HD
ENDROOT
BRANCH   9  11
HETATM   11  N2  UNL     1      23.627  -0.409  53.008  1.00  0.00    -0.321 N 
HETATM   12  C11 UNL     1      22.761  -0.892  54.025  1.00  0.00     0.245 C 
HETATM   13  O2  UNL     1      23.078  -1.031  55.221  1.00  0.00    -0.268 OA
HETATM   14  H13 UNL     1      23.352  -0.295  52.004  1.00  0.00     0.169 HD
BRANCH  12  15
HETATM   15  C12 UNL     1      21.388  -1.265  53.678  1.00  0.00     0.072 C 
HETATM   16  C13 UNL     1      20.294  -0.565  53.563  1.00  0.00     0.008 C 
BRANCH  16  17
HETATM   17  C14 UNL     1      18.892  -0.833  53.229  1.00  0.00     0.299 C 
BRANCH  17  18
HETATM   18  N3  UNL     1      18.288   0.114  52.324  1.00  0.00     0.089 N 
HETATM   19  C15 UNL     1      16.930  -0.253  52.032  1.00  0.00     0.310 C 
BRANCH  18  20
HETATM   20  C16 UNL     1      19.110   0.309  51.157  1.00  0.00     0.303 C 
BRANCH  20  21
HETATM   21  C17 UNL     1      19.408   1.790  51.021  1.00  0.00     0.252 C 
HETATM   22  F1  UNL     1      19.074   2.432  52.199  1.00  0.00    -0.254 F 
ENDBRANCH  20  21
ENDBRANCH  18  20
ENDBRANCH  17  18
ENDBRANCH  16  17
ENDBRANCH  12  15
ENDBRANCH   9  11
BRANCH   1  23
HETATM   23  O1  UNL     1      24.574   2.563  53.408  1.00  0.00    -0.347 OA
BRANCH  23  24
HETATM   24  C2  UNL     1      23.656   3.230  52.704  1.00  0.00     0.171 C 
HETATM   25  C1  UNL     1      23.423   2.760  51.279  1.00  0.00     0.034 C 
ENDBRANCH  23  24
ENDBRANCH   1  23
TORSDOF 8
ENDMDL
MODEL 7
REMARK VINA RESULT:      -5.8      3.704      7.979
REMARK  8 active torsions:
REMARK  status: ('A' for Active; 'I' for Inactive)
REMARK    1  A    between atoms: C2_2  and  O1_3 
REMARK    2  A    between atoms: O1_3  and  C3_4 
REMARK    3  A    between atoms: C10_12  and  N2_13 
REMARK       I    between atoms: N2_13  and  C11_14 
REMARK    4  A    between atoms: C11_14  and  C12_16 
REMARK    5  A    between atoms: C13_17  and  C14_18 
REMARK    6  A    between atoms: C14_18  and  N3_19 
REMARK    7  A    between atoms: N3_19  and  C16_21 
REMARK    8  A    between atoms: C16_21  and  C17_22 
ROOT
HETATM    1  C3  UNL     1      24.513   4.894  49.975  1.00  0.00     0.118 C 
HETATM    2  C4  UNL     1      23.846   5.769  49.235  1.00  0.00     0.045 C 
HETATM    3  C5  UNL     1      22.282   5.521  49.191  1.00  0.00     0.098 C 
HETATM    4  C6  UNL     1      22.419   6.419  50.474  1.00  0.00    -0.052 C 
HETATM    5  C7  UNL     1      22.350   7.693  50.147  1.00  0.00     0.000 C 
HETATM    6  C8  UNL     1      22.994   8.033  48.782  1.00  0.00     0.147 C 
HETATM    7  N1  UNL     1      24.094   7.022  48.606  1.00  0.00    -0.387 N 
HETATM    8  C9  UNL     1      22.808   5.592  51.624  1.00  0.00     0.039 C 
HETATM    9  C10 UNL     1      23.905   4.777  51.370  1.00  0.00     0.071 C 
HETATM   10  H11 UNL     1      25.071   6.823  48.200  1.00  0.00     0.159 HD
ENDROOT
BRANCH   9  11
HETATM   11  N2  UNL     1      24.498   3.894  52.224  1.00  0.00    -0.321 N 
HETATM   12  C11 UNL     1      24.069   2.540  52.223  1.00  0.00     0.245 C 
HETATM   13  O2  UNL     1      23.176   2.077  51.490  1.00  0.00    -0.268 OA
HETATM   14  H13 UNL     1      25.250   4.274  52.844  1.00  0.00     0.169 HD
BRANCH  12  15
HETATM   15  C12 UNL     1      24.701   1.589  53.142  1.00  0.00     0.072 C 
HETATM   16  C13 UNL     1      25.930   1.459  53.557  1.00  0.00     0.008 C 
BRANCH  16  17
HETATM   17  C14 UNL     1      26.658   0.560  54.457  1.00  0.00     0.299 C 
BRANCH  17  18
HETATM   18  N3  UNL     1      28.065   0.423  54.177  1.00  0.00     0.089 N 
HETATM   19  C15 UNL     1      28.641   1.691  53.825  1.00  0.00     0.310 C 
BRANCH  18  20
HETATM   20  C16 UNL     1      28.301  -0.620  53.212  1.00  0.00     0.303 C 
BRANCH  20  21
HETATM   21  C17 UNL     1      29.636  -1.270  53.524  1.00  0.00     0.252 C 
HETATM   22  F1  UNL     1      29.478  -2.644  53.550  1.00  0.00    -0.254 F 
ENDBRANCH  20  21
ENDBRANCH  18  20
ENDBRANCH  17  18
ENDBRANCH  16  17
ENDBRANCH  12  15
ENDBRANCH   9  11
BRANCH   1  23
HETATM   23  O1  UNL     1      25.502   4.405  49.287  1.00  0.00    -0.347 OA
BRANCH  23  24
HETATM   24  C2  UNL     1      26.784   4.042  49.363  1.00  0.00     0.171 C 
HETATM   25  C1  UNL     1      27.778   4.909  48.609  1.00  0.00     0.034 C 
ENDBRANCH  23  24
ENDBRANCH   1  23
TORSDOF 8
ENDMDL
MODEL 8
REMARK VINA RESULT:      -5.7      5.990      8.829
REMARK  8 active torsions:
REMARK  status: ('A' for Active; 'I' for Inactive)
REMARK    1  A    between atoms: C2_2  and  O1_3 
REMARK    2  A    between atoms: O1_3  and  C3_4 
REMARK    3  A    between atoms: C10_12  and  N2_13 
REMARK       I    between atoms: N2_13  and  C11_14 
REMARK    4  A    between atoms: C11_14  and  C12_16 
REMARK    5  A    between atoms: C13_17  and  C14_18 
REMARK    6  A    between atoms: C14_18  and  N3_19 
REMARK    7  A    between atoms: N3_19  and  C16_21 
REMARK    8  A    between atoms: C16_21  and  C17_22 
ROOT
HETATM    1  C3  UNL     1      26.378   2.770  51.158  1.00  0.00     0.118 C 
HETATM    2  C4  UNL     1      25.301   2.348  51.806  1.00  0.00     0.045 C 
HETATM    3  C5  UNL     1      24.171   3.446  51.967  1.00  0.00     0.098 C 
HETATM    4  C6  UNL     1      23.808   2.829  50.568  1.00  0.00    -0.052 C 
HETATM    5  C7  UNL     1      23.000   1.799  50.721  1.00  0.00     0.000 C 
HETATM    6  C8  UNL     1      23.278   0.959  51.989  1.00  0.00     0.147 C 
HETATM    7  N1  UNL     1      24.753   1.109  52.243  1.00  0.00    -0.387 N 
HETATM    8  C9  UNL     1      24.645   3.432  49.523  1.00  0.00     0.039 C 
HETATM    9  C10 UNL     1      26.002   3.415  49.827  1.00  0.00     0.071 C 
HETATM   10  H11 UNL     1      25.649   0.645  52.619  1.00  0.00     0.159 HD
ENDROOT
BRANCH   9  11
HETATM   11  N2  UNL     1      27.027   3.903  49.072  1.00  0.00    -0.321 N 
HETATM   12  C11 UNL     1      27.167   5.309  48.924  1.00  0.00     0.245 C 
HETATM   13  O2  UNL     1      26.416   6.156  49.440  1.00  0.00    -0.268 OA
HETATM   14  H13 UNL     1      27.665   3.198  48.634  1.00  0.00     0.169 HD
BRANCH  12  15
HETATM   15  C12 UNL     1      28.266   5.837  48.111  1.00  0.00     0.072 C 
HETATM   16  C13 UNL     1      29.561   5.793  48.256  1.00  0.00     0.008 C 
BRANCH  16  17
HETATM   17  C14 UNL     1      30.730   6.280  47.517  1.00  0.00     0.299 C 
BRANCH  17  18
HETATM   18  N3  UNL     1      31.684   5.266  47.146  1.00  0.00     0.089 N 
HETATM   19  C15 UNL     1      32.380   4.772  48.301  1.00  0.00     0.310 C 
BRANCH  18  20
HETATM   20  C16 UNL     1      32.548   5.731  46.091  1.00  0.00     0.303 C 
BRANCH  20  21
HETATM   21  C17 UNL     1      33.787   4.858  46.064  1.00  0.00     0.252 C 
HETATM   22  F1  UNL     1      34.035   4.458  44.764  1.00  0.00    -0.254 F 
ENDBRANCH  20  21
ENDBRANCH  18  20
ENDBRANCH  17  18
ENDBRANCH  16  17
ENDBRANCH  12  15
ENDBRANCH   9  11
BRANCH   1  23
HETATM   23  O1  UNL     1      27.441   2.493  51.852  1.00  0.00    -0.347 OA
BRANCH  23  24
HETATM   24  C2  UNL     1      27.873   2.202  53.081  1.00  0.00     0.171 C 
HETATM   25  C1  UNL     1      28.289   0.763  53.331  1.00  0.00     0.034 C 
ENDBRANCH  23  24
ENDBRANCH   1  23
TORSDOF 8
ENDMDL
MODEL 9
REMARK VINA RESULT:      -5.6      4.467      7.115
REMARK  8 active torsions:
REMARK  status: ('A' for Active; 'I' for Inactive)
REMARK    1  A    between atoms: C2_2  and  O1_3 
REMARK    2  A    between atoms: O1_3  and  C3_4 
REMARK    3  A    between atoms: C10_12  and  N2_13 
REMARK       I    between atoms: N2_13  and  C11_14 
REMARK    4  A    between atoms: C11_14  and  C12_16 
REMARK    5  A    between atoms: C13_17  and  C14_18 
REMARK    6  A    between atoms: C14_18  and  N3_19 
REMARK    7  A    between atoms: N3_19  and  C16_21 
REMARK    8  A    between atoms: C16_21  and  C17_22 
ROOT
HETATM    1  C3  UNL     1      22.077   3.355  51.803  1.00  0.00     0.118 C 
HETATM    2  C4  UNL     1      21.446   2.232  52.118  1.00  0.00     0.045 C 
HETATM    3  C5  UNL     1      21.952   0.959  51.322  1.00  0.00     0.098 C 
HETATM    4  C6  UNL     1      22.939   0.975  52.545  1.00  0.00    -0.052 C 
HETATM    5  C7  UNL     1      22.428   0.294  53.550  1.00  0.00     0.000 C 
HETATM    6  C8  UNL     1      20.892   0.412  53.679  1.00  0.00     0.147 C 
HETATM    7  N1  UNL     1      20.556   1.771  53.130  1.00  0.00    -0.387 N 
HETATM    8  C9  UNL     1      24.032   1.923  52.293  1.00  0.00     0.039 C 
HETATM    9  C10 UNL     1      23.590   3.179  51.893  1.00  0.00     0.071 C 
HETATM   10  H11 UNL     1      19.900   2.623  53.186  1.00  0.00     0.159 HD
ENDROOT
BRANCH   9  11
HETATM   11  N2  UNL     1      24.352   4.265  51.577  1.00  0.00    -0.321 N 
HETATM   12  C11 UNL     1      24.815   4.419  50.244  1.00  0.00     0.245 C 
HETATM   13  O2  UNL     1      24.578   3.628  49.313  1.00  0.00    -0.268 OA
HETATM   14  H13 UNL     1      24.556   4.936  52.354  1.00  0.00     0.169 HD
BRANCH  12  15
HETATM   15  C12 UNL     1      25.637   5.583  49.902  1.00  0.00     0.072 C 
HETATM   16  C13 UNL     1      25.628   6.389  48.877  1.00  0.00     0.008 C 
BRANCH  16  17
HETATM   17  C14 UNL     1      26.391   7.563  48.442  1.00  0.00     0.299 C 
BRANCH  17  18
HETATM   18  N3  UNL     1      27.799   7.524  48.751  1.00  0.00     0.089 N 
HETATM   19  C15 UNL     1      28.280   8.831  49.104  1.00  0.00     0.310 C 
BRANCH  18  20
HETATM   20  C16 UNL     1      28.542   6.887  47.694  1.00  0.00     0.303 C 
BRANCH  20  21
HETATM   21  C17 UNL     1      29.232   5.662  48.263  1.00  0.00     0.252 C 
HETATM   22  F1  UNL     1      28.360   4.589  48.222  1.00  0.00    -0.254 F 
ENDBRANCH  20  21
ENDBRANCH  18  20
ENDBRANCH  17  18
ENDBRANCH  16  17
ENDBRANCH  12  15
ENDBRANCH   9  11
BRANCH   1  23
HETATM   23  O1  UNL     1      21.207   4.279  51.523  1.00  0.00    -0.347 OA
BRANCH  23  24
HETATM   24  C2  UNL     1      20.672   4.980  50.521  1.00  0.00     0.171 C 
HETATM   25  C1  UNL     1      21.232   4.714  49.134  1.00  0.00     0.034 C 
ENDBRANCH  23  24
ENDBRANCH   1  23
TORSDOF 8
ENDMDL
