MODEL 1
REMARK VINA RESULT:      -8.8      0.000      0.000
REMARK  3 active torsions:
REMARK  status: ('A' for Active; 'I' for Inactive)
REMARK    1  A    between atoms: O1_2  and  C2_3 
REMARK    2  A    between atoms: C6_9  and  N3_10 
REMARK    3  A    between atoms: N3_10  and  C7_11 
ROOT
HETATM    1  C2  UNL     1      20.609  -0.177  53.128  1.00  0.00     0.106 A 
HETATM    2  C3  UNL     1      21.061  -0.857  54.241  1.00  0.00     0.072 A 
HETATM    3  C4  UNL     1      22.422  -0.907  54.539  1.00  0.00     0.077 A 
HETATM    4  N1  UNL     1      22.922  -1.548  55.611  1.00  0.00    -0.241 NA
HETATM    5  C5  UNL     1      24.246  -1.544  55.829  1.00  0.00     0.236 A 
HETATM    6  N2  UNL     1      25.078  -0.910  54.992  1.00  0.00    -0.223 NA
HETATM    7  C6  UNL     1      24.651  -0.248  53.900  1.00  0.00     0.144 A 
HETATM    8  C13 UNL     1      23.283  -0.238  53.657  1.00  0.00     0.075 A 
HETATM    9  C14 UNL     1      22.884   0.451  52.538  1.00  0.00     0.121 A 
HETATM   10  C15 UNL     1      21.522   0.458  52.303  1.00  0.00     0.136 A 
HETATM   11  O2  UNL     1      21.078   1.146  51.179  1.00  0.00    -0.344 OA
HETATM   12  C16 UNL     1      21.994   1.293  50.111  1.00  0.00     0.202 C 
HETATM   13  C17 UNL     1      23.267   1.909  50.686  1.00  0.00     0.202 C 
HETATM   14  O3  UNL     1      23.799   1.089  51.711  1.00  0.00    -0.345 OA
ENDROOT
BRANCH   7  15
HETATM   15  N3  UNL     1      25.668   0.351  53.152  1.00  0.00    -0.340 N 
HETATM   16  H6  UNL     1      25.511   1.143  52.471  1.00  0.00     0.167 HD
BRANCH  15  17
HETATM   17  C7  UNL     1      27.014  -0.116  53.295  1.00  0.00     0.033 A 
HETATM   18  C8  UNL     1      27.385  -1.377  52.885  1.00  0.00     0.029 A 
HETATM   19  C9  UNL     1      28.694  -1.849  53.027  1.00  0.00     0.002 A 
HETATM   20  C10 UNL     1      29.658  -1.063  53.584  1.00  0.00     0.000 A 
HETATM   21  C11 UNL     1      29.328   0.228  54.015  1.00  0.00     0.002 A 
HETATM   22  C12 UNL     1      28.007   0.662  53.856  1.00  0.00     0.029 A 
ENDBRANCH  15  17
ENDBRANCH   7  15
BRANCH   1  23
HETATM   23  O1  UNL     1      19.260  -0.169  52.895  1.00  0.00    -0.353 OA
HETATM   24  C1  UNL     1      18.486  -1.269  53.319  1.00  0.00     0.210 C 
ENDBRANCH   1  23
TORSDOF 3
ENDMDL
MODEL 2
REMARK VINA RESULT:      -8.3      1.675      3.366
REMARK  3 active torsions:
REMARK  status: ('A' for Active; 'I' for Inactive)
REMARK    1  A    between atoms: O1_2  and  C2_3 
REMARK    2  A    between atoms: C6_9  and  N3_10 
REMARK    3  A    between atoms: N3_10  and  C7_11 
ROOT
HETATM    1  C2  UNL     1      21.520   0.528  51.547  1.00  0.00     0.106 A 
HETATM    2  C3  UNL     1      22.256   1.426  50.802  1.00  0.00     0.072 A 
HETATM    3  C4  UNL     1      23.550   1.776  51.186  1.00  0.00     0.077 A 
HETATM    4  N1  UNL     1      24.319   2.640  50.499  1.00  0.00    -0.241 NA
HETATM    5  C5  UNL     1      25.557   2.920  50.935  1.00  0.00     0.236 A 
HETATM    6  N2  UNL     1      26.038   2.349  52.047  1.00  0.00    -0.223 NA
HETATM    7  C6  UNL     1      25.328   1.475  52.785  1.00  0.00     0.144 A 
HETATM    8  C13 UNL     1      24.044   1.171  52.351  1.00  0.00     0.075 A 
HETATM    9  C14 UNL     1      23.352   0.273  53.125  1.00  0.00     0.121 A 
HETATM   10  C15 UNL     1      22.076  -0.027  52.686  1.00  0.00     0.136 A 
HETATM   11  O2  UNL     1      21.343  -0.934  53.444  1.00  0.00    -0.344 OA
HETATM   12  C16 UNL     1      21.678  -1.046  54.814  1.00  0.00     0.202 C 
HETATM   13  C17 UNL     1      23.177  -1.324  54.893  1.00  0.00     0.202 C 
HETATM   14  O3  UNL     1      23.910  -0.285  54.268  1.00  0.00    -0.345 OA
ENDROOT
BRANCH   7  15
HETATM   15  N3  UNL     1      26.001   0.986  53.908  1.00  0.00    -0.340 N 
HETATM   16  H6  UNL     1      25.654   1.098  54.900  1.00  0.00     0.167 HD
BRANCH  15  17
HETATM   17  C7  UNL     1      27.240   0.288  53.737  1.00  0.00     0.033 A 
HETATM   18  C8  UNL     1      27.282  -0.986  53.215  1.00  0.00     0.029 A 
HETATM   19  C9  UNL     1      28.483  -1.682  53.051  1.00  0.00     0.002 A 
HETATM   20  C10 UNL     1      29.668  -1.113  53.410  1.00  0.00     0.000 A 
HETATM   21  C11 UNL     1      29.676   0.181  53.945  1.00  0.00     0.002 A 
HETATM   22  C12 UNL     1      28.452   0.843  54.092  1.00  0.00     0.029 A 
ENDBRANCH  15  17
ENDBRANCH   7  15
BRANCH   1  23
HETATM   23  O1  UNL     1      20.256   0.230  51.111  1.00  0.00    -0.353 OA
HETATM   24  C1  UNL     1      19.596   1.136  50.256  1.00  0.00     0.210 C 
ENDBRANCH   1  23
TORSDOF 3
ENDMDL
MODEL 3
REMARK VINA RESULT:      -8.1      1.854      3.610
REMARK  3 active torsions:
REMARK  status: ('A' for Active; 'I' for Inactive)
REMARK    1  A    between atoms: O1_2  and  C2_3 
REMARK    2  A    between atoms: C6_9  and  N3_10 
REMARK    3  A    between atoms: N3_10  and  C7_11 
ROOT
HETATM    1  C2  UNL     1      21.227   2.663  52.363  1.00  0.00     0.106 A 
HETATM    2  C3  UNL     1      22.232   3.306  51.670  1.00  0.00     0.072 A 
HETATM    3  C4  UNL     1      23.519   2.771  51.625  1.00  0.00     0.077 A 
HETATM    4  N1  UNL     1      24.538   3.348  50.962  1.00  0.00    -0.241 NA
HETATM    5  C5  UNL     1      25.747   2.765  50.965  1.00  0.00     0.236 A 
HETATM    6  N2  UNL     1      25.952   1.614  51.621  1.00  0.00    -0.223 NA
HETATM    7  C6  UNL     1      24.981   0.980  52.304  1.00  0.00     0.144 A 
HETATM    8  C13 UNL     1      23.722   1.566  52.313  1.00  0.00     0.075 A 
HETATM    9  C14 UNL     1      22.756   0.889  53.016  1.00  0.00     0.121 A 
HETATM   10  C15 UNL     1      21.505   1.476  53.018  1.00  0.00     0.136 A 
HETATM   11  O2  UNL     1      20.500   0.819  53.720  1.00  0.00    -0.344 OA
HETATM   12  C16 UNL     1      20.901  -0.024  54.782  1.00  0.00     0.202 C 
HETATM   13  C17 UNL     1      21.931  -1.002  54.220  1.00  0.00     0.202 C 
HETATM   14  O3  UNL     1      23.035  -0.303  53.673  1.00  0.00    -0.345 OA
ENDROOT
BRANCH   7  15
HETATM   15  N3  UNL     1      25.389  -0.207  52.920  1.00  0.00    -0.340 N 
HETATM   16  H6  UNL     1      24.752  -1.034  53.087  1.00  0.00     0.167 HD
BRANCH  15  17
HETATM   17  C7  UNL     1      26.744  -0.341  53.362  1.00  0.00     0.033 A 
HETATM   18  C8  UNL     1      27.247   0.433  54.385  1.00  0.00     0.029 A 
HETATM   19  C9  UNL     1      28.570   0.319  54.820  1.00  0.00     0.002 A 
HETATM   20  C10 UNL     1      29.417  -0.576  54.237  1.00  0.00     0.000 A 
HETATM   21  C11 UNL     1      28.951  -1.385  53.194  1.00  0.00     0.002 A 
HETATM   22  C12 UNL     1      27.620  -1.240  52.788  1.00  0.00     0.029 A 
ENDBRANCH  15  17
ENDBRANCH   7  15
BRANCH   1  23
HETATM   23  O1  UNL     1      19.987   3.245  52.365  1.00  0.00    -0.353 OA
HETATM   24  C1  UNL     1      19.134   3.040  51.261  1.00  0.00     0.210 C 
ENDBRANCH   1  23
TORSDOF 3
ENDMDL
MODEL 4
REMARK VINA RESULT:      -7.7      2.014      2.617
REMARK  3 active torsions:
REMARK  status: ('A' for Active; 'I' for Inactive)
REMARK    1  A    between atoms: O1_2  and  C2_3 
REMARK    2  A    between atoms: C6_9  and  N3_10 
REMARK    3  A    between atoms: N3_10  and  C7_11 
ROOT
HETATM    1  C2  UNL     1      20.494   2.857  52.342  1.00  0.00     0.106 A 
HETATM    2  C3  UNL     1      20.453   1.703  53.097  1.00  0.00     0.072 A 
HETATM    3  C4  UNL     1      21.591   0.914  53.252  1.00  0.00     0.077 A 
HETATM    4  N1  UNL     1      21.616  -0.218  53.980  1.00  0.00    -0.241 NA
HETATM    5  C5  UNL     1      22.756  -0.918  54.082  1.00  0.00     0.236 A 
HETATM    6  N2  UNL     1      23.873  -0.505  53.467  1.00  0.00    -0.223 NA
HETATM    7  C6  UNL     1      23.924   0.617  52.724  1.00  0.00     0.144 A 
HETATM    8  C13 UNL     1      22.755   1.357  52.606  1.00  0.00     0.075 A 
HETATM    9  C14 UNL     1      22.847   2.496  51.845  1.00  0.00     0.121 A 
HETATM   10  C15 UNL     1      21.681   3.229  51.734  1.00  0.00     0.136 A 
HETATM   11  O2  UNL     1      21.734   4.390  50.970  1.00  0.00    -0.344 OA
HETATM   12  C16 UNL     1      22.722   4.451  49.959  1.00  0.00     0.202 C 
HETATM   13  C17 UNL     1      24.065   4.145  50.618  1.00  0.00     0.202 C 
HETATM   14  O3  UNL     1      24.038   2.870  51.235  1.00  0.00    -0.345 OA
ENDROOT
BRANCH   7  15
HETATM   15  N3  UNL     1      25.178   0.882  52.166  1.00  0.00    -0.340 N 
HETATM   16  H6  UNL     1      25.321   1.403  51.257  1.00  0.00     0.167 HD
BRANCH  15  17
HETATM   17  C7  UNL     1      26.358   0.433  52.841  1.00  0.00     0.033 A 
HETATM   18  C8  UNL     1      26.863   1.105  53.931  1.00  0.00     0.029 A 
HETATM   19  C9  UNL     1      28.020   0.683  54.594  1.00  0.00     0.002 A 
HETATM   20  C10 UNL     1      28.693  -0.425  54.174  1.00  0.00     0.000 A 
HETATM   21  C11 UNL     1      28.218  -1.142  53.070  1.00  0.00     0.002 A 
HETATM   22  C12 UNL     1      27.057  -0.686  52.435  1.00  0.00     0.029 A 
ENDBRANCH  15  17
ENDBRANCH   7  15
BRANCH   1  23
HETATM   23  O1  UNL     1      19.339   3.584  52.233  1.00  0.00    -0.353 OA
HETATM   24  C1  UNL     1      18.365   3.183  51.295  1.00  0.00     0.210 C 
ENDBRANCH   1  23
TORSDOF 3
ENDMDL
MODEL 5
REMARK VINA RESULT:      -7.7      3.345      5.163
REMARK  3 active torsions:
REMARK  status: ('A' for Active; 'I' for Inactive)
REMARK    1  A    between atoms: O1_2  and  C2_3 
REMARK    2  A    between atoms: C6_9  and  N3_10 
REMARK    3  A    between atoms: N3_10  and  C7_11 
ROOT
HETATM    1  C2  UNL     1      23.079   0.685  53.099  1.00  0.00     0.106 A 
HETATM    2  C3  UNL     1      24.328   0.820  53.669  1.00  0.00     0.072 A 
HETATM    3  C4  UNL     1      25.367   1.434  52.970  1.00  0.00     0.077 A 
HETATM    4  N1  UNL     1      26.603   1.600  53.474  1.00  0.00    -0.241 NA
HETATM    5  C5  UNL     1      27.546   2.205  52.736  1.00  0.00     0.236 A 
HETATM    6  N2  UNL     1      27.272   2.647  51.501  1.00  0.00    -0.223 NA
HETATM    7  C6  UNL     1      26.059   2.516  50.931  1.00  0.00     0.144 A 
HETATM    8  C13 UNL     1      25.068   1.893  51.679  1.00  0.00     0.075 A 
HETATM    9  C14 UNL     1      23.844   1.783  51.068  1.00  0.00     0.121 A 
HETATM   10  C15 UNL     1      22.862   1.164  51.818  1.00  0.00     0.136 A 
HETATM   11  O2  UNL     1      21.607   1.034  51.233  1.00  0.00    -0.344 OA
HETATM   12  C16 UNL     1      21.555   1.010  49.820  1.00  0.00     0.202 C 
HETATM   13  C17 UNL     1      22.287   2.252  49.318  1.00  0.00     0.202 C 
HETATM   14  O3  UNL     1      23.625   2.264  49.784  1.00  0.00    -0.345 OA
ENDROOT
BRANCH   7  15
HETATM   15  N3  UNL     1      25.968   3.041  49.639  1.00  0.00    -0.340 N 
HETATM   16  H6  UNL     1      25.647   2.487  48.798  1.00  0.00     0.167 HD
BRANCH  15  17
HETATM   17  C7  UNL     1      26.327   4.408  49.408  1.00  0.00     0.033 A 
HETATM   18  C8  UNL     1      25.556   5.445  49.886  1.00  0.00     0.029 A 
HETATM   19  C9  UNL     1      25.890   6.784  49.660  1.00  0.00     0.002 A 
HETATM   20  C10 UNL     1      27.005   7.109  48.948  1.00  0.00     0.000 A 
HETATM   21  C11 UNL     1      27.820   6.089  48.442  1.00  0.00     0.002 A 
HETATM   22  C12 UNL     1      27.451   4.763  48.690  1.00  0.00     0.029 A 
ENDBRANCH  15  17
ENDBRANCH   7  15
BRANCH   1  23
HETATM   23  O1  UNL     1      22.106   0.073  53.843  1.00  0.00    -0.353 OA
HETATM   24  C1  UNL     1      22.065  -1.336  53.889  1.00  0.00     0.210 C 
ENDBRANCH   1  23
TORSDOF 3
ENDMDL
MODEL 6
REMARK VINA RESULT:      -7.6      3.241      5.378
REMARK  3 active torsions:
REMARK  status: ('A' for Active; 'I' for Inactive)
REMARK    1  A    between atoms: O1_2  and  C2_3 
REMARK    2  A    between atoms: C6_9  and  N3_10 
REMARK    3  A    between atoms: N3_10  and  C7_11 
ROOT
HETATM    1  C2  UNL     1      23.062  -0.469  53.696  1.00  0.00     0.106 A 
HETATM    2  C3  UNL     1      22.202   0.053  52.752  1.00  0.00     0.072 A 
HETATM    3  C4  UNL     1      22.656   0.971  51.807  1.00  0.00     0.077 A 
HETATM    4  N1  UNL     1      21.868   1.511  50.859  1.00  0.00    -0.241 NA
HETATM    5  C5  UNL     1      22.386   2.386  49.983  1.00  0.00     0.236 A 
HETATM    6  N2  UNL     1      23.680   2.730  50.040  1.00  0.00    -0.223 NA
HETATM    7  C6  UNL     1      24.528   2.232  50.960  1.00  0.00     0.144 A 
HETATM    8  C13 UNL     1      24.012   1.323  51.875  1.00  0.00     0.075 A 
HETATM    9  C14 UNL     1      24.907   0.833  52.794  1.00  0.00     0.121 A 
HETATM   10  C15 UNL     1      24.389  -0.072  53.700  1.00  0.00     0.136 A 
HETATM   11  O2  UNL     1      25.265  -0.591  54.647  1.00  0.00    -0.344 OA
HETATM   12  C16 UNL     1      26.393   0.195  54.980  1.00  0.00     0.202 C 
HETATM   13  C17 UNL     1      27.108   0.537  53.675  1.00  0.00     0.202 C 
HETATM   14  O3  UNL     1      26.238   1.231  52.798  1.00  0.00    -0.345 OA
ENDROOT
BRANCH   7  15
HETATM   15  N3  UNL     1      25.837   2.710  50.856  1.00  0.00    -0.340 N 
HETATM   16  H6  UNL     1      26.676   2.228  51.280  1.00  0.00     0.167 HD
BRANCH  15  17
HETATM   17  C7  UNL     1      26.088   3.925  50.142  1.00  0.00     0.033 A 
HETATM   18  C8  UNL     1      27.118   4.025  49.232  1.00  0.00     0.029 A 
HETATM   19  C9  UNL     1      27.381   5.208  48.534  1.00  0.00     0.002 A 
HETATM   20  C10 UNL     1      26.613   6.316  48.735  1.00  0.00     0.000 A 
HETATM   21  C11 UNL     1      25.554   6.262  49.650  1.00  0.00     0.002 A 
HETATM   22  C12 UNL     1      25.325   5.059  50.328  1.00  0.00     0.029 A 
ENDBRANCH  15  17
ENDBRANCH   7  15
BRANCH   1  23
HETATM   23  O1  UNL     1      22.549  -1.367  54.594  1.00  0.00    -0.353 OA
HETATM   24  C1  UNL     1      21.186  -1.720  54.505  1.00  0.00     0.210 C 
ENDBRANCH   1  23
TORSDOF 3
ENDMDL
MODEL 7
REMARK VINA RESULT:      -7.5      2.737      6.703
REMARK  3 active torsions:
REMARK  status: ('A' for Active; 'I' for Inactive)
REMARK    1  A    between atoms: O1_2  and  C2_3 
REMARK    2  A    between atoms: C6_9  and  N3_10 
REMARK    3  A    between atoms: N3_10  and  C7_11 
ROOT
HETATM    1  C2  UNL     1      26.084  -0.251  52.976  1.00  0.00     0.106 A 
HETATM    2  C3  UNL     1      26.828   0.617  52.203  1.00  0.00     0.072 A 
HETATM    3  C4  UNL     1      26.226   1.712  51.585  1.00  0.00     0.077 A 
HETATM    4  N1  UNL     1      26.898   2.596  50.824  1.00  0.00    -0.241 NA
HETATM    5  C5  UNL     1      26.244   3.627  50.268  1.00  0.00     0.236 A 
HETATM    6  N2  UNL     1      24.927   3.788  50.460  1.00  0.00    -0.223 NA
HETATM    7  C6  UNL     1      24.190   2.946  51.208  1.00  0.00     0.144 A 
HETATM    8  C13 UNL     1      24.849   1.872  51.794  1.00  0.00     0.075 A 
HETATM    9  C14 UNL     1      24.066   1.038  52.553  1.00  0.00     0.121 A 
HETATM   10  C15 UNL     1      24.727  -0.027  53.135  1.00  0.00     0.136 A 
HETATM   11  O2  UNL     1      23.968  -0.895  53.912  1.00  0.00    -0.344 OA
HETATM   12  C16 UNL     1      22.586  -0.978  53.620  1.00  0.00     0.202 C 
HETATM   13  C17 UNL     1      22.029   0.443  53.650  1.00  0.00     0.202 C 
HETATM   14  O3  UNL     1      22.705   1.262  52.713  1.00  0.00    -0.345 OA
ENDROOT
BRANCH   7  15
HETATM   15  N3  UNL     1      22.836   3.282  51.291  1.00  0.00    -0.340 N 
HETATM   16  H6  UNL     1      22.376   3.667  52.161  1.00  0.00     0.167 HD
BRANCH  15  17
HETATM   17  C7  UNL     1      21.995   3.104  50.146  1.00  0.00     0.033 A 
HETATM   18  C8  UNL     1      22.001   1.931  49.424  1.00  0.00     0.029 A 
HETATM   19  C9  UNL     1      21.192   1.748  48.298  1.00  0.00     0.002 A 
HETATM   20  C10 UNL     1      20.360   2.740  47.874  1.00  0.00     0.000 A 
HETATM   21  C11 UNL     1      20.319   3.950  48.577  1.00  0.00     0.002 A 
HETATM   22  C12 UNL     1      21.144   4.094  49.697  1.00  0.00     0.029 A 
ENDBRANCH  15  17
ENDBRANCH   7  15
BRANCH   1  23
HETATM   23  O1  UNL     1      26.740  -1.305  53.553  1.00  0.00    -0.353 OA
HETATM   24  C1  UNL     1      27.293  -2.303  52.725  1.00  0.00     0.210 C 
ENDBRANCH   1  23
TORSDOF 3
ENDMDL
MODEL 8
REMARK VINA RESULT:      -7.4      2.493      6.460
REMARK  3 active torsions:
REMARK  status: ('A' for Active; 'I' for Inactive)
REMARK    1  A    between atoms: O1_2  and  C2_3 
REMARK    2  A    between atoms: C6_9  and  N3_10 
REMARK    3  A    between atoms: N3_10  and  C7_11 
ROOT
HETATM    1  C2  UNL     1      26.293  -0.230  52.828  1.00  0.00     0.106 A 
HETATM    2  C3  UNL     1      25.414  -0.880  53.670  1.00  0.00     0.072 A 
HETATM    3  C4  UNL     1      24.092  -0.454  53.784  1.00  0.00     0.077 A 
HETATM    4  N1  UNL     1      23.187  -1.050  54.582  1.00  0.00    -0.241 NA
HETATM    5  C5  UNL     1      21.932  -0.579  54.631  1.00  0.00     0.236 A 
HETATM    6  N2  UNL     1      21.566   0.478  53.894  1.00  0.00    -0.223 NA
HETATM    7  C6  UNL     1      22.415   1.124  53.073  1.00  0.00     0.144 A 
HETATM    8  C13 UNL     1      23.720   0.652  53.007  1.00  0.00     0.075 A 
HETATM    9  C14 UNL     1      24.555   1.333  52.156  1.00  0.00     0.121 A 
HETATM   10  C15 UNL     1      25.852   0.857  52.093  1.00  0.00     0.136 A 
HETATM   11  O2  UNL     1      26.728   1.520  51.242  1.00  0.00    -0.344 OA
HETATM   12  C16 UNL     1      26.445   2.876  50.955  1.00  0.00     0.202 C 
HETATM   13  C17 UNL     1      25.006   2.941  50.448  1.00  0.00     0.202 C 
HETATM   14  O3  UNL     1      24.113   2.423  51.417  1.00  0.00    -0.345 OA
ENDROOT
BRANCH   7  15
HETATM   15  N3  UNL     1      21.848   2.202  52.387  1.00  0.00    -0.340 N 
HETATM   16  H6  UNL     1      22.290   3.160  52.323  1.00  0.00     0.167 HD
BRANCH  15  17
HETATM   17  C7  UNL     1      20.592   2.029  51.721  1.00  0.00     0.033 A 
HETATM   18  C8  UNL     1      19.506   2.823  52.016  1.00  0.00     0.029 A 
HETATM   19  C9  UNL     1      18.271   2.659  51.380  1.00  0.00     0.002 A 
HETATM   20  C10 UNL     1      18.102   1.693  50.434  1.00  0.00     0.000 A 
HETATM   21  C11 UNL     1      19.178   0.862  50.100  1.00  0.00     0.002 A 
HETATM   22  C12 UNL     1      20.396   1.059  50.759  1.00  0.00     0.029 A 
ENDBRANCH  15  17
ENDBRANCH   7  15
BRANCH   1  23
HETATM   23  O1  UNL     1      27.577  -0.702  52.766  1.00  0.00    -0.353 OA
HETATM   24  C1  UNL     1      28.485  -0.353  53.786  1.00  0.00     0.210 C 
ENDBRANCH   1  23
TORSDOF 3
ENDMDL
MODEL 9
REMARK VINA RESULT:      -7.2      3.674      6.035
REMARK  3 active torsions:
REMARK  status: ('A' for Active; 'I' for Inactive)
REMARK    1  A    between atoms: O1_2  and  C2_3 
REMARK    2  A    between atoms: C6_9  and  N3_10 
REMARK    3  A    between atoms: N3_10  and  C7_11 
ROOT
HETATM    1  C2  UNL     1      22.539   0.076  53.026  1.00  0.00     0.106 A 
HETATM    2  C3  UNL     1      21.397   0.757  52.658  1.00  0.00     0.072 A 
HETATM    3  C4  UNL     1      21.446   2.116  52.353  1.00  0.00     0.077 A 
HETATM    4  N1  UNL     1      20.369   2.833  51.983  1.00  0.00    -0.241 NA
HETATM    5  C5  UNL     1      20.503   4.138  51.703  1.00  0.00     0.236 A 
HETATM    6  N2  UNL     1      21.698   4.739  51.785  1.00  0.00    -0.223 NA
HETATM    7  C6  UNL     1      22.819   4.087  52.148  1.00  0.00     0.144 A 
HETATM    8  C13 UNL     1      22.702   2.734  52.442  1.00  0.00     0.075 A 
HETATM    9  C14 UNL     1      23.866   2.102  52.802  1.00  0.00     0.121 A 
HETATM   10  C15 UNL     1      23.743   0.756  53.091  1.00  0.00     0.136 A 
HETATM   11  O2  UNL     1      24.901   0.080  53.460  1.00  0.00    -0.344 OA
HETATM   12  C16 UNL     1      25.939   0.849  54.038  1.00  0.00     0.202 C 
HETATM   13  C17 UNL     1      26.236   2.001  53.082  1.00  0.00     0.202 C 
HETATM   14  O3  UNL     1      25.075   2.783  52.867  1.00  0.00    -0.345 OA
ENDROOT
BRANCH   7  15
HETATM   15  N3  UNL     1      23.968   4.883  52.174  1.00  0.00    -0.340 N 
HETATM   16  H6  UNL     1      24.628   4.940  52.997  1.00  0.00     0.167 HD
BRANCH  15  17
HETATM   17  C7  UNL     1      24.296   5.683  51.032  1.00  0.00     0.033 A 
HETATM   18  C8  UNL     1      24.159   7.053  51.051  1.00  0.00     0.029 A 
HETATM   19  C9  UNL     1      24.467   7.845  49.940  1.00  0.00     0.002 A 
HETATM   20  C10 UNL     1      24.919   7.276  48.787  1.00  0.00     0.000 A 
HETATM   21  C11 UNL     1      25.075   5.886  48.721  1.00  0.00     0.002 A 
HETATM   22  C12 UNL     1      24.756   5.130  49.855  1.00  0.00     0.029 A 
ENDBRANCH  15  17
ENDBRANCH   7  15
BRANCH   1  23
HETATM   23  O1  UNL     1      22.417  -1.257  53.311  1.00  0.00    -0.353 OA
HETATM   24  C1  UNL     1      21.795  -1.645  54.515  1.00  0.00     0.210 C 
ENDBRANCH   1  23
TORSDOF 3
ENDMDL
