MODEL 1
REMARK VINA RESULT:      -9.4      0.000      0.000
REMARK  6 active torsions:
REMARK  status: ('A' for Active; 'I' for Inactive)
REMARK    1  A    between atoms: N1_1  and  C1_2 
REMARK    2  A    between atoms: C1_2  and  C2_3 
REMARK    3  A    between atoms: C5_6  and  C6_7 
REMARK    4  A    between atoms: C6_7  and  C7_8 
REMARK    5  A    between atoms: C7_8  and  N2_9 
REMARK    6  A    between atoms: C13_16  and  N4_17 
ROOT
HETATM    1  N2  UNL     1      24.818   2.292  51.188  1.00  0.00    -0.358 N 
HETATM    2  C8  UNL     1      26.038   2.742  50.830  1.00  0.00     0.103 A 
HETATM    3  C9  UNL     1      25.777   3.871  50.138  1.00  0.00    -0.008 A 
HETATM    4  C10 UNL     1      24.407   4.027  50.118  1.00  0.00     0.040 A 
HETATM    5  C11 UNL     1      23.765   3.020  50.797  1.00  0.00     0.032 A 
HETATM    6  C12 UNL     1      22.353   3.442  50.653  1.00  0.00     0.208 C 
HETATM    7  N3  UNL     1      22.169   4.836  50.953  1.00  0.00    -0.271 NA
HETATM    8  C13 UNL     1      22.102   5.865  50.213  1.00  0.00     0.099 C 
HETATM    9  C14 UNL     1      22.046   6.938  49.205  1.00  0.00     0.087 C 
HETATM   10  C15 UNL     1      21.593   6.344  47.849  1.00  0.00     0.041 C 
HETATM   11  C16 UNL     1      22.881   6.281  47.104  1.00  0.00     0.169 C 
HETATM   12  O1  UNL     1      23.879   6.819  47.868  1.00  0.00    -0.383 OA
HETATM   13  C17 UNL     1      23.263   7.647  48.792  1.00  0.00     0.157 C 
HETATM   14  C18 UNL     1      24.134   8.286  49.794  1.00  0.00     0.208 C 
HETATM   15  O2  UNL     1      25.494   8.423  49.375  1.00  0.00    -0.349 OA
HETATM   16  C19 UNL     1      26.276   7.334  49.074  1.00  0.00     0.069 A 
HETATM   17  C20 UNL     1      27.399   7.116  48.318  1.00  0.00     0.037 A 
HETATM   18  C21 UNL     1      28.013   5.891  48.167  1.00  0.00     0.004 A 
HETATM   19  C22 UNL     1      27.594   4.710  48.742  1.00  0.00     0.012 A 
HETATM   20  C23 UNL     1      26.488   4.950  49.478  1.00  0.00    -0.022 A 
HETATM   21  C24 UNL     1      25.846   6.168  49.658  1.00  0.00     0.049 A 
ENDROOT
BRANCH   1  22
HETATM   22  C7  UNL     1      24.541   1.120  51.937  1.00  0.00     0.130 C 
BRANCH  22  23
HETATM   23  C6  UNL     1      24.775   1.273  53.420  1.00  0.00     0.055 C 
BRANCH  23  24
HETATM   24  C5  UNL     1      25.896   0.338  53.849  1.00  0.00     0.222 C 
HETATM   25  C4  UNL     1      26.480  -0.398  52.663  1.00  0.00     0.038 C 
HETATM   26  C3  UNL     1      27.796  -0.895  53.223  1.00  0.00     0.039 C 
HETATM   27  C2  UNL     1      28.117   0.110  54.306  1.00  0.00     0.248 C 
HETATM   28  N5  UNL     1      27.040   1.055  54.334  1.00  0.00     0.094 N 
HETATM   29  H33 UNL     1      26.907   1.391  55.312  1.00  0.00     0.316 HD
BRANCH  27  30
HETATM   30  C1  UNL     1      29.435   0.803  53.956  1.00  0.00     0.302 C 
BRANCH  30  31
HETATM   31  N1  UNL     1      29.446   2.156  54.497  1.00  0.00     0.080 N 
HETATM   32  H1  UNL     1      29.524   2.868  53.738  1.00  0.00     0.312 HD
HETATM   33  H2  UNL     1      28.633   2.334  55.149  1.00  0.00     0.312 HD
ENDBRANCH  30  31
ENDBRANCH  27  30
ENDBRANCH  23  24
ENDBRANCH  22  23
ENDBRANCH   1  22
BRANCH   8  34
HETATM   34  N4  UNL     1      21.942   6.427  51.545  1.00  0.00    -0.387 N 
HETATM   35  H19 UNL     1      21.809   6.829  52.500  1.00  0.00     0.157 HD
HETATM   36  H20 UNL     1      21.707   6.819  52.482  1.00  0.00     0.157 HD
ENDBRANCH   8  34
TORSDOF 6
ENDMDL
MODEL 2
REMARK VINA RESULT:      -9.1      3.058      5.361
REMARK  6 active torsions:
REMARK  status: ('A' for Active; 'I' for Inactive)
REMARK    1  A    between atoms: N1_1  and  C1_2 
REMARK    2  A    between atoms: C1_2  and  C2_3 
REMARK    3  A    between atoms: C5_6  and  C6_7 
REMARK    4  A    between atoms: C6_7  and  C7_8 
REMARK    5  A    between atoms: C7_8  and  N2_9 
REMARK    6  A    between atoms: C13_16  and  N4_17 
ROOT
HETATM    1  N2  UNL     1      23.921  -0.002  53.382  1.00  0.00    -0.358 N 
HETATM    2  C8  UNL     1      22.757  -0.621  53.099  1.00  0.00     0.103 A 
HETATM    3  C9  UNL     1      22.089   0.277  52.343  1.00  0.00    -0.008 A 
HETATM    4  C10 UNL     1      22.897   1.387  52.222  1.00  0.00     0.040 A 
HETATM    5  C11 UNL     1      24.091   1.227  52.882  1.00  0.00     0.032 A 
HETATM    6  C12 UNL     1      24.759   2.511  52.568  1.00  0.00     0.208 C 
HETATM    7  N3  UNL     1      24.668   2.844  51.172  1.00  0.00    -0.271 NA
HETATM    8  C13 UNL     1      23.873   3.593  50.524  1.00  0.00     0.099 C 
HETATM    9  C14 UNL     1      22.868   4.499  49.943  1.00  0.00     0.087 C 
HETATM   10  C15 UNL     1      22.371   5.479  51.033  1.00  0.00     0.041 C 
HETATM   11  C16 UNL     1      21.042   4.899  51.375  1.00  0.00     0.169 C 
HETATM   12  O1  UNL     1      20.789   3.826  50.566  1.00  0.00    -0.383 OA
HETATM   13  C17 UNL     1      21.587   3.982  49.444  1.00  0.00     0.157 C 
HETATM   14  C18 UNL     1      21.554   2.897  48.450  1.00  0.00     0.208 C 
HETATM   15  O2  UNL     1      20.352   2.125  48.477  1.00  0.00    -0.349 OA
HETATM   16  C19 UNL     1      19.970   1.411  49.587  1.00  0.00     0.069 A 
HETATM   17  C20 UNL     1      18.785   0.923  50.076  1.00  0.00     0.037 A 
HETATM   18  C21 UNL     1      18.658   0.217  51.253  1.00  0.00     0.004 A 
HETATM   19  C22 UNL     1      19.689  -0.100  52.111  1.00  0.00     0.012 A 
HETATM   20  C23 UNL     1      20.842   0.390  51.610  1.00  0.00    -0.022 A 
HETATM   21  C24 UNL     1      21.010   1.101  50.428  1.00  0.00     0.049 A 
ENDROOT
BRANCH   1  22
HETATM   22  C7  UNL     1      24.984  -0.528  54.161  1.00  0.00     0.130 C 
BRANCH  22  23
HETATM   23  C6  UNL     1      26.111  -1.111  53.343  1.00  0.00     0.055 C 
BRANCH  23  24
HETATM   24  C5  UNL     1      27.434  -0.811  54.029  1.00  0.00     0.222 C 
HETATM   25  C4  UNL     1      28.596  -0.969  53.074  1.00  0.00     0.038 C 
HETATM   26  C3  UNL     1      29.698  -0.226  53.799  1.00  0.00     0.039 C 
HETATM   27  C2  UNL     1      28.947   0.780  54.639  1.00  0.00     0.248 C 
HETATM   28  N5  UNL     1      27.550   0.570  54.397  1.00  0.00     0.094 N 
HETATM   29  H33 UNL     1      27.017   0.793  55.265  1.00  0.00     0.316 HD
BRANCH  27  30
HETATM   30  C1  UNL     1      29.365   2.188  54.208  1.00  0.00     0.302 C 
BRANCH  30  31
HETATM   31  N1  UNL     1      28.249   2.861  53.557  1.00  0.00     0.080 N 
HETATM   32  H1  UNL     1      28.213   2.639  52.538  1.00  0.00     0.312 HD
HETATM   33  H2  UNL     1      27.330   2.686  54.050  1.00  0.00     0.312 HD
ENDBRANCH  30  31
ENDBRANCH  27  30
ENDBRANCH  23  24
ENDBRANCH  22  23
ENDBRANCH   1  22
BRANCH   8  34
HETATM   34  N4  UNL     1      24.752   3.092  49.480  1.00  0.00    -0.387 N 
HETATM   35  H19 UNL     1      25.398   2.729  48.742  1.00  0.00     0.157 HD
HETATM   36  H20 UNL     1      25.467   2.719  48.818  1.00  0.00     0.157 HD
ENDBRANCH   8  34
TORSDOF 6
ENDMDL
MODEL 3
REMARK VINA RESULT:      -8.8      3.238      5.285
REMARK  6 active torsions:
REMARK  status: ('A' for Active; 'I' for Inactive)
REMARK    1  A    between atoms: N1_1  and  C1_2 
REMARK    2  A    between atoms: C1_2  and  C2_3 
REMARK    3  A    between atoms: C5_6  and  C6_7 
REMARK    4  A    between atoms: C6_7  and  C7_8 
REMARK    5  A    between atoms: C7_8  and  N2_9 
REMARK    6  A    between atoms: C13_16  and  N4_17 
ROOT
HETATM    1  N2  UNL     1      26.415   5.087  48.996  1.00  0.00    -0.358 N 
HETATM    2  C8  UNL     1      27.574   4.445  48.746  1.00  0.00     0.103 A 
HETATM    3  C9  UNL     1      28.445   5.440  48.480  1.00  0.00    -0.008 A 
HETATM    4  C10 UNL     1      27.751   6.626  48.583  1.00  0.00     0.040 A 
HETATM    5  C11 UNL     1      26.435   6.424  48.922  1.00  0.00     0.032 A 
HETATM    6  C12 UNL     1      25.947   7.819  48.998  1.00  0.00     0.208 C 
HETATM    7  N3  UNL     1      26.833   8.665  49.751  1.00  0.00    -0.271 NA
HETATM    8  C13 UNL     1      27.757   9.462  49.397  1.00  0.00     0.099 C 
HETATM    9  C14 UNL     1      28.783  10.337  48.806  1.00  0.00     0.087 C 
HETATM   10  C15 UNL     1      28.378  10.693  47.354  1.00  0.00     0.041 C 
HETATM   11  C16 UNL     1      29.277   9.804  46.566  1.00  0.00     0.169 C 
HETATM   12  O1  UNL     1      30.105   9.121  47.413  1.00  0.00    -0.383 OA
HETATM   13  C17 UNL     1      30.152   9.852  48.589  1.00  0.00     0.157 C 
HETATM   14  C18 UNL     1      30.925   9.271  49.701  1.00  0.00     0.208 C 
HETATM   15  O2  UNL     1      31.942   8.358  49.282  1.00  0.00    -0.349 OA
HETATM   16  C19 UNL     1      31.648   7.203  48.598  1.00  0.00     0.069 A 
HETATM   17  C20 UNL     1      32.331   6.363  47.757  1.00  0.00     0.037 A 
HETATM   18  C21 UNL     1      31.796   5.233  47.179  1.00  0.00     0.004 A 
HETATM   19  C22 UNL     1      30.505   4.780  47.350  1.00  0.00     0.012 A 
HETATM   20  C23 UNL     1      29.853   5.622  48.179  1.00  0.00    -0.022 A 
HETATM   21  C24 UNL     1      30.359   6.766  48.784  1.00  0.00     0.049 A 
ENDROOT
BRANCH   1  22
HETATM   22  C7  UNL     1      25.175   4.485  49.329  1.00  0.00     0.130 C 
BRANCH  22  23
HETATM   23  C6  UNL     1      24.609   4.939  50.652  1.00  0.00     0.055 C 
BRANCH  23  24
HETATM   24  C5  UNL     1      24.151   3.724  51.443  1.00  0.00     0.222 C 
HETATM   25  C4  UNL     1      24.480   2.439  50.717  1.00  0.00     0.038 C 
HETATM   26  C3  UNL     1      24.355   1.414  51.824  1.00  0.00     0.039 C 
HETATM   27  C2  UNL     1      24.650   2.211  53.073  1.00  0.00     0.248 C 
HETATM   28  N5  UNL     1      24.891   3.563  52.662  1.00  0.00     0.094 N 
HETATM   29  H33 UNL     1      24.562   4.210  53.410  1.00  0.00     0.316 HD
BRANCH  27  30
HETATM   30  C1  UNL     1      25.892   1.623  53.748  1.00  0.00     0.302 C 
BRANCH  30  31
HETATM   31  N1  UNL     1      26.932   2.637  53.848  1.00  0.00     0.080 N 
HETATM   32  H1  UNL     1      26.720   3.327  54.601  1.00  0.00     0.312 HD
HETATM   33  H2  UNL     1      27.898   2.216  53.934  1.00  0.00     0.312 HD
ENDBRANCH  30  31
ENDBRANCH  27  30
ENDBRANCH  23  24
ENDBRANCH  22  23
ENDBRANCH   1  22
BRANCH   8  34
HETATM   34  N4  UNL     1      27.776   9.584  50.846  1.00  0.00    -0.387 N 
HETATM   35  H19 UNL     1      27.797   9.653  51.889  1.00  0.00     0.157 HD
HETATM   36  H20 UNL     1      27.833   9.556  51.887  1.00  0.00     0.157 HD
ENDBRANCH   8  34
TORSDOF 6
ENDMDL
MODEL 4
REMARK VINA RESULT:      -8.5      4.581      7.028
REMARK  6 active torsions:
REMARK  status: ('A' for Active; 'I' for Inactive)
REMARK    1  A    between atoms: N1_1  and  C1_2 
REMARK    2  A    between atoms: C1_2  and  C2_3 
REMARK    3  A    between atoms: C5_6  and  C6_7 
REMARK    4  A    between atoms: C6_7  and  C7_8 
REMARK    5  A    between atoms: C7_8  and  N2_9 
REMARK    6  A    between atoms: C13_16  and  N4_17 
ROOT
HETATM    1  N2  UNL     1      22.612   1.145  51.751  1.00  0.00    -0.358 N 
HETATM    2  C8  UNL     1      21.988   0.097  52.325  1.00  0.00     0.103 A 
HETATM    3  C9  UNL     1      20.678   0.340  52.104  1.00  0.00    -0.008 A 
HETATM    4  C10 UNL     1      20.597   1.528  51.410  1.00  0.00     0.040 A 
HETATM    5  C11 UNL     1      21.837   2.065  51.165  1.00  0.00     0.032 A 
HETATM    6  C12 UNL     1      21.470   3.279  50.400  1.00  0.00     0.208 C 
HETATM    7  N3  UNL     1      20.514   3.000  49.364  1.00  0.00    -0.271 NA
HETATM    8  C13 UNL     1      19.249   3.112  49.318  1.00  0.00     0.099 C 
HETATM    9  C14 UNL     1      17.796   3.310  49.446  1.00  0.00     0.087 C 
HETATM   10  C15 UNL     1      17.517   4.386  50.524  1.00  0.00     0.041 C 
HETATM   11  C16 UNL     1      17.085   3.550  51.679  1.00  0.00     0.169 C 
HETATM   12  O1  UNL     1      17.044   2.236  51.302  1.00  0.00    -0.383 OA
HETATM   13  C17 UNL     1      16.927   2.225  49.922  1.00  0.00     0.157 C 
HETATM   14  C18 UNL     1      16.947   0.908  49.264  1.00  0.00     0.208 C 
HETATM   15  O2  UNL     1      16.536  -0.167  50.112  1.00  0.00    -0.349 OA
HETATM   16  C19 UNL     1      17.218  -0.490  51.260  1.00  0.00     0.069 A 
HETATM   17  C20 UNL     1      16.913  -1.140  52.429  1.00  0.00     0.037 A 
HETATM   18  C21 UNL     1      17.799  -1.341  53.465  1.00  0.00     0.004 A 
HETATM   19  C22 UNL     1      19.112  -0.920  53.488  1.00  0.00     0.012 A 
HETATM   20  C23 UNL     1      19.388  -0.283  52.330  1.00  0.00    -0.022 A 
HETATM   21  C24 UNL     1      18.524  -0.067  51.264  1.00  0.00     0.049 A 
ENDROOT
BRANCH   1  22
HETATM   22  C7  UNL     1      24.012   1.368  51.708  1.00  0.00     0.130 C 
BRANCH  22  23
HETATM   23  C6  UNL     1      24.592   1.871  53.008  1.00  0.00     0.055 C 
BRANCH  23  24
HETATM   24  C5  UNL     1      25.552   0.832  53.563  1.00  0.00     0.222 C 
HETATM   25  C4  UNL     1      26.255   0.084  52.452  1.00  0.00     0.038 C 
HETATM   26  C3  UNL     1      27.423  -0.540  53.186  1.00  0.00     0.039 C 
HETATM   27  C2  UNL     1      27.649   0.401  54.346  1.00  0.00     0.248 C 
HETATM   28  N5  UNL     1      26.660   1.434  54.249  1.00  0.00     0.094 N 
HETATM   29  H33 UNL     1      26.403   1.751  55.208  1.00  0.00     0.316 HD
BRANCH  27  30
HETATM   30  C1  UNL     1      29.057   0.989  54.233  1.00  0.00     0.302 C 
BRANCH  30  31
HETATM   31  N1  UNL     1      28.980   2.424  53.992  1.00  0.00     0.080 N 
HETATM   32  H1  UNL     1      28.081   2.684  53.530  1.00  0.00     0.312 HD
HETATM   33  H2  UNL     1      29.175   2.989  54.864  1.00  0.00     0.312 HD
ENDBRANCH  30  31
ENDBRANCH  27  30
ENDBRANCH  23  24
ENDBRANCH  22  23
ENDBRANCH   1  22
BRANCH   8  34
HETATM   34  N4  UNL     1      19.566   2.598  47.996  1.00  0.00    -0.387 N 
HETATM   35  H19 UNL     1      19.798   2.246  47.039  1.00  0.00     0.157 HD
HETATM   36  H20 UNL     1      19.818   2.345  47.016  1.00  0.00     0.157 HD
ENDBRANCH   8  34
TORSDOF 6
ENDMDL
MODEL 5
REMARK VINA RESULT:      -8.3      3.298      6.577
REMARK  6 active torsions:
REMARK  status: ('A' for Active; 'I' for Inactive)
REMARK    1  A    between atoms: N1_1  and  C1_2 
REMARK    2  A    between atoms: C1_2  and  C2_3 
REMARK    3  A    between atoms: C5_6  and  C6_7 
REMARK    4  A    between atoms: C6_7  and  C7_8 
REMARK    5  A    between atoms: C7_8  and  N2_9 
REMARK    6  A    between atoms: C13_16  and  N4_17 
ROOT
HETATM    1  N2  UNL     1      25.795   4.723  49.270  1.00  0.00    -0.358 N 
HETATM    2  C8  UNL     1      26.065   3.728  50.139  1.00  0.00     0.103 A 
HETATM    3  C9  UNL     1      24.847   3.271  50.497  1.00  0.00    -0.008 A 
HETATM    4  C10 UNL     1      23.914   4.028  49.820  1.00  0.00     0.040 A 
HETATM    5  C11 UNL     1      24.505   4.971  49.015  1.00  0.00     0.032 A 
HETATM    6  C12 UNL     1      23.314   5.597  48.397  1.00  0.00     0.208 C 
HETATM    7  N3  UNL     1      22.377   4.621  47.911  1.00  0.00    -0.271 NA
HETATM    8  C13 UNL     1      21.321   4.127  48.416  1.00  0.00     0.099 C 
HETATM    9  C14 UNL     1      20.132   3.669  49.153  1.00  0.00     0.087 C 
HETATM   10  C15 UNL     1      19.697   4.765  50.157  1.00  0.00     0.041 C 
HETATM   11  C16 UNL     1      20.196   4.207  51.445  1.00  0.00     0.169 C 
HETATM   12  O1  UNL     1      20.745   2.974  51.228  1.00  0.00    -0.383 OA
HETATM   13  C17 UNL     1      20.200   2.504  50.044  1.00  0.00     0.157 C 
HETATM   14  C18 UNL     1      20.703   1.211  49.549  1.00  0.00     0.208 C 
HETATM   15  O2  UNL     1      21.245   0.372  50.571  1.00  0.00    -0.349 OA
HETATM   16  C19 UNL     1      22.329   0.750  51.325  1.00  0.00     0.069 A 
HETATM   17  C20 UNL     1      22.832   0.411  52.555  1.00  0.00     0.037 A 
HETATM   18  C21 UNL     1      23.972   0.952  53.109  1.00  0.00     0.004 A 
HETATM   19  C22 UNL     1      24.771   1.909  52.521  1.00  0.00     0.012 A 
HETATM   20  C23 UNL     1      24.256   2.227  51.314  1.00  0.00    -0.022 A 
HETATM   21  C24 UNL     1      23.116   1.701  50.722  1.00  0.00     0.049 A 
ENDROOT
BRANCH   1  22
HETATM   22  C7  UNL     1      26.746   5.535  48.601  1.00  0.00     0.130 C 
BRANCH  22  23
HETATM   23  C6  UNL     1      28.154   4.993  48.645  1.00  0.00     0.055 C 
BRANCH  23  24
HETATM   24  C5  UNL     1      29.102   6.011  48.034  1.00  0.00     0.222 C 
HETATM   25  C4  UNL     1      28.344   7.121  47.339  1.00  0.00     0.038 C 
HETATM   26  C3  UNL     1      29.407   8.191  47.209  1.00  0.00     0.039 C 
HETATM   27  C2  UNL     1      30.342   7.896  48.359  1.00  0.00     0.248 C 
HETATM   28  N5  UNL     1      29.827   6.741  49.034  1.00  0.00     0.094 N 
HETATM   29  H33 UNL     1      30.622   6.191  49.424  1.00  0.00     0.316 HD
BRANCH  27  30
HETATM   30  C1  UNL     1      30.363   9.106  49.297  1.00  0.00     0.302 C 
BRANCH  30  31
HETATM   31  N1  UNL     1      29.067   9.255  49.946  1.00  0.00     0.080 N 
HETATM   32  H1  UNL     1      28.760   8.362  50.390  1.00  0.00     0.312 HD
HETATM   33  H2  UNL     1      29.043  10.076  50.611  1.00  0.00     0.312 HD
ENDBRANCH  30  31
ENDBRANCH  27  30
ENDBRANCH  23  24
ENDBRANCH  22  23
ENDBRANCH   1  22
BRANCH   8  34
HETATM   34  N4  UNL     1      21.402   3.448  47.133  1.00  0.00    -0.387 N 
HETATM   35  H19 UNL     1      21.478   2.952  46.216  1.00  0.00     0.157 HD
HETATM   36  H20 UNL     1      21.569   2.919  46.250  1.00  0.00     0.157 HD
ENDBRANCH   8  34
TORSDOF 6
ENDMDL
MODEL 6
REMARK VINA RESULT:      -8.3      1.961      2.571
REMARK  6 active torsions:
REMARK  status: ('A' for Active; 'I' for Inactive)
REMARK    1  A    between atoms: N1_1  and  C1_2 
REMARK    2  A    between atoms: C1_2  and  C2_3 
REMARK    3  A    between atoms: C5_6  and  C6_7 
REMARK    4  A    between atoms: C6_7  and  C7_8 
REMARK    5  A    between atoms: C7_8  and  N2_9 
REMARK    6  A    between atoms: C13_16  and  N4_17 
ROOT
HETATM    1  N2  UNL     1      24.751   3.602  49.755  1.00  0.00    -0.358 N 
HETATM    2  C8  UNL     1      26.094   3.709  49.714  1.00  0.00     0.103 A 
HETATM    3  C9  UNL     1      26.305   4.903  49.119  1.00  0.00    -0.008 A 
HETATM    4  C10 UNL     1      25.067   5.439  48.835  1.00  0.00     0.040 A 
HETATM    5  C11 UNL     1      24.046   4.617  49.243  1.00  0.00     0.032 A 
HETATM    6  C12 UNL     1      22.866   5.426  48.861  1.00  0.00     0.208 C 
HETATM    7  N3  UNL     1      22.988   6.797  49.278  1.00  0.00    -0.271 NA
HETATM    8  C13 UNL     1      23.366   7.844  48.666  1.00  0.00     0.099 C 
HETATM    9  C14 UNL     1      23.828   8.943  47.802  1.00  0.00     0.087 C 
HETATM   10  C15 UNL     1      23.562   8.578  46.321  1.00  0.00     0.041 C 
HETATM   11  C16 UNL     1      24.925   8.197  45.857  1.00  0.00     0.169 C 
HETATM   12  O1  UNL     1      25.824   8.388  46.869  1.00  0.00    -0.383 OA
HETATM   13  C17 UNL     1      25.250   9.303  47.737  1.00  0.00     0.157 C 
HETATM   14  C18 UNL     1      26.001   9.614  48.965  1.00  0.00     0.208 C 
HETATM   15  O2  UNL     1      27.408   9.386  48.856  1.00  0.00    -0.349 OA
HETATM   16  C19 UNL     1      27.925   8.140  48.597  1.00  0.00     0.069 A 
HETATM   17  C20 UNL     1      29.096   7.657  48.071  1.00  0.00     0.037 A 
HETATM   18  C21 UNL     1      29.385   6.320  47.907  1.00  0.00     0.004 A 
HETATM   19  C22 UNL     1      28.551   5.274  48.239  1.00  0.00     0.012 A 
HETATM   20  C23 UNL     1      27.407   5.773  48.753  1.00  0.00    -0.022 A 
HETATM   21  C24 UNL     1      27.082   7.111  48.938  1.00  0.00     0.049 A 
ENDROOT
BRANCH   1  22
HETATM   22  C7  UNL     1      24.011   2.515  50.288  1.00  0.00     0.130 C 
BRANCH  22  23
HETATM   23  C6  UNL     1      24.127   2.371  51.786  1.00  0.00     0.055 C 
BRANCH  23  24
HETATM   24  C5  UNL     1      24.556   0.951  52.120  1.00  0.00     0.222 C 
HETATM   25  C4  UNL     1      26.048   0.773  51.949  1.00  0.00     0.038 C 
HETATM   26  C3  UNL     1      26.300  -0.502  52.726  1.00  0.00     0.039 C 
HETATM   27  C2  UNL     1      25.186  -0.516  53.747  1.00  0.00     0.248 C 
HETATM   28  N5  UNL     1      24.388   0.652  53.513  1.00  0.00     0.094 N 
HETATM   29  H33 UNL     1      23.396   0.440  53.754  1.00  0.00     0.316 HD
BRANCH  27  30
HETATM   30  C1  UNL     1      25.803  -0.478  55.147  1.00  0.00     0.302 C 
BRANCH  30  31
HETATM   31  N1  UNL     1      25.075  -1.373  56.036  1.00  0.00     0.080 N 
HETATM   32  H1  UNL     1      25.592  -2.269  56.181  1.00  0.00     0.312 HD
HETATM   33  H2  UNL     1      24.801  -0.904  56.943  1.00  0.00     0.312 HD
ENDBRANCH  30  31
ENDBRANCH  27  30
ENDBRANCH  23  24
ENDBRANCH  22  23
ENDBRANCH   1  22
BRANCH   8  34
HETATM   34  N4  UNL     1      23.055   8.351  49.992  1.00  0.00    -0.387 N 
HETATM   35  H19 UNL     1      22.817   8.704  50.947  1.00  0.00     0.157 HD
HETATM   36  H20 UNL     1      22.739   8.636  50.945  1.00  0.00     0.157 HD
ENDBRANCH   8  34
TORSDOF 6
ENDMDL
MODEL 7
REMARK VINA RESULT:      -8.2      2.425      3.702
REMARK  6 active torsions:
REMARK  status: ('A' for Active; 'I' for Inactive)
REMARK    1  A    between atoms: N1_1  and  C1_2 
REMARK    2  A    between atoms: C1_2  and  C2_3 
REMARK    3  A    between atoms: C5_6  and  C6_7 
REMARK    4  A    between atoms: C6_7  and  C7_8 
REMARK    5  A    between atoms: C7_8  and  N2_9 
REMARK    6  A    between atoms: C13_16  and  N4_17 
ROOT
HETATM    1  N2  UNL     1      24.516   2.744  50.668  1.00  0.00    -0.358 N 
HETATM    2  C8  UNL     1      25.811   3.022  50.416  1.00  0.00     0.103 A 
HETATM    3  C9  UNL     1      25.769   4.216  49.788  1.00  0.00    -0.008 A 
HETATM    4  C10 UNL     1      24.443   4.581  49.698  1.00  0.00     0.040 A 
HETATM    5  C11 UNL     1      23.613   3.646  50.267  1.00  0.00     0.032 A 
HETATM    6  C12 UNL     1      22.292   4.286  50.069  1.00  0.00     0.208 C 
HETATM    7  N3  UNL     1      22.297   5.672  50.453  1.00  0.00    -0.271 NA
HETATM    8  C13 UNL     1      22.436   6.742  49.782  1.00  0.00     0.099 C 
HETATM    9  C14 UNL     1      22.609   7.867  48.849  1.00  0.00     0.087 C 
HETATM   10  C15 UNL     1      22.167   7.431  47.431  1.00  0.00     0.041 C 
HETATM   11  C16 UNL     1      23.480   7.216  46.760  1.00  0.00     0.169 C 
HETATM   12  O1  UNL     1      24.492   7.548  47.617  1.00  0.00    -0.383 OA
HETATM   13  C17 UNL     1      23.945   8.405  48.558  1.00  0.00     0.157 C 
HETATM   14  C18 UNL     1      24.830   8.843  49.651  1.00  0.00     0.208 C 
HETATM   15  O2  UNL     1      26.220   8.795  49.323  1.00  0.00    -0.349 OA
HETATM   16  C19 UNL     1      26.850   7.619  48.995  1.00  0.00     0.069 A 
HETATM   17  C20 UNL     1      27.978   7.276  48.294  1.00  0.00     0.037 A 
HETATM   18  C21 UNL     1      28.411   5.983  48.096  1.00  0.00     0.004 A 
HETATM   19  C22 UNL     1      27.782   4.848  48.563  1.00  0.00     0.012 A 
HETATM   20  C23 UNL     1      26.677   5.210  49.247  1.00  0.00    -0.022 A 
HETATM   21  C24 UNL     1      26.212   6.500  49.471  1.00  0.00     0.049 A 
ENDROOT
BRANCH   1  22
HETATM   22  C7  UNL     1      24.017   1.586  51.318  1.00  0.00     0.130 C 
BRANCH  22  23
HETATM   23  C6  UNL     1      23.495   1.843  52.711  1.00  0.00     0.055 C 
BRANCH  23  24
HETATM   24  C5  UNL     1      22.017   1.491  52.765  1.00  0.00     0.222 C 
HETATM   25  C4  UNL     1      21.597   0.696  51.549  1.00  0.00     0.038 C 
HETATM   26  C3  UNL     1      20.281   0.101  52.005  1.00  0.00     0.039 C 
HETATM   27  C2  UNL     1      20.430   0.033  53.507  1.00  0.00     0.248 C 
HETATM   28  N5  UNL     1      21.719   0.573  53.826  1.00  0.00     0.094 N 
HETATM   29  H33 UNL     1      21.670   1.047  54.754  1.00  0.00     0.316 HD
BRANCH  27  30
HETATM   30  C1  UNL     1      20.335  -1.431  53.943  1.00  0.00     0.302 C 
BRANCH  30  31
HETATM   31  N1  UNL     1      18.939  -1.848  53.985  1.00  0.00     0.080 N 
HETATM   32  H1  UNL     1      18.332  -1.102  54.390  1.00  0.00     0.312 HD
HETATM   33  H2  UNL     1      18.596  -2.197  53.049  1.00  0.00     0.312 HD
ENDBRANCH  30  31
ENDBRANCH  27  30
ENDBRANCH  23  24
ENDBRANCH  22  23
ENDBRANCH   1  22
BRANCH   8  34
HETATM   34  N4  UNL     1      22.270   7.241  51.137  1.00  0.00    -0.387 N 
HETATM   35  H19 UNL     1      22.170   7.599  52.115  1.00  0.00     0.157 HD
HETATM   36  H20 UNL     1      22.273   7.585  52.123  1.00  0.00     0.157 HD
ENDBRANCH   8  34
TORSDOF 6
ENDMDL
MODEL 8
REMARK VINA RESULT:      -8.2      3.106      4.654
REMARK  6 active torsions:
REMARK  status: ('A' for Active; 'I' for Inactive)
REMARK    1  A    between atoms: N1_1  and  C1_2 
REMARK    2  A    between atoms: C1_2  and  C2_3 
REMARK    3  A    between atoms: C5_6  and  C6_7 
REMARK    4  A    between atoms: C6_7  and  C7_8 
REMARK    5  A    between atoms: C7_8  and  N2_9 
REMARK    6  A    between atoms: C13_16  and  N4_17 
ROOT
HETATM    1  N2  UNL     1      23.287   2.467  51.695  1.00  0.00    -0.358 N 
HETATM    2  C8  UNL     1      24.606   2.536  51.422  1.00  0.00     0.103 A 
HETATM    3  C9  UNL     1      24.711   3.600  50.599  1.00  0.00    -0.008 A 
HETATM    4  C10 UNL     1      23.440   4.105  50.424  1.00  0.00     0.040 A 
HETATM    5  C11 UNL     1      22.502   3.391  51.128  1.00  0.00     0.032 A 
HETATM    6  C12 UNL     1      21.271   4.146  50.799  1.00  0.00     0.208 C 
HETATM    7  N3  UNL     1      21.450   5.566  50.941  1.00  0.00    -0.271 NA
HETATM    8  C13 UNL     1      21.719   6.479  50.099  1.00  0.00     0.099 C 
HETATM    9  C14 UNL     1      22.029   7.397  48.992  1.00  0.00     0.087 C 
HETATM   10  C15 UNL     1      21.533   6.782  47.660  1.00  0.00     0.041 C 
HETATM   11  C16 UNL     1      22.807   6.294  47.062  1.00  0.00     0.169 C 
HETATM   12  O1  UNL     1      23.854   6.642  47.868  1.00  0.00    -0.383 OA
HETATM   13  C17 UNL     1      23.421   7.709  48.639  1.00  0.00     0.157 C 
HETATM   14  C18 UNL     1      24.356   8.215  49.657  1.00  0.00     0.208 C 
HETATM   15  O2  UNL     1      25.728   7.940  49.369  1.00  0.00    -0.349 OA
HETATM   16  C19 UNL     1      26.206   6.657  49.258  1.00  0.00     0.069 A 
HETATM   17  C20 UNL     1      27.281   6.062  48.648  1.00  0.00     0.037 A 
HETATM   18  C21 UNL     1      27.549   4.711  48.681  1.00  0.00     0.004 A 
HETATM   19  C22 UNL     1      26.785   3.759  49.323  1.00  0.00     0.012 A 
HETATM   20  C23 UNL     1      25.735   4.367  49.914  1.00  0.00    -0.022 A 
HETATM   21  C24 UNL     1      25.435   5.723  49.906  1.00  0.00     0.049 A 
ENDROOT
BRANCH   1  22
HETATM   22  C7  UNL     1      22.649   1.508  52.523  1.00  0.00     0.130 C 
BRANCH  22  23
HETATM   23  C6  UNL     1      21.809   0.508  51.766  1.00  0.00     0.055 C 
BRANCH  23  24
HETATM   24  C5  UNL     1      20.389   0.535  52.308  1.00  0.00     0.222 C 
HETATM   25  C4  UNL     1      19.381   0.231  51.222  1.00  0.00     0.038 C 
HETATM   26  C3  UNL     1      18.148  -0.118  52.029  1.00  0.00     0.039 C 
HETATM   27  C2  UNL     1      18.718  -0.628  53.333  1.00  0.00     0.248 C 
HETATM   28  N5  UNL     1      20.144  -0.533  53.234  1.00  0.00     0.094 N 
HETATM   29  H33 UNL     1      20.539  -0.333  54.178  1.00  0.00     0.316 HD
BRANCH  27  30
HETATM   30  C1  UNL     1      18.284  -2.083  53.522  1.00  0.00     0.302 C 
BRANCH  30  31
HETATM   31  N1  UNL     1      16.864  -2.222  53.229  1.00  0.00     0.080 N 
HETATM   32  H1  UNL     1      16.692  -2.977  52.529  1.00  0.00     0.312 HD
HETATM   33  H2  UNL     1      16.281  -2.330  54.104  1.00  0.00     0.312 HD
ENDBRANCH  30  31
ENDBRANCH  27  30
ENDBRANCH  23  24
ENDBRANCH  22  23
ENDBRANCH   1  22
BRANCH   8  34
HETATM   34  N4  UNL     1      21.621   7.220  51.347  1.00  0.00    -0.387 N 
HETATM   35  H19 UNL     1      21.539   7.766  52.234  1.00  0.00     0.157 HD
HETATM   36  H20 UNL     1      21.480   7.832  52.180  1.00  0.00     0.157 HD
ENDBRANCH   8  34
TORSDOF 6
ENDMDL
MODEL 9
REMARK VINA RESULT:      -7.9      3.224      5.961
REMARK  6 active torsions:
REMARK  status: ('A' for Active; 'I' for Inactive)
REMARK    1  A    between atoms: N1_1  and  C1_2 
REMARK    2  A    between atoms: C1_2  and  C2_3 
REMARK    3  A    between atoms: C5_6  and  C6_7 
REMARK    4  A    between atoms: C6_7  and  C7_8 
REMARK    5  A    between atoms: C7_8  and  N2_9 
REMARK    6  A    between atoms: C13_16  and  N4_17 
ROOT
HETATM    1  N2  UNL     1      27.542   5.607  48.527  1.00  0.00    -0.358 N 
HETATM    2  C8  UNL     1      26.847   6.733  48.265  1.00  0.00     0.103 A 
HETATM    3  C9  UNL     1      25.582   6.422  48.617  1.00  0.00    -0.008 A 
HETATM    4  C10 UNL     1      25.595   5.119  49.068  1.00  0.00     0.040 A 
HETATM    5  C11 UNL     1      26.854   4.573  49.024  1.00  0.00     0.032 A 
HETATM    6  C12 UNL     1      26.594   3.225  49.580  1.00  0.00     0.208 C 
HETATM    7  N3  UNL     1      25.799   3.275  50.777  1.00  0.00    -0.271 NA
HETATM    8  C13 UNL     1      24.553   3.127  50.979  1.00  0.00     0.099 C 
HETATM    9  C14 UNL     1      23.096   2.925  51.023  1.00  0.00     0.087 C 
HETATM   10  C15 UNL     1      22.658   2.073  49.806  1.00  0.00     0.041 C 
HETATM   11  C16 UNL     1      22.069   3.109  48.912  1.00  0.00     0.169 C 
HETATM   12  O1  UNL     1      22.091   4.323  49.540  1.00  0.00    -0.383 OA
HETATM   13  C17 UNL     1      22.173   4.061  50.898  1.00  0.00     0.157 C 
HETATM   14  C18 UNL     1      22.295   5.225  51.792  1.00  0.00     0.208 C 
HETATM   15  O2  UNL     1      21.773   6.435  51.239  1.00  0.00    -0.349 OA
HETATM   16  C19 UNL     1      22.283   6.992  50.092  1.00  0.00     0.069 A 
HETATM   17  C20 UNL     1      21.817   7.850  49.129  1.00  0.00     0.037 A 
HETATM   18  C21 UNL     1      22.546   8.269  48.037  1.00  0.00     0.004 A 
HETATM   19  C22 UNL     1      23.840   7.891  47.746  1.00  0.00     0.012 A 
HETATM   20  C23 UNL     1      24.275   7.047  48.705  1.00  0.00    -0.022 A 
HETATM   21  C24 UNL     1      23.573   6.607  49.819  1.00  0.00     0.049 A 
ENDROOT
BRANCH   1  22
HETATM   22  C7  UNL     1      28.932   5.412  48.325  1.00  0.00     0.130 C 
BRANCH  22  23
HETATM   23  C6  UNL     1      29.719   6.694  48.207  1.00  0.00     0.055 C 
BRANCH  23  24
HETATM   24  C5  UNL     1      31.162   6.366  47.856  1.00  0.00     0.222 C 
HETATM   25  C4  UNL     1      32.032   6.321  49.092  1.00  0.00     0.038 C 
HETATM   26  C3  UNL     1      33.250   5.575  48.589  1.00  0.00     0.039 C 
HETATM   27  C2  UNL     1      32.702   4.734  47.460  1.00  0.00     0.248 C 
HETATM   28  N5  UNL     1      31.304   5.029  47.356  1.00  0.00     0.094 N 
HETATM   29  H33 UNL     1      31.012   4.949  46.358  1.00  0.00     0.316 HD
BRANCH  27  30
HETATM   30  C1  UNL     1      32.919   3.257  47.798  1.00  0.00     0.302 C 
BRANCH  30  31
HETATM   31  N1  UNL     1      34.285   3.047  48.260  1.00  0.00     0.080 N 
HETATM   32  H1  UNL     1      34.380   3.260  49.277  1.00  0.00     0.312 HD
HETATM   33  H2  UNL     1      34.655   2.091  48.002  1.00  0.00     0.312 HD
ENDBRANCH  30  31
ENDBRANCH  27  30
ENDBRANCH  23  24
ENDBRANCH  22  23
ENDBRANCH   1  22
BRANCH   8  34
HETATM   34  N4  UNL     1      25.060   3.380  52.318  1.00  0.00    -0.387 N 
HETATM   35  H19 UNL     1      25.420   3.581  53.278  1.00  0.00     0.157 HD
HETATM   36  H20 UNL     1      25.395   3.680  53.259  1.00  0.00     0.157 HD
ENDBRANCH   8  34
TORSDOF 6
ENDMDL
