MODEL 1
REMARK VINA RESULT:      -8.3      0.000      0.000
REMARK  8 active torsions:
REMARK  status: ('A' for Active; 'I' for Inactive)
REMARK    1  A    between atoms: C2_2  and  C3_3 
REMARK    2  A    between atoms: C3_3  and  C11_13 
REMARK    3  A    between atoms: C4_4  and  C5_5 
REMARK    4  A    between atoms: C6_6  and  O1_7 
REMARK    5  A    between atoms: O1_7  and  C7_8 
REMARK    6  A    between atoms: C15_19  and  O2_20 
REMARK    7  A    between atoms: C17_22  and  N4_23 
REMARK       I    between atoms: N4_23  and  C18_24 
REMARK    8  A    between atoms: C18_24  and  C19_26 
ROOT
HETATM    1  C11 UNL     1      24.115  -0.041  53.741  1.00  0.00     0.081 A 
HETATM    2  N2  UNL     1      24.833  -0.634  54.705  1.00  0.00    -0.240 NA
HETATM    3  C12 UNL     1      24.232  -1.430  55.645  1.00  0.00     0.234 A 
HETATM    4  N3  UNL     1      22.908  -1.577  55.544  1.00  0.00    -0.241 NA
HETATM    5  C13 UNL     1      22.213  -0.984  54.575  1.00  0.00     0.074 A 
HETATM    6  C14 UNL     1      20.852  -1.227  54.511  1.00  0.00     0.071 A 
HETATM    7  C15 UNL     1      20.105  -0.681  53.503  1.00  0.00     0.097 A 
HETATM    8  C17 UNL     1      20.763   0.109  52.569  1.00  0.00     0.075 A 
HETATM    9  C21 UNL     1      22.136   0.407  52.559  1.00  0.00    -0.018 A 
HETATM   10  C22 UNL     1      22.716   1.145  51.434  1.00  0.00     0.052 C 
HETATM   11  C23 UNL     1      22.776  -0.184  53.613  1.00  0.00     0.031 A 
ENDROOT
BRANCH   1  12
HETATM   12  C3  UNL     1      25.005   0.747  52.977  1.00  0.00    -0.010 C 
HETATM   13  C4  UNL     1      25.617   1.590  52.208  1.00  0.00     0.015 C 
BRANCH  12  14
HETATM   14  C2  UNL     1      26.173  -0.168  52.682  1.00  0.00     0.005 C 
HETATM   15  C1  UNL     1      26.413  -1.431  52.241  1.00  0.00     0.014 C 
ENDBRANCH  12  14
BRANCH  13  16
HETATM   16  C5  UNL     1      26.787   1.762  51.405  1.00  0.00     0.025 C 
HETATM   17  C6  UNL     1      26.591   2.855  50.692  1.00  0.00     0.136 C 
BRANCH  17  18
HETATM   18  O1  UNL     1      25.344   3.387  51.008  1.00  0.00    -0.349 OA
BRANCH  18  19
HETATM   19  C7  UNL     1      24.781   4.366  50.149  1.00  0.00     0.192 A 
HETATM   20  C8  UNL     1      25.823   5.112  49.388  1.00  0.00     0.030 A 
HETATM   21  C9  UNL     1      25.726   6.394  49.781  1.00  0.00     0.115 A 
HETATM   22  N1  UNL     1      24.683   6.515  50.749  1.00  0.00    -0.274 NA
HETATM   23  C10 UNL     1      24.132   5.396  50.978  1.00  0.00     0.125 A 
ENDBRANCH  18  19
ENDBRANCH  17  18
ENDBRANCH  13  16
ENDBRANCH   1  12
BRANCH   8  24
HETATM   24  N4  UNL     1      19.944   0.668  51.518  1.00  0.00    -0.324 N 
HETATM   25  C18 UNL     1      19.470   2.023  51.676  1.00  0.00     0.221 C 
HETATM   26  O3  UNL     1      19.658   2.832  52.614  1.00  0.00    -0.273 OA
HETATM   27  H16 UNL     1      19.678   0.163  50.665  1.00  0.00     0.169 HD
BRANCH  25  28
HETATM   28  C19 UNL     1      18.622   2.596  50.580  1.00  0.00     0.098 C 
HETATM   29  C20 UNL     1      19.216   2.166  49.255  1.00  0.00     0.014 C 
ENDBRANCH  25  28
ENDBRANCH   8  24
BRANCH   7  30
HETATM   30  O2  UNL     1      18.738  -0.885  53.388  1.00  0.00    -0.354 OA
HETATM   31  C16 UNL     1      18.198  -2.160  53.570  1.00  0.00     0.210 C 
ENDBRANCH   7  30
TORSDOF 8
ENDMDL
MODEL 2
REMARK VINA RESULT:      -7.8      2.669      5.890
REMARK  8 active torsions:
REMARK  status: ('A' for Active; 'I' for Inactive)
REMARK    1  A    between atoms: C2_2  and  C3_3 
REMARK    2  A    between atoms: C3_3  and  C11_13 
REMARK    3  A    between atoms: C4_4  and  C5_5 
REMARK    4  A    between atoms: C6_6  and  O1_7 
REMARK    5  A    between atoms: O1_7  and  C7_8 
REMARK    6  A    between atoms: C15_19  and  O2_20 
REMARK    7  A    between atoms: C17_22  and  N4_23 
REMARK       I    between atoms: N4_23  and  C18_24 
REMARK    8  A    between atoms: C18_24  and  C19_26 
ROOT
HETATM    1  C11 UNL     1      21.792   1.231  51.873  1.00  0.00     0.081 A 
HETATM    2  N2  UNL     1      20.991   0.217  51.514  1.00  0.00    -0.240 NA
HETATM    3  C12 UNL     1      19.839   0.443  50.807  1.00  0.00     0.234 A 
HETATM    4  N3  UNL     1      19.567   1.715  50.500  1.00  0.00    -0.241 NA
HETATM    5  C13 UNL     1      20.378   2.707  50.861  1.00  0.00     0.074 A 
HETATM    6  C14 UNL     1      20.048   3.991  50.462  1.00  0.00     0.071 A 
HETATM    7  C15 UNL     1      20.877   5.037  50.765  1.00  0.00     0.097 A 
HETATM    8  C17 UNL     1      22.038   4.754  51.474  1.00  0.00     0.075 A 
HETATM    9  C21 UNL     1      22.448   3.485  51.917  1.00  0.00    -0.018 A 
HETATM   10  C22 UNL     1      23.765   3.317  52.538  1.00  0.00     0.052 C 
HETATM   11  C23 UNL     1      21.541   2.524  51.565  1.00  0.00     0.031 A 
ENDROOT
BRANCH   1  12
HETATM   12  C3  UNL     1      22.851   0.683  52.631  1.00  0.00    -0.010 C 
HETATM   13  C4  UNL     1      23.942   0.180  53.113  1.00  0.00     0.015 C 
BRANCH  12  14
HETATM   14  C2  UNL     1      22.171  -0.032  53.778  1.00  0.00     0.005 C 
HETATM   15  C1  UNL     1      21.143   0.149  54.648  1.00  0.00     0.014 C 
ENDBRANCH  12  14
BRANCH  13  16
HETATM   16  C5  UNL     1      24.455  -0.644  54.162  1.00  0.00     0.025 C 
HETATM   17  C6  UNL     1      25.750  -0.402  54.226  1.00  0.00     0.136 C 
BRANCH  17  18
HETATM   18  O1  UNL     1      26.085   0.542  53.259  1.00  0.00    -0.349 OA
BRANCH  18  19
HETATM   19  C7  UNL     1      27.454   0.739  52.941  1.00  0.00     0.192 A 
HETATM   20  C8  UNL     1      28.360   0.074  53.920  1.00  0.00     0.030 A 
HETATM   21  C9  UNL     1      29.064   1.057  54.506  1.00  0.00     0.115 A 
HETATM   22  N1  UNL     1      28.665   2.315  53.961  1.00  0.00    -0.274 NA
HETATM   23  C10 UNL     1      27.763   2.173  53.080  1.00  0.00     0.125 A 
ENDBRANCH  18  19
ENDBRANCH  17  18
ENDBRANCH  13  16
ENDBRANCH   1  12
BRANCH   8  24
HETATM   24  N4  UNL     1      22.891   5.881  51.775  1.00  0.00    -0.324 N 
HETATM   25  C18 UNL     1      23.893   6.251  50.804  1.00  0.00     0.221 C 
HETATM   26  O3  UNL     1      24.159   5.737  49.693  1.00  0.00    -0.273 OA
HETATM   27  H16 UNL     1      22.830   6.435  52.637  1.00  0.00     0.169 HD
BRANCH  25  28
HETATM   28  C19 UNL     1      24.774   7.422  51.124  1.00  0.00     0.098 C 
HETATM   29  C20 UNL     1      25.867   7.485  50.077  1.00  0.00     0.014 C 
ENDBRANCH  25  28
ENDBRANCH   8  24
BRANCH   7  30
HETATM   30  O2  UNL     1      20.600   6.344  50.396  1.00  0.00    -0.354 OA
HETATM   31  C16 UNL     1      19.574   6.619  49.490  1.00  0.00     0.210 C 
ENDBRANCH   7  30
TORSDOF 8
ENDMDL
MODEL 3
REMARK VINA RESULT:      -7.8      2.676      4.555
REMARK  8 active torsions:
REMARK  status: ('A' for Active; 'I' for Inactive)
REMARK    1  A    between atoms: C2_2  and  C3_3 
REMARK    2  A    between atoms: C3_3  and  C11_13 
REMARK    3  A    between atoms: C4_4  and  C5_5 
REMARK    4  A    between atoms: C6_6  and  O1_7 
REMARK    5  A    between atoms: O1_7  and  C7_8 
REMARK    6  A    between atoms: C15_19  and  O2_20 
REMARK    7  A    between atoms: C17_22  and  N4_23 
REMARK       I    between atoms: N4_23  and  C18_24 
REMARK    8  A    between atoms: C18_24  and  C19_26 
ROOT
HETATM    1  C11 UNL     1      22.529   0.670  52.501  1.00  0.00     0.081 A 
HETATM    2  N2  UNL     1      22.584   0.132  53.728  1.00  0.00    -0.240 NA
HETATM    3  C12 UNL     1      21.460  -0.364  54.333  1.00  0.00     0.234 A 
HETATM    4  N3  UNL     1      20.322  -0.280  53.637  1.00  0.00    -0.241 NA
HETATM    5  C13 UNL     1      20.288   0.253  52.418  1.00  0.00     0.074 A 
HETATM    6  C14 UNL     1      19.079   0.257  51.745  1.00  0.00     0.071 A 
HETATM    7  C15 UNL     1      19.006   0.748  50.470  1.00  0.00     0.097 A 
HETATM    8  C17 UNL     1      20.176   1.229  49.897  1.00  0.00     0.075 A 
HETATM    9  C21 UNL     1      21.442   1.263  50.505  1.00  0.00    -0.018 A 
HETATM   10  C22 UNL     1      22.616   1.673  49.731  1.00  0.00     0.052 C 
HETATM   11  C23 UNL     1      21.391   0.756  51.775  1.00  0.00     0.031 A 
ENDROOT
BRANCH   1  12
HETATM   12  C3  UNL     1      23.826   1.136  52.186  1.00  0.00    -0.010 C 
HETATM   13  C4  UNL     1      25.070   1.324  51.881  1.00  0.00     0.015 C 
BRANCH  12  14
HETATM   14  C2  UNL     1      23.930   2.477  52.879  1.00  0.00     0.005 C 
HETATM   15  C1  UNL     1      23.372   3.715  52.827  1.00  0.00     0.014 C 
ENDBRANCH  12  14
BRANCH  13  16
HETATM   16  C5  UNL     1      26.155   2.242  52.024  1.00  0.00     0.025 C 
HETATM   17  C6  UNL     1      27.240   1.512  52.201  1.00  0.00     0.136 C 
BRANCH  17  18
HETATM   18  O1  UNL     1      26.890   0.165  52.176  1.00  0.00    -0.349 OA
BRANCH  18  19
HETATM   19  C7  UNL     1      27.282  -0.663  53.260  1.00  0.00     0.192 A 
HETATM   20  C8  UNL     1      28.731  -0.521  53.580  1.00  0.00     0.030 A 
HETATM   21  C9  UNL     1      29.282  -1.727  53.357  1.00  0.00     0.115 A 
HETATM   22  N1  UNL     1      28.273  -2.634  52.913  1.00  0.00    -0.274 NA
HETATM   23  C10 UNL     1      27.138  -2.069  52.847  1.00  0.00     0.125 A 
ENDBRANCH  18  19
ENDBRANCH  17  18
ENDBRANCH  13  16
ENDBRANCH   1  12
BRANCH   8  24
HETATM   24  N4  UNL     1      20.063   1.737  48.549  1.00  0.00    -0.324 N 
HETATM   25  C18 UNL     1      19.748   3.136  48.376  1.00  0.00     0.221 C 
HETATM   26  O3  UNL     1      19.548   4.023  49.239  1.00  0.00    -0.273 OA
HETATM   27  H16 UNL     1      20.193   1.167  47.705  1.00  0.00     0.169 HD
BRANCH  25  28
HETATM   28  C19 UNL     1      19.634   3.657  46.975  1.00  0.00     0.098 C 
HETATM   29  C20 UNL     1      21.024   3.694  46.375  1.00  0.00     0.014 C 
ENDBRANCH  25  28
ENDBRANCH   8  24
BRANCH   7  30
HETATM   30  O2  UNL     1      17.823   0.782  49.746  1.00  0.00    -0.354 OA
HETATM   31  C16 UNL     1      16.805  -0.134  50.016  1.00  0.00     0.210 C 
ENDBRANCH   7  30
TORSDOF 8
ENDMDL
MODEL 4
REMARK VINA RESULT:      -7.7      3.039      5.834
REMARK  8 active torsions:
REMARK  status: ('A' for Active; 'I' for Inactive)
REMARK    1  A    between atoms: C2_2  and  C3_3 
REMARK    2  A    between atoms: C3_3  and  C11_13 
REMARK    3  A    between atoms: C4_4  and  C5_5 
REMARK    4  A    between atoms: C6_6  and  O1_7 
REMARK    5  A    between atoms: O1_7  and  C7_8 
REMARK    6  A    between atoms: C15_19  and  O2_20 
REMARK    7  A    between atoms: C17_22  and  N4_23 
REMARK       I    between atoms: N4_23  and  C18_24 
REMARK    8  A    between atoms: C18_24  and  C19_26 
ROOT
HETATM    1  C11 UNL     1      23.846   3.189  51.440  1.00  0.00     0.081 A 
HETATM    2  N2  UNL     1      22.595   3.671  51.475  1.00  0.00    -0.240 NA
HETATM    3  C12 UNL     1      21.613   3.038  52.191  1.00  0.00     0.234 A 
HETATM    4  N3  UNL     1      21.973   1.928  52.843  1.00  0.00    -0.241 NA
HETATM    5  C13 UNL     1      23.221   1.468  52.801  1.00  0.00     0.074 A 
HETATM    6  C14 UNL     1      23.522   0.339  53.543  1.00  0.00     0.071 A 
HETATM    7  C15 UNL     1      24.803  -0.141  53.571  1.00  0.00     0.097 A 
HETATM    8  C17 UNL     1      25.764   0.543  52.837  1.00  0.00     0.075 A 
HETATM    9  C21 UNL     1      25.547   1.692  52.059  1.00  0.00    -0.018 A 
HETATM   10  C22 UNL     1      26.682   2.387  51.446  1.00  0.00     0.052 C 
HETATM   11  C23 UNL     1      24.233   2.073  52.100  1.00  0.00     0.031 A 
ENDROOT
BRANCH   1  12
HETATM   12  C3  UNL     1      24.595   4.024  50.581  1.00  0.00    -0.010 C 
HETATM   13  C4  UNL     1      25.286   4.942  49.985  1.00  0.00     0.015 C 
BRANCH  12  14
HETATM   14  C2  UNL     1      24.139   3.649  49.188  1.00  0.00     0.005 C 
HETATM   15  C1  UNL     1      23.288   2.784  48.575  1.00  0.00     0.014 C 
ENDBRANCH  12  14
BRANCH  13  16
HETATM   16  C5  UNL     1      25.595   5.487  48.700  1.00  0.00     0.025 C 
HETATM   17  C6  UNL     1      25.569   6.799  48.836  1.00  0.00     0.136 C 
BRANCH  17  18
HETATM   18  O1  UNL     1      25.256   7.114  50.155  1.00  0.00    -0.349 OA
BRANCH  18  19
HETATM   19  C7  UNL     1      24.328   8.157  50.408  1.00  0.00     0.192 A 
HETATM   20  C8  UNL     1      22.976   7.634  50.754  1.00  0.00     0.030 A 
HETATM   21  C9  UNL     1      22.150   8.065  49.786  1.00  0.00     0.115 A 
HETATM   22  N1  UNL     1      22.891   8.833  48.838  1.00  0.00    -0.274 NA
HETATM   23  C10 UNL     1      24.117   8.905  49.157  1.00  0.00     0.125 A 
ENDBRANCH  18  19
ENDBRANCH  17  18
ENDBRANCH  13  16
ENDBRANCH   1  12
BRANCH   8  24
HETATM   24  N4  UNL     1      27.106   0.010  52.891  1.00  0.00    -0.324 N 
HETATM   25  C18 UNL     1      27.945   0.397  54.001  1.00  0.00     0.221 C 
HETATM   26  O3  UNL     1      27.693   1.152  54.970  1.00  0.00    -0.273 OA
HETATM   27  H16 UNL     1      27.501  -0.627  52.190  1.00  0.00     0.169 HD
BRANCH  25  28
HETATM   28  C19 UNL     1      29.336  -0.161  54.050  1.00  0.00     0.098 C 
HETATM   29  C20 UNL     1      29.316  -1.525  53.391  1.00  0.00     0.014 C 
ENDBRANCH  25  28
ENDBRANCH   8  24
BRANCH   7  30
HETATM   30  O2  UNL     1      25.166  -1.268  54.293  1.00  0.00    -0.354 OA
HETATM   31  C16 UNL     1      24.972  -1.312  55.675  1.00  0.00     0.210 C 
ENDBRANCH   7  30
TORSDOF 8
ENDMDL
MODEL 5
REMARK VINA RESULT:      -7.6      2.710      5.458
REMARK  8 active torsions:
REMARK  status: ('A' for Active; 'I' for Inactive)
REMARK    1  A    between atoms: C2_2  and  C3_3 
REMARK    2  A    between atoms: C3_3  and  C11_13 
REMARK    3  A    between atoms: C4_4  and  C5_5 
REMARK    4  A    between atoms: C6_6  and  O1_7 
REMARK    5  A    between atoms: O1_7  and  C7_8 
REMARK    6  A    between atoms: C15_19  and  O2_20 
REMARK    7  A    between atoms: C17_22  and  N4_23 
REMARK       I    between atoms: N4_23  and  C18_24 
REMARK    8  A    between atoms: C18_24  and  C19_26 
ROOT
HETATM    1  C11 UNL     1      22.196   2.632  51.344  1.00  0.00     0.081 A 
HETATM    2  N2  UNL     1      20.872   2.780  51.498  1.00  0.00    -0.240 NA
HETATM    3  C12 UNL     1      20.169   1.987  52.367  1.00  0.00     0.234 A 
HETATM    4  N3  UNL     1      20.873   1.072  53.042  1.00  0.00    -0.241 NA
HETATM    5  C13 UNL     1      22.188   0.945  52.878  1.00  0.00     0.074 A 
HETATM    6  C14 UNL     1      22.849   0.005  53.650  1.00  0.00     0.071 A 
HETATM    7  C15 UNL     1      24.208  -0.127  53.554  1.00  0.00     0.097 A 
HETATM    8  C17 UNL     1      24.875   0.708  52.667  1.00  0.00     0.075 A 
HETATM    9  C21 UNL     1      24.285   1.685  51.847  1.00  0.00    -0.018 A 
HETATM   10  C22 UNL     1      25.129   2.585  51.058  1.00  0.00     0.052 C 
HETATM   11  C23 UNL     1      22.928   1.720  52.023  1.00  0.00     0.031 A 
ENDROOT
BRANCH   1  12
HETATM   12  C3  UNL     1      22.608   3.545  50.347  1.00  0.00    -0.010 C 
HETATM   13  C4  UNL     1      22.966   4.550  49.613  1.00  0.00     0.015 C 
BRANCH  12  14
HETATM   14  C2  UNL     1      22.139   2.932  49.046  1.00  0.00     0.005 C 
HETATM   15  C1  UNL     1      22.063   1.716  48.443  1.00  0.00     0.014 C 
ENDBRANCH  12  14
BRANCH  13  16
HETATM   16  C5  UNL     1      22.994   5.029  48.267  1.00  0.00     0.025 C 
HETATM   17  C6  UNL     1      23.934   5.953  48.220  1.00  0.00     0.136 C 
BRANCH  17  18
HETATM   18  O1  UNL     1      24.508   6.083  49.482  1.00  0.00    -0.349 OA
BRANCH  18  19
HETATM   19  C7  UNL     1      25.855   6.516  49.578  1.00  0.00     0.192 A 
HETATM   20  C8  UNL     1      25.984   7.789  50.342  1.00  0.00     0.030 A 
HETATM   21  C9  UNL     1      26.476   8.694  49.479  1.00  0.00     0.115 A 
HETATM   22  N1  UNL     1      26.672   8.078  48.207  1.00  0.00    -0.274 NA
HETATM   23  C10 UNL     1      26.334   6.855  48.227  1.00  0.00     0.125 A 
ENDBRANCH  18  19
ENDBRANCH  17  18
ENDBRANCH  13  16
ENDBRANCH   1  12
BRANCH   8  24
HETATM   24  N4  UNL     1      26.309   0.543  52.592  1.00  0.00    -0.324 N 
HETATM   25  C18 UNL     1      27.129   1.324  53.488  1.00  0.00     0.221 C 
HETATM   26  O3  UNL     1      26.790   2.159  54.359  1.00  0.00    -0.273 OA
HETATM   27  H16 UNL     1      26.782  -0.095  51.942  1.00  0.00     0.169 HD
BRANCH  25  28
HETATM   28  C19 UNL     1      28.615   1.147  53.405  1.00  0.00     0.098 C 
HETATM   29  C20 UNL     1      28.915  -0.335  53.502  1.00  0.00     0.014 C 
ENDBRANCH  25  28
ENDBRANCH   8  24
BRANCH   7  30
HETATM   30  O2  UNL     1      24.926  -1.051  54.299  1.00  0.00    -0.354 OA
HETATM   31  C16 UNL     1      24.724  -1.155  55.676  1.00  0.00     0.210 C 
ENDBRANCH   7  30
TORSDOF 8
ENDMDL
MODEL 6
REMARK VINA RESULT:      -7.4      2.977      6.718
REMARK  8 active torsions:
REMARK  status: ('A' for Active; 'I' for Inactive)
REMARK    1  A    between atoms: C2_2  and  C3_3 
REMARK    2  A    between atoms: C3_3  and  C11_13 
REMARK    3  A    between atoms: C4_4  and  C5_5 
REMARK    4  A    between atoms: C6_6  and  O1_7 
REMARK    5  A    between atoms: O1_7  and  C7_8 
REMARK    6  A    between atoms: C15_19  and  O2_20 
REMARK    7  A    between atoms: C17_22  and  N4_23 
REMARK       I    between atoms: N4_23  and  C18_24 
REMARK    8  A    between atoms: C18_24  and  C19_26 
ROOT
HETATM    1  C11 UNL     1      21.870   2.754  51.884  1.00  0.00     0.081 A 
HETATM    2  N2  UNL     1      20.656   2.599  52.429  1.00  0.00    -0.240 NA
HETATM    3  C12 UNL     1      19.620   3.432  52.097  1.00  0.00     0.234 A 
HETATM    4  N3  UNL     1      19.890   4.394  51.208  1.00  0.00    -0.241 NA
HETATM    5  C13 UNL     1      21.102   4.528  50.673  1.00  0.00     0.074 A 
HETATM    6  C14 UNL     1      21.285   5.519  49.724  1.00  0.00     0.071 A 
HETATM    7  C15 UNL     1      22.499   5.662  49.110  1.00  0.00     0.097 A 
HETATM    8  C17 UNL     1      23.513   4.785  49.474  1.00  0.00     0.075 A 
HETATM    9  C21 UNL     1      23.415   3.755  50.424  1.00  0.00    -0.018 A 
HETATM   10  C22 UNL     1      24.527   2.821  50.609  1.00  0.00     0.052 C 
HETATM   11  C23 UNL     1      22.163   3.714  50.976  1.00  0.00     0.031 A 
ENDROOT
BRANCH   1  12
HETATM   12  C3  UNL     1      22.721   1.790  52.469  1.00  0.00    -0.010 C 
HETATM   13  C4  UNL     1      23.674   1.080  52.984  1.00  0.00     0.015 C 
BRANCH  12  14
HETATM   14  C2  UNL     1      22.124   0.458  52.070  1.00  0.00     0.005 C 
HETATM   15  C1  UNL     1      21.291  -0.064  51.131  1.00  0.00     0.014 C 
ENDBRANCH  12  14
BRANCH  13  16
HETATM   16  C5  UNL     1      24.120  -0.264  53.180  1.00  0.00     0.025 C 
HETATM   17  C6  UNL     1      25.407  -0.192  53.460  1.00  0.00     0.136 C 
BRANCH  17  18
HETATM   18  O1  UNL     1      25.801   1.143  53.451  1.00  0.00    -0.349 OA
BRANCH  18  19
HETATM   19  C7  UNL     1      26.928   1.529  54.221  1.00  0.00     0.192 A 
HETATM   20  C8  UNL     1      28.055   2.003  53.368  1.00  0.00     0.030 A 
HETATM   21  C9  UNL     1      29.068   1.145  53.577  1.00  0.00     0.115 A 
HETATM   22  N1  UNL     1      28.659   0.148  54.513  1.00  0.00    -0.274 NA
HETATM   23  C10 UNL     1      27.463   0.334  54.895  1.00  0.00     0.125 A 
ENDBRANCH  18  19
ENDBRANCH  17  18
ENDBRANCH  13  16
ENDBRANCH   1  12
BRANCH   8  24
HETATM   24  N4  UNL     1      24.781   4.964  48.804  1.00  0.00    -0.324 N 
HETATM   25  C18 UNL     1      25.702   5.936  49.343  1.00  0.00     0.221 C 
HETATM   26  O3  UNL     1      25.581   6.685  50.341  1.00  0.00    -0.273 OA
HETATM   27  H16 UNL     1      25.069   4.442  47.967  1.00  0.00     0.169 HD
BRANCH  25  28
HETATM   28  C19 UNL     1      27.016   6.115  48.643  1.00  0.00     0.098 C 
HETATM   29  C20 UNL     1      27.755   4.794  48.691  1.00  0.00     0.014 C 
ENDBRANCH  25  28
ENDBRANCH   8  24
BRANCH   7  30
HETATM   30  O2  UNL     1      22.745   6.637  48.154  1.00  0.00    -0.354 OA
HETATM   31  C16 UNL     1      22.728   7.988  48.505  1.00  0.00     0.210 C 
ENDBRANCH   7  30
TORSDOF 8
ENDMDL
MODEL 7
REMARK VINA RESULT:      -7.3      3.351      7.143
REMARK  8 active torsions:
REMARK  status: ('A' for Active; 'I' for Inactive)
REMARK    1  A    between atoms: C2_2  and  C3_3 
REMARK    2  A    between atoms: C3_3  and  C11_13 
REMARK    3  A    between atoms: C4_4  and  C5_5 
REMARK    4  A    between atoms: C6_6  and  O1_7 
REMARK    5  A    between atoms: O1_7  and  C7_8 
REMARK    6  A    between atoms: C15_19  and  O2_20 
REMARK    7  A    between atoms: C17_22  and  N4_23 
REMARK       I    between atoms: N4_23  and  C18_24 
REMARK    8  A    between atoms: C18_24  and  C19_26 
ROOT
HETATM    1  C11 UNL     1      22.908   2.205  49.993  1.00  0.00     0.081 A 
HETATM    2  N2  UNL     1      21.945   1.330  49.667  1.00  0.00    -0.240 NA
HETATM    3  C12 UNL     1      21.080   1.583  48.636  1.00  0.00     0.234 A 
HETATM    4  N3  UNL     1      21.250   2.737  47.983  1.00  0.00    -0.241 NA
HETATM    5  C13 UNL     1      22.216   3.590  48.317  1.00  0.00     0.074 A 
HETATM    6  C14 UNL     1      22.356   4.740  47.560  1.00  0.00     0.071 A 
HETATM    7  C15 UNL     1      23.365   5.622  47.834  1.00  0.00     0.097 A 
HETATM    8  C17 UNL     1      24.223   5.315  48.882  1.00  0.00     0.075 A 
HETATM    9  C21 UNL     1      24.153   4.175  49.700  1.00  0.00    -0.018 A 
HETATM   10  C22 UNL     1      25.208   3.914  50.683  1.00  0.00     0.052 C 
HETATM   11  C23 UNL     1      23.104   3.374  49.339  1.00  0.00     0.031 A 
ENDROOT
BRANCH   1  12
HETATM   12  C3  UNL     1      23.584   1.688  51.120  1.00  0.00    -0.010 C 
HETATM   13  C4  UNL     1      24.331   1.083  51.988  1.00  0.00     0.015 C 
BRANCH  12  14
HETATM   14  C2  UNL     1      22.583   1.790  52.249  1.00  0.00     0.005 C 
HETATM   15  C1  UNL     1      21.494   2.522  52.604  1.00  0.00     0.014 C 
ENDBRANCH  12  14
BRANCH  13  16
HETATM   16  C5  UNL     1      24.375   0.641  53.346  1.00  0.00     0.025 C 
HETATM   17  C6  UNL     1      25.646   0.648  53.699  1.00  0.00     0.136 C 
BRANCH  17  18
HETATM   18  O1  UNL     1      26.415   1.076  52.621  1.00  0.00    -0.349 OA
BRANCH  18  19
HETATM   19  C7  UNL     1      27.828   1.068  52.743  1.00  0.00     0.192 A 
HETATM   20  C8  UNL     1      28.312  -0.056  53.594  1.00  0.00     0.030 A 
HETATM   21  C9  UNL     1      28.911   0.510  54.656  1.00  0.00     0.115 A 
HETATM   22  N1  UNL     1      28.840   1.931  54.538  1.00  0.00    -0.274 NA
HETATM   23  C10 UNL     1      28.239   2.278  53.475  1.00  0.00     0.125 A 
ENDBRANCH  18  19
ENDBRANCH  17  18
ENDBRANCH  13  16
ENDBRANCH   1  12
BRANCH   8  24
HETATM   24  N4  UNL     1      25.278   6.267  49.142  1.00  0.00    -0.324 N 
HETATM   25  C18 UNL     1      25.012   7.336  50.076  1.00  0.00     0.221 C 
HETATM   26  O3  UNL     1      23.972   7.587  50.729  1.00  0.00    -0.273 OA
HETATM   27  H16 UNL     1      26.206   6.232  48.704  1.00  0.00     0.169 HD
BRANCH  25  28
HETATM   28  C19 UNL     1      26.112   8.319  50.342  1.00  0.00     0.098 C 
HETATM   29  C20 UNL     1      25.945   9.479  49.382  1.00  0.00     0.014 C 
ENDBRANCH  25  28
ENDBRANCH   8  24
BRANCH   7  30
HETATM   30  O2  UNL     1      23.555   6.792  47.112  1.00  0.00    -0.354 OA
HETATM   31  C16 UNL     1      22.631   7.834  47.204  1.00  0.00     0.210 C 
ENDBRANCH   7  30
TORSDOF 8
ENDMDL
MODEL 8
REMARK VINA RESULT:      -7.2      4.246     10.393
REMARK  8 active torsions:
REMARK  status: ('A' for Active; 'I' for Inactive)
REMARK    1  A    between atoms: C2_2  and  C3_3 
REMARK    2  A    between atoms: C3_3  and  C11_13 
REMARK    3  A    between atoms: C4_4  and  C5_5 
REMARK    4  A    between atoms: C6_6  and  O1_7 
REMARK    5  A    between atoms: O1_7  and  C7_8 
REMARK    6  A    between atoms: C15_19  and  O2_20 
REMARK    7  A    between atoms: C17_22  and  N4_23 
REMARK       I    between atoms: N4_23  and  C18_24 
REMARK    8  A    between atoms: C18_24  and  C19_26 
ROOT
HETATM    1  C11 UNL     1      26.177   6.942  49.522  1.00  0.00     0.081 A 
HETATM    2  N2  UNL     1      25.292   7.874  49.904  1.00  0.00    -0.240 NA
HETATM    3  C12 UNL     1      25.560   9.209  49.749  1.00  0.00     0.234 A 
HETATM    4  N3  UNL     1      26.739   9.521  49.202  1.00  0.00    -0.241 NA
HETATM    5  C13 UNL     1      27.602   8.580  48.824  1.00  0.00     0.074 A 
HETATM    6  C14 UNL     1      28.781   8.987  48.221  1.00  0.00     0.071 A 
HETATM    7  C15 UNL     1      29.676   8.055  47.770  1.00  0.00     0.097 A 
HETATM    8  C17 UNL     1      29.352   6.715  47.940  1.00  0.00     0.075 A 
HETATM    9  C21 UNL     1      28.183   6.216  48.539  1.00  0.00    -0.018 A 
HETATM   10  C22 UNL     1      27.913   4.777  48.530  1.00  0.00     0.052 C 
HETATM   11  C23 UNL     1      27.371   7.235  48.957  1.00  0.00     0.031 A 
ENDROOT
BRANCH   1  12
HETATM   12  C3  UNL     1      25.637   5.682  49.864  1.00  0.00    -0.010 C 
HETATM   13  C4  UNL     1      25.376   4.465  50.219  1.00  0.00     0.015 C 
BRANCH  12  14
HETATM   14  C2  UNL     1      24.357   5.583  49.063  1.00  0.00     0.005 C 
HETATM   15  C1  UNL     1      23.823   6.046  47.903  1.00  0.00     0.014 C 
ENDBRANCH  12  14
BRANCH  13  16
HETATM   16  C5  UNL     1      24.433   3.404  50.055  1.00  0.00     0.025 C 
HETATM   17  C6  UNL     1      24.842   2.419  50.831  1.00  0.00     0.136 C 
BRANCH  17  18
HETATM   18  O1  UNL     1      26.008   2.808  51.484  1.00  0.00    -0.349 OA
BRANCH  18  19
HETATM   19  C7  UNL     1      26.830   1.810  52.068  1.00  0.00     0.192 A 
HETATM   20  C8  UNL     1      26.082   0.546  52.327  1.00  0.00     0.030 A 
HETATM   21  C9  UNL     1      26.100   0.368  53.658  1.00  0.00     0.115 A 
HETATM   22  N1  UNL     1      26.815   1.441  54.271  1.00  0.00    -0.274 NA
HETATM   23  C10 UNL     1      27.239   2.268  53.407  1.00  0.00     0.125 A 
ENDBRANCH  18  19
ENDBRANCH  17  18
ENDBRANCH  13  16
ENDBRANCH   1  12
BRANCH   8  24
HETATM   24  N4  UNL     1      30.318   5.759  47.450  1.00  0.00    -0.324 N 
HETATM   25  C18 UNL     1      31.347   5.308  48.359  1.00  0.00     0.221 C 
HETATM   26  O3  UNL     1      31.550   5.620  49.555  1.00  0.00    -0.273 OA
HETATM   27  H16 UNL     1      30.320   5.379  46.496  1.00  0.00     0.169 HD
BRANCH  25  28
HETATM   28  C19 UNL     1      32.345   4.315  47.843  1.00  0.00     0.098 C 
HETATM   29  C20 UNL     1      31.703   3.558  46.698  1.00  0.00     0.014 C 
ENDBRANCH  25  28
ENDBRANCH   8  24
BRANCH   7  30
HETATM   30  O2  UNL     1      30.873   8.399  47.161  1.00  0.00    -0.354 OA
HETATM   31  C16 UNL     1      31.605   9.498  47.616  1.00  0.00     0.210 C 
ENDBRANCH   7  30
TORSDOF 8
ENDMDL
MODEL 9
REMARK VINA RESULT:      -7.2      2.667      4.489
REMARK  8 active torsions:
REMARK  status: ('A' for Active; 'I' for Inactive)
REMARK    1  A    between atoms: C2_2  and  C3_3 
REMARK    2  A    between atoms: C3_3  and  C11_13 
REMARK    3  A    between atoms: C4_4  and  C5_5 
REMARK    4  A    between atoms: C6_6  and  O1_7 
REMARK    5  A    between atoms: O1_7  and  C7_8 
REMARK    6  A    between atoms: C15_19  and  O2_20 
REMARK    7  A    between atoms: C17_22  and  N4_23 
REMARK       I    between atoms: N4_23  and  C18_24 
REMARK    8  A    between atoms: C18_24  and  C19_26 
ROOT
HETATM    1  C11 UNL     1      25.023   2.578  51.036  1.00  0.00     0.081 A 
HETATM    2  N2  UNL     1      26.313   2.858  51.266  1.00  0.00    -0.240 NA
HETATM    3  C12 UNL     1      27.032   2.162  52.202  1.00  0.00     0.234 A 
HETATM    4  N3  UNL     1      26.377   1.201  52.862  1.00  0.00    -0.241 NA
HETATM    5  C13 UNL     1      25.097   0.934  52.615  1.00  0.00     0.074 A 
HETATM    6  C14 UNL     1      24.507  -0.109  53.308  1.00  0.00     0.071 A 
HETATM    7  C15 UNL     1      23.207  -0.453  53.051  1.00  0.00     0.097 A 
HETATM    8  C17 UNL     1      22.526   0.276  52.085  1.00  0.00     0.075 A 
HETATM    9  C21 UNL     1      23.046   1.347  51.338  1.00  0.00    -0.018 A 
HETATM   10  C22 UNL     1      22.254   1.936  50.256  1.00  0.00     0.052 C 
HETATM   11  C23 UNL     1      24.344   1.604  51.685  1.00  0.00     0.031 A 
ENDROOT
BRANCH   1  12
HETATM   12  C3  UNL     1      24.557   3.499  50.070  1.00  0.00    -0.010 C 
HETATM   13  C4  UNL     1      24.261   4.205  49.026  1.00  0.00     0.015 C 
BRANCH  12  14
HETATM   14  C2  UNL     1      24.329   4.781  50.840  1.00  0.00     0.005 C 
HETATM   15  C1  UNL     1      23.776   5.203  52.007  1.00  0.00     0.014 C 
ENDBRANCH  12  14
BRANCH  13  16
HETATM   16  C5  UNL     1      23.887   5.519  48.604  1.00  0.00     0.025 C 
HETATM   17  C6  UNL     1      22.924   5.364  47.716  1.00  0.00     0.136 C 
BRANCH  17  18
HETATM   18  O1  UNL     1      22.668   4.006  47.554  1.00  0.00    -0.349 OA
BRANCH  18  19
HETATM   19  C7  UNL     1      21.859   3.588  46.466  1.00  0.00     0.192 A 
HETATM   20  C8  UNL     1      21.597   4.695  45.503  1.00  0.00     0.030 A 
HETATM   21  C9  UNL     1      20.268   4.897  45.520  1.00  0.00     0.115 A 
HETATM   22  N1  UNL     1      19.662   3.984  46.435  1.00  0.00    -0.274 NA
HETATM   23  C10 UNL     1      20.526   3.235  46.983  1.00  0.00     0.125 A 
ENDBRANCH  18  19
ENDBRANCH  17  18
ENDBRANCH  13  16
ENDBRANCH   1  12
BRANCH   8  24
HETATM   24  N4  UNL     1      21.157  -0.115  51.838  1.00  0.00    -0.324 N 
HETATM   25  C18 UNL     1      20.117   0.546  52.590  1.00  0.00     0.221 C 
HETATM   26  O3  UNL     1      20.206   1.445  53.459  1.00  0.00    -0.273 OA
HETATM   27  H16 UNL     1      20.877  -0.836  51.162  1.00  0.00     0.169 HD
BRANCH  25  28
HETATM   28  C19 UNL     1      18.699   0.135  52.327  1.00  0.00     0.098 C 
HETATM   29  C20 UNL     1      18.435   0.286  50.843  1.00  0.00     0.014 C 
ENDBRANCH  25  28
ENDBRANCH   8  24
BRANCH   7  30
HETATM   30  O2  UNL     1      22.561  -1.486  53.713  1.00  0.00    -0.354 OA
HETATM   31  C16 UNL     1      22.193  -1.344  55.053  1.00  0.00     0.210 C 
ENDBRANCH   7  30
TORSDOF 8
ENDMDL
