MODEL 1
REMARK VINA RESULT:      -8.1      0.000      0.000
REMARK  1 active torsions:
REMARK  status: ('A' for Active; 'I' for Inactive)
REMARK    1  A    between atoms: O1_2  and  C2_3 
ROOT
HETATM    1  C2  UNL     1      21.579   0.317  53.566  1.00  0.00     0.378 A 
HETATM    2  N1  UNL     1      22.626  -0.581  54.082  1.00  0.00     0.094 N 
HETATM    3  C3  UNL     1      22.301  -1.550  54.760  1.00  0.00     0.372 A 
HETATM    4  N2  UNL     1      23.348  -0.781  54.165  1.00  0.00    -0.042 NA
HETATM    5  C4  UNL     1      23.195   0.243  53.462  1.00  0.00     0.301 A 
HETATM    6  N3  UNL     1      24.577   0.466  53.245  1.00  0.00    -0.373 N 
HETATM    7  C5  UNL     1      25.778   0.184  52.528  1.00  0.00     0.145 C 
HETATM    8  C6  UNL     1      26.881   1.054  53.123  1.00  0.00    -0.011 C 
HETATM    9  C7  UNL     1      27.090   2.106  52.297  1.00  0.00    -0.023 C 
HETATM   10  C8  UNL     1      26.799   2.868  51.092  1.00  0.00     0.020 C 
HETATM   11  C9  UNL     1      26.084   2.997  49.958  1.00  0.00    -0.002 C 
HETATM   12  C10 UNL     1      26.494   4.253  49.253  1.00  0.00     0.006 C 
HETATM   13  C11 UNL     1      25.186   5.100  49.157  1.00  0.00     0.004 C 
HETATM   14  C12 UNL     1      24.723   5.249  50.607  1.00  0.00     0.029 C 
HETATM   15  C13 UNL     1      23.419   5.896  50.751  1.00  0.00    -0.003 C 
HETATM   16  C14 UNL     1      22.241   5.453  51.248  1.00  0.00     0.130 C 
HETATM   17  O2  UNL     1      21.573   4.345  51.836  1.00  0.00    -0.363 OA
HETATM   18  C15 UNL     1      21.899   3.051  51.352  1.00  0.00     0.180 C 
HETATM   19  C16 UNL     1      21.442   2.000  52.252  1.00  0.00     0.080 C 
HETATM   20  C17 UNL     1      22.367   1.276  52.728  1.00  0.00     0.077 A 
HETATM   21  H6  UNL     1      24.725   1.239  53.988  1.00  0.00     0.157 HD
ENDROOT
BRANCH   1  22
HETATM   22  O1  UNL     1      20.671  -0.364  52.797  1.00  0.00    -0.361 OA
HETATM   23  C1  UNL     1      19.428  -0.504  53.407  1.00  0.00     0.204 C 
ENDBRANCH   1  22
TORSDOF 1
ENDMDL
MODEL 2
REMARK VINA RESULT:      -7.9      2.457      6.022
REMARK  1 active torsions:
REMARK  status: ('A' for Active; 'I' for Inactive)
REMARK    1  A    between atoms: O1_2  and  C2_3 
ROOT
HETATM    1  C2  UNL     1      25.124   4.418  49.100  1.00  0.00     0.378 A 
HETATM    2  N1  UNL     1      26.530   4.083  49.384  1.00  0.00     0.094 N 
HETATM    3  C3  UNL     1      27.420   4.747  48.863  1.00  0.00     0.372 A 
HETATM    4  N2  UNL     1      27.058   3.663  49.719  1.00  0.00    -0.042 NA
HETATM    5  C4  UNL     1      25.891   3.318  50.011  1.00  0.00     0.301 A 
HETATM    6  N3  UNL     1      26.272   2.232  50.836  1.00  0.00    -0.373 N 
HETATM    7  C5  UNL     1      26.709   1.730  52.099  1.00  0.00     0.145 C 
HETATM    8  C6  UNL     1      26.861   0.219  51.963  1.00  0.00    -0.011 C 
HETATM    9  C7  UNL     1      25.784  -0.373  52.534  1.00  0.00    -0.023 C 
HETATM   10  C8  UNL     1      24.511  -0.315  53.234  1.00  0.00     0.020 C 
HETATM   11  C9  UNL     1      23.542   0.431  53.800  1.00  0.00    -0.002 C 
HETATM   12  C10 UNL     1      22.466  -0.469  54.324  1.00  0.00     0.006 C 
HETATM   13  C11 UNL     1      21.174  -0.026  53.568  1.00  0.00     0.004 C 
HETATM   14  C12 UNL     1      21.530  -0.176  52.089  1.00  0.00     0.029 C 
HETATM   15  C13 UNL     1      20.502   0.324  51.176  1.00  0.00    -0.003 C 
HETATM   16  C14 UNL     1      20.513   1.326  50.266  1.00  0.00     0.130 C 
HETATM   17  O2  UNL     1      21.302   2.350  49.678  1.00  0.00    -0.363 OA
HETATM   18  C15 UNL     1      22.192   3.062  50.526  1.00  0.00     0.180 C 
HETATM   19  C16 UNL     1      23.185   3.813  49.770  1.00  0.00     0.080 C 
HETATM   20  C17 UNL     1      24.384   3.468  49.990  1.00  0.00     0.077 A 
HETATM   21  H6  UNL     1      26.117   1.435  50.121  1.00  0.00     0.157 HD
ENDROOT
BRANCH   1  22
HETATM   22  O1  UNL     1      24.842   5.716  49.438  1.00  0.00    -0.361 OA
HETATM   23  C1  UNL     1      24.555   6.521  48.340  1.00  0.00     0.204 C 
ENDBRANCH   1  22
TORSDOF 1
ENDMDL
MODEL 3
REMARK VINA RESULT:      -7.9      2.569      5.182
REMARK  1 active torsions:
REMARK  status: ('A' for Active; 'I' for Inactive)
REMARK    1  A    between atoms: O1_2  and  C2_3 
ROOT
HETATM    1  C2  UNL     1      26.632   1.276  53.658  1.00  0.00     0.378 A 
HETATM    2  N1  UNL     1      27.590   2.149  52.960  1.00  0.00     0.094 N 
HETATM    3  C3  UNL     1      28.737   2.240  53.387  1.00  0.00     0.372 A 
HETATM    4  N2  UNL     1      27.770   2.636  52.413  1.00  0.00    -0.042 NA
HETATM    5  C4  UNL     1      26.587   2.229  52.347  1.00  0.00     0.301 A 
HETATM    6  N3  UNL     1      26.239   3.008  51.217  1.00  0.00    -0.373 N 
HETATM    7  C5  UNL     1      26.225   3.200  49.803  1.00  0.00     0.145 C 
HETATM    8  C6  UNL     1      25.526   4.528  49.529  1.00  0.00    -0.011 C 
HETATM    9  C7  UNL     1      24.261   4.270  49.119  1.00  0.00    -0.023 C 
HETATM   10  C8  UNL     1      23.181   3.351  48.794  1.00  0.00     0.020 C 
HETATM   11  C9  UNL     1      22.745   2.081  48.683  1.00  0.00    -0.002 C 
HETATM   12  C10 UNL     1      21.315   2.084  48.243  1.00  0.00     0.006 C 
HETATM   13  C11 UNL     1      20.546   1.341  49.381  1.00  0.00     0.004 C 
HETATM   14  C12 UNL     1      20.876   2.138  50.644  1.00  0.00     0.029 C 
HETATM   15  C13 UNL     1      20.371   1.533  51.876  1.00  0.00    -0.003 C 
HETATM   16  C14 UNL     1      21.005   1.046  52.969  1.00  0.00     0.130 C 
HETATM   17  O2  UNL     1      22.272   0.821  53.570  1.00  0.00    -0.363 OA
HETATM   18  C15 UNL     1      23.337   0.412  52.724  1.00  0.00     0.180 C 
HETATM   19  C16 UNL     1      24.635   0.564  53.366  1.00  0.00     0.080 C 
HETATM   20  C17 UNL     1      25.422   1.364  52.779  1.00  0.00     0.077 A 
HETATM   21  H6  UNL     1      25.726   3.808  51.735  1.00  0.00     0.157 HD
ENDROOT
BRANCH   1  22
HETATM   22  O1  UNL     1      27.088  -0.015  53.723  1.00  0.00    -0.361 OA
HETATM   23  C1  UNL     1      27.800  -0.289  54.887  1.00  0.00     0.204 C 
ENDBRANCH   1  22
TORSDOF 1
ENDMDL
MODEL 4
REMARK VINA RESULT:      -7.9      2.647      6.069
REMARK  1 active torsions:
REMARK  status: ('A' for Active; 'I' for Inactive)
REMARK    1  A    between atoms: O1_2  and  C2_3 
ROOT
HETATM    1  C2  UNL     1      27.090   0.665  53.867  1.00  0.00     0.378 A 
HETATM    2  N1  UNL     1      27.489   1.995  53.376  1.00  0.00     0.094 N 
HETATM    3  C3  UNL     1      28.669   2.325  53.433  1.00  0.00     0.372 A 
HETATM    4  N2  UNL     1      27.329   2.667  53.075  1.00  0.00    -0.042 NA
HETATM    5  C4  UNL     1      26.327   1.926  53.193  1.00  0.00     0.301 A 
HETATM    6  N3  UNL     1      25.400   2.870  52.686  1.00  0.00    -0.373 N 
HETATM    7  C5  UNL     1      24.765   3.509  51.579  1.00  0.00     0.145 C 
HETATM    8  C6  UNL     1      23.778   4.526  52.143  1.00  0.00    -0.011 C 
HETATM    9  C7  UNL     1      22.531   4.002  52.063  1.00  0.00    -0.023 C 
HETATM   10  C8  UNL     1      21.609   2.936  51.705  1.00  0.00     0.020 C 
HETATM   11  C9  UNL     1      21.416   1.709  51.182  1.00  0.00    -0.002 C 
HETATM   12  C10 UNL     1      19.960   1.369  51.240  1.00  0.00     0.006 C 
HETATM   13  C11 UNL     1      19.889   0.070  52.104  1.00  0.00     0.004 C 
HETATM   14  C12 UNL     1      20.554   0.457  53.425  1.00  0.00     0.029 C 
HETATM   15  C13 UNL     1      20.731  -0.661  54.351  1.00  0.00    -0.003 C 
HETATM   16  C14 UNL     1      21.840  -1.237  54.870  1.00  0.00     0.130 C 
HETATM   17  O2  UNL     1      23.260  -1.202  54.899  1.00  0.00    -0.363 OA
HETATM   18  C15 UNL     1      23.934  -0.910  53.684  1.00  0.00     0.180 C 
HETATM   19  C16 UNL     1      25.327  -0.547  53.905  1.00  0.00     0.080 C 
HETATM   20  C17 UNL     1      25.633   0.623  53.526  1.00  0.00     0.077 A 
HETATM   21  H6  UNL     1      25.007   3.221  53.631  1.00  0.00     0.157 HD
ENDROOT
BRANCH   1  22
HETATM   22  O1  UNL     1      27.768  -0.332  53.216  1.00  0.00    -0.361 OA
HETATM   23  C1  UNL     1      28.870  -0.803  53.924  1.00  0.00     0.204 C 
ENDBRANCH   1  22
TORSDOF 1
ENDMDL
MODEL 5
REMARK VINA RESULT:      -7.6      2.104      3.939
REMARK  1 active torsions:
REMARK  status: ('A' for Active; 'I' for Inactive)
REMARK    1  A    between atoms: O1_2  and  C2_3 
ROOT
HETATM    1  C2  UNL     1      19.146   0.450  51.801  1.00  0.00     0.378 A 
HETATM    2  N1  UNL     1      18.872  -0.517  52.877  1.00  0.00     0.094 N 
HETATM    3  C3  UNL     1      17.720  -0.900  53.059  1.00  0.00     0.372 A 
HETATM    4  N2  UNL     1      19.092  -0.952  53.452  1.00  0.00    -0.042 NA
HETATM    5  C4  UNL     1      20.035  -0.334  52.907  1.00  0.00     0.301 A 
HETATM    6  N3  UNL     1      21.039  -0.822  53.779  1.00  0.00    -0.373 N 
HETATM    7  C5  UNL     1      21.962  -1.844  54.155  1.00  0.00     0.145 C 
HETATM    8  C6  UNL     1      22.691  -1.364  55.405  1.00  0.00    -0.011 C 
HETATM    9  C7  UNL     1      23.920  -0.925  55.041  1.00  0.00    -0.023 C 
HETATM   10  C8  UNL     1      24.943  -0.662  54.042  1.00  0.00     0.020 C 
HETATM   11  C9  UNL     1      25.330  -0.707  52.753  1.00  0.00    -0.002 C 
HETATM   12  C10 UNL     1      26.710  -0.138  52.628  1.00  0.00     0.006 C 
HETATM   13  C11 UNL     1      26.557   1.066  51.646  1.00  0.00     0.004 C 
HETATM   14  C12 UNL     1      25.504   1.960  52.303  1.00  0.00     0.029 C 
HETATM   15  C13 UNL     1      25.090   3.094  51.478  1.00  0.00    -0.003 C 
HETATM   16  C14 UNL     1      23.895   3.429  50.936  1.00  0.00     0.130 C 
HETATM   17  O2  UNL     1      22.536   3.043  50.799  1.00  0.00    -0.363 OA
HETATM   18  C15 UNL     1      22.258   1.659  50.649  1.00  0.00     0.180 C 
HETATM   19  C16 UNL     1      20.852   1.354  50.881  1.00  0.00     0.080 C 
HETATM   20  C17 UNL     1      20.638   0.564  51.848  1.00  0.00     0.077 A 
HETATM   21  H6  UNL     1      21.110   0.040  54.428  1.00  0.00     0.157 HD
ENDROOT
BRANCH   1  22
HETATM   22  O1  UNL     1      18.736  -0.028  50.584  1.00  0.00    -0.361 OA
HETATM   23  C1  UNL     1      17.683   0.697  50.034  1.00  0.00     0.204 C 
ENDBRANCH   1  22
TORSDOF 1
ENDMDL
MODEL 6
REMARK VINA RESULT:      -7.6      2.296      4.486
REMARK  1 active torsions:
REMARK  status: ('A' for Active; 'I' for Inactive)
REMARK    1  A    between atoms: O1_2  and  C2_3 
ROOT
HETATM    1  C2  UNL     1      24.312   0.679  52.263  1.00  0.00     0.378 A 
HETATM    2  N1  UNL     1      22.888   0.742  52.634  1.00  0.00     0.094 N 
HETATM    3  C3  UNL     1      22.364  -0.234  53.160  1.00  0.00     0.372 A 
HETATM    4  N2  UNL     1      22.226   1.101  52.671  1.00  0.00    -0.042 NA
HETATM    5  C4  UNL     1      23.141   1.796  52.172  1.00  0.00     0.301 A 
HETATM    6  N3  UNL     1      22.327   2.926  51.915  1.00  0.00    -0.373 N 
HETATM    7  C5  UNL     1      21.696   4.125  52.364  1.00  0.00     0.145 C 
HETATM    8  C6  UNL     1      20.935   4.713  51.180  1.00  0.00    -0.011 C 
HETATM    9  C7  UNL     1      21.659   5.740  50.673  1.00  0.00    -0.023 C 
HETATM   10  C8  UNL     1      22.827   6.606  50.670  1.00  0.00     0.020 C 
HETATM   11  C9  UNL     1      24.005   6.950  51.224  1.00  0.00    -0.002 C 
HETATM   12  C10 UNL     1      24.601   8.088  50.457  1.00  0.00     0.006 C 
HETATM   13  C11 UNL     1      25.976   7.550  49.950  1.00  0.00     0.004 C 
HETATM   14  C12 UNL     1      25.621   6.296  49.149  1.00  0.00     0.029 C 
HETATM   15  C13 UNL     1      26.782   5.534  48.691  1.00  0.00    -0.003 C 
HETATM   16  C14 UNL     1      27.205   4.279  48.968  1.00  0.00     0.130 C 
HETATM   17  O2  UNL     1      26.924   3.096  49.702  1.00  0.00    -0.363 OA
HETATM   18  C15 UNL     1      26.390   3.245  51.009  1.00  0.00     0.180 C 
HETATM   19  C16 UNL     1      25.813   2.005  51.509  1.00  0.00     0.080 C 
HETATM   20  C17 UNL     1      24.574   2.068  51.768  1.00  0.00     0.077 A 
HETATM   21  H6  UNL     1      22.153   2.753  50.861  1.00  0.00     0.157 HD
ENDROOT
BRANCH   1  22
HETATM   22  O1  UNL     1      25.099   0.397  53.349  1.00  0.00    -0.361 OA
HETATM   23  C1  UNL     1      25.753  -0.828  53.252  1.00  0.00     0.204 C 
ENDBRANCH   1  22
TORSDOF 1
ENDMDL
MODEL 7
REMARK VINA RESULT:      -7.5      2.352      5.217
REMARK  1 active torsions:
REMARK  status: ('A' for Active; 'I' for Inactive)
REMARK    1  A    between atoms: O1_2  and  C2_3 
ROOT
HETATM    1  C2  UNL     1      26.804   1.184  53.309  1.00  0.00     0.378 A 
HETATM    2  N1  UNL     1      26.561   0.081  54.254  1.00  0.00     0.094 N 
HETATM    3  C3  UNL     1      27.498  -0.362  54.910  1.00  0.00     0.372 A 
HETATM    4  N2  UNL     1      26.108  -0.422  54.585  1.00  0.00    -0.042 NA
HETATM    5  C4  UNL     1      25.512   0.323  53.774  1.00  0.00     0.301 A 
HETATM    6  N3  UNL     1      24.244  -0.285  53.938  1.00  0.00    -0.373 N 
HETATM    7  C5  UNL     1      23.023  -0.427  54.665  1.00  0.00     0.145 C 
HETATM    8  C6  UNL     1      22.181  -1.475  53.945  1.00  0.00    -0.011 C 
HETATM    9  C7  UNL     1      21.229  -0.837  53.224  1.00  0.00    -0.023 C 
HETATM   10  C8  UNL     1      20.567   0.371  52.760  1.00  0.00     0.020 C 
HETATM   11  C9  UNL     1      20.486   1.716  52.774  1.00  0.00    -0.002 C 
HETATM   12  C10 UNL     1      19.372   2.155  51.876  1.00  0.00     0.006 C 
HETATM   13  C11 UNL     1      20.057   3.066  50.808  1.00  0.00     0.004 C 
HETATM   14  C12 UNL     1      21.130   2.174  50.182  1.00  0.00     0.029 C 
HETATM   15  C13 UNL     1      22.005   2.870  49.240  1.00  0.00    -0.003 C 
HETATM   16  C14 UNL     1      23.336   3.115  49.255  1.00  0.00     0.130 C 
HETATM   17  O2  UNL     1      24.540   2.933  49.986  1.00  0.00    -0.363 OA
HETATM   18  C15 UNL     1      24.469   3.024  51.402  1.00  0.00     0.180 C 
HETATM   19  C16 UNL     1      25.653   2.472  52.046  1.00  0.00     0.080 C 
HETATM   20  C17 UNL     1      25.425   1.487  52.810  1.00  0.00     0.077 A 
HETATM   21  H6  UNL     1      24.257  -0.906  53.053  1.00  0.00     0.157 HD
ENDROOT
BRANCH   1  22
HETATM   22  O1  UNL     1      27.339   2.276  53.942  1.00  0.00    -0.361 OA
HETATM   23  C1  UNL     1      28.677   2.495  53.626  1.00  0.00     0.204 C 
ENDBRANCH   1  22
TORSDOF 1
ENDMDL
MODEL 8
REMARK VINA RESULT:      -7.1      2.506      4.241
REMARK  1 active torsions:
REMARK  status: ('A' for Active; 'I' for Inactive)
REMARK    1  A    between atoms: O1_2  and  C2_3 
ROOT
HETATM    1  C2  UNL     1      21.317   0.141  52.708  1.00  0.00     0.378 A 
HETATM    2  N1  UNL     1      20.087   0.169  51.898  1.00  0.00     0.094 N 
HETATM    3  C3  UNL     1      19.121  -0.498  52.255  1.00  0.00     0.372 A 
HETATM    4  N2  UNL     1      19.689   0.402  51.302  1.00  0.00    -0.042 NA
HETATM    5  C4  UNL     1      20.839   0.895  51.354  1.00  0.00     0.301 A 
HETATM    6  N3  UNL     1      20.726   1.631  50.150  1.00  0.00    -0.373 N 
HETATM    7  C5  UNL     1      20.288   2.794  49.446  1.00  0.00     0.145 C 
HETATM    8  C6  UNL     1      20.692   2.623  47.986  1.00  0.00    -0.011 C 
HETATM    9  C7  UNL     1      21.797   3.372  47.757  1.00  0.00    -0.023 C 
HETATM   10  C8  UNL     1      22.838   4.287  48.195  1.00  0.00     0.020 C 
HETATM   11  C9  UNL     1      23.383   5.022  49.185  1.00  0.00    -0.002 C 
HETATM   12  C10 UNL     1      24.601   5.723  48.670  1.00  0.00     0.006 C 
HETATM   13  C11 UNL     1      25.766   5.212  49.574  1.00  0.00     0.004 C 
HETATM   14  C12 UNL     1      25.732   3.691  49.412  1.00  0.00     0.029 C 
HETATM   15  C13 UNL     1      26.659   2.979  50.292  1.00  0.00    -0.003 C 
HETATM   16  C14 UNL     1      26.453   2.088  51.289  1.00  0.00     0.130 C 
HETATM   17  O2  UNL     1      25.468   1.377  52.023  1.00  0.00    -0.363 OA
HETATM   18  C15 UNL     1      24.260   2.057  52.332  1.00  0.00     0.180 C 
HETATM   19  C16 UNL     1      23.208   1.142  52.751  1.00  0.00     0.080 C 
HETATM   20  C17 UNL     1      22.183   1.142  52.007  1.00  0.00     0.077 A 
HETATM   21  H6  UNL     1      21.262   0.950  49.503  1.00  0.00     0.157 HD
ENDROOT
BRANCH   1  22
HETATM   22  O1  UNL     1      21.075   0.533  53.999  1.00  0.00    -0.361 OA
HETATM   23  C1  UNL     1      21.378  -0.449  54.938  1.00  0.00     0.204 C 
ENDBRANCH   1  22
TORSDOF 1
ENDMDL
MODEL 9
REMARK VINA RESULT:      -7.1      1.996      2.644
REMARK  1 active torsions:
REMARK  status: ('A' for Active; 'I' for Inactive)
REMARK    1  A    between atoms: O1_2  and  C2_3 
ROOT
HETATM    1  C2  UNL     1      20.411   3.109  52.129  1.00  0.00     0.378 A 
HETATM    2  N1  UNL     1      20.916   1.829  52.655  1.00  0.00     0.094 N 
HETATM    3  C3  UNL     1      20.131   1.048  53.183  1.00  0.00     0.372 A 
HETATM    4  N2  UNL     1      21.474   1.341  52.793  1.00  0.00    -0.042 NA
HETATM    5  C4  UNL     1      21.854   2.373  52.194  1.00  0.00     0.301 A 
HETATM    6  N3  UNL     1      23.222   2.009  52.153  1.00  0.00    -0.373 N 
HETATM    7  C5  UNL     1      24.295   1.291  51.544  1.00  0.00     0.145 C 
HETATM    8  C6  UNL     1      25.557   1.587  52.347  1.00  0.00    -0.011 C 
HETATM    9  C7  UNL     1      26.293   2.500  51.668  1.00  0.00    -0.023 C 
HETATM   10  C8  UNL     1      26.513   3.377  50.530  1.00  0.00     0.020 C 
HETATM   11  C9  UNL     1      26.085   3.856  49.346  1.00  0.00    -0.002 C 
HETATM   12  C10 UNL     1      27.067   4.862  48.832  1.00  0.00     0.006 C 
HETATM   13  C11 UNL     1      26.245   6.182  48.688  1.00  0.00     0.004 C 
HETATM   14  C12 UNL     1      25.679   6.430  50.087  1.00  0.00     0.029 C 
HETATM   15  C13 UNL     1      24.745   7.554  50.158  1.00  0.00    -0.003 C 
HETATM   16  C14 UNL     1      23.431   7.617  50.474  1.00  0.00     0.130 C 
HETATM   17  O2  UNL     1      22.293   6.859  50.860  1.00  0.00    -0.363 OA
HETATM   18  C15 UNL     1      22.130   5.576  50.276  1.00  0.00     0.180 C 
HETATM   19  C16 UNL     1      21.161   4.764  51.000  1.00  0.00     0.080 C 
HETATM   20  C17 UNL     1      21.632   3.696  51.492  1.00  0.00     0.077 A 
HETATM   21  H6  UNL     1      23.563   2.607  52.988  1.00  0.00     0.157 HD
ENDROOT
BRANCH   1  22
HETATM   22  O1  UNL     1      19.426   2.912  51.197  1.00  0.00    -0.361 OA
HETATM   23  C1  UNL     1      18.174   3.350  51.618  1.00  0.00     0.204 C 
ENDBRANCH   1  22
TORSDOF 1
ENDMDL
