MODEL 1
REMARK VINA RESULT:      -8.4      0.000      0.000
REMARK  4 active torsions:
REMARK  status: ('A' for Active; 'I' for Inactive)
REMARK    1  A    between atoms: C5_6  and  N2_7 
REMARK    2  A    between atoms: N2_7  and  C6_8 
REMARK    3  A    between atoms: C6_8  and  C7_9 
REMARK    4  A    between atoms: C7_9  and  C8_10 
ROOT
HETATM    1  N1  UNL     1      28.691   2.447  53.089  1.00  0.00    -0.192 NA
HETATM    2  C1  UNL     1      27.599   2.059  52.937  1.00  0.00     0.095 C 
HETATM    3  C2  UNL     1      26.250   1.594  52.737  1.00  0.00     0.023 C 
HETATM    4  C3  UNL     1      25.350   2.546  52.937  1.00  0.00     0.031 C 
HETATM    5  C4  UNL     1      23.893   2.327  52.797  1.00  0.00    -0.020 C 
HETATM    6  C5  UNL     1      23.198   3.408  52.426  1.00  0.00     0.094 C 
HETATM    7  C16 UNL     1      23.181   1.072  53.020  1.00  0.00     0.009 C 
HETATM    8  C17 UNL     1      23.769  -0.129  53.197  1.00  0.00    -0.025 C 
HETATM    9  C18 UNL     1      25.156  -0.599  53.234  1.00  0.00     0.032 C 
HETATM   10  C19 UNL     1      26.107   0.165  52.353  1.00  0.00     0.054 C 
ENDROOT
BRANCH   6  11
HETATM   11  N2  UNL     1      23.822   4.655  52.192  1.00  0.00    -0.398 N 
HETATM   12  H3  UNL     1      24.714   4.747  52.768  1.00  0.00     0.158 HD
BRANCH  11  13
HETATM   13  C6  UNL     1      23.362   5.700  51.297  1.00  0.00     0.125 C 
BRANCH  13  14
HETATM   14  C7  UNL     1      24.459   6.534  50.737  1.00  0.00     0.080 C 
BRANCH  14  15
HETATM   15  C8  UNL     1      25.538   5.866  50.018  1.00  0.00     0.051 A 
HETATM   16  N3  UNL     1      25.761   4.512  50.015  1.00  0.00    -0.245 NA
HETATM   17  C9  UNL     1      26.751   3.894  49.409  1.00  0.00     0.234 A 
HETATM   18  N4  UNL     1      27.695   4.530  48.697  1.00  0.00    -0.241 NA
HETATM   19  C10 UNL     1      27.585   5.868  48.624  1.00  0.00     0.070 A 
HETATM   20  C11 UNL     1      26.531   6.470  49.275  1.00  0.00     0.039 A 
HETATM   21  C15 UNL     1      28.609   6.244  47.878  1.00  0.00     0.032 C 
HETATM   22  C12 UNL     1      26.204   7.751  49.300  1.00  0.00     0.153 C 
HETATM   23  O1  UNL     1      26.717   8.946  48.788  1.00  0.00    -0.337 OA
HETATM   24  C13 UNL     1      27.950   9.378  48.227  1.00  0.00     0.343 C 
HETATM   25  O2  UNL     1      28.988   8.494  48.430  1.00  0.00    -0.363 OA
HETATM   26  C14 UNL     1      29.105   7.580  47.389  1.00  0.00     0.200 C 
ENDBRANCH  14  15
ENDBRANCH  13  14
ENDBRANCH  11  13
ENDBRANCH   6  11
TORSDOF 4
ENDMDL
MODEL 2
REMARK VINA RESULT:      -8.3      5.791      8.463
REMARK  4 active torsions:
REMARK  status: ('A' for Active; 'I' for Inactive)
REMARK    1  A    between atoms: C5_6  and  N2_7 
REMARK    2  A    between atoms: N2_7  and  C6_8 
REMARK    3  A    between atoms: C6_8  and  C7_9 
REMARK    4  A    between atoms: C7_9  and  C8_10 
ROOT
HETATM    1  N1  UNL     1      29.849   2.385  55.190  1.00  0.00    -0.192 NA
HETATM    2  C1  UNL     1      29.415   1.511  54.546  1.00  0.00     0.095 C 
HETATM    3  C2  UNL     1      28.871   0.447  53.740  1.00  0.00     0.023 C 
HETATM    4  C3  UNL     1      27.553   0.520  53.625  1.00  0.00     0.031 C 
HETATM    5  C4  UNL     1      26.751  -0.455  52.850  1.00  0.00    -0.020 C 
HETATM    6  C5  UNL     1      25.626   0.040  52.324  1.00  0.00     0.094 C 
HETATM    7  C16 UNL     1      27.081  -1.859  52.623  1.00  0.00     0.009 C 
HETATM    8  C17 UNL     1      28.264  -2.432  52.918  1.00  0.00    -0.025 C 
HETATM    9  C18 UNL     1      29.520  -1.956  53.502  1.00  0.00     0.032 C 
HETATM   10  C19 UNL     1      29.858  -0.523  53.195  1.00  0.00     0.054 C 
ENDROOT
BRANCH   6  11
HETATM   11  N2  UNL     1      25.246   1.391  52.503  1.00  0.00    -0.398 N 
HETATM   12  H3  UNL     1      26.099   2.030  52.494  1.00  0.00     0.158 HD
BRANCH  11  13
HETATM   13  C6  UNL     1      23.896   1.897  52.673  1.00  0.00     0.125 C 
BRANCH  13  14
HETATM   14  C7  UNL     1      22.856   1.058  52.020  1.00  0.00     0.080 C 
BRANCH  14  15
HETATM   15  C8  UNL     1      22.086   0.140  52.852  1.00  0.00     0.051 A 
HETATM   16  N3  UNL     1      22.615  -0.685  53.813  1.00  0.00    -0.245 NA
HETATM   17  C9  UNL     1      21.945  -1.549  54.543  1.00  0.00     0.234 A 
HETATM   18  N4  UNL     1      20.620  -1.736  54.437  1.00  0.00    -0.241 NA
HETATM   19  C10 UNL     1      19.983  -0.981  53.526  1.00  0.00     0.070 A 
HETATM   20  C11 UNL     1      20.727  -0.090  52.784  1.00  0.00     0.039 A 
HETATM   21  C15 UNL     1      18.715  -1.344  53.621  1.00  0.00     0.032 C 
HETATM   22  C12 UNL     1      20.309   0.775  51.876  1.00  0.00     0.153 C 
HETATM   23  O1  UNL     1      19.093   1.126  51.284  1.00  0.00    -0.337 OA
HETATM   24  C13 UNL     1      17.794   0.554  51.187  1.00  0.00     0.343 C 
HETATM   25  O2  UNL     1      17.745  -0.771  51.562  1.00  0.00    -0.363 OA
HETATM   26  C14 UNL     1      17.455  -0.921  52.913  1.00  0.00     0.200 C 
ENDBRANCH  14  15
ENDBRANCH  13  14
ENDBRANCH  11  13
ENDBRANCH   6  11
TORSDOF 4
ENDMDL
MODEL 3
REMARK VINA RESULT:      -8.0      1.681      2.391
REMARK  4 active torsions:
REMARK  status: ('A' for Active; 'I' for Inactive)
REMARK    1  A    between atoms: C5_6  and  N2_7 
REMARK    2  A    between atoms: N2_7  and  C6_8 
REMARK    3  A    between atoms: C6_8  and  C7_9 
REMARK    4  A    between atoms: C7_9  and  C8_10 
ROOT
HETATM    1  N1  UNL     1      27.859   2.457  53.881  1.00  0.00    -0.192 NA
HETATM    2  C1  UNL     1      26.892   1.821  53.713  1.00  0.00     0.095 C 
HETATM    3  C2  UNL     1      25.701   1.043  53.486  1.00  0.00     0.023 C 
HETATM    4  C3  UNL     1      24.705   1.769  52.998  1.00  0.00     0.031 C 
HETATM    5  C4  UNL     1      23.373   1.209  52.678  1.00  0.00    -0.020 C 
HETATM    6  C5  UNL     1      22.726   1.833  51.688  1.00  0.00     0.094 C 
HETATM    7  C16 UNL     1      22.734   0.071  53.333  1.00  0.00     0.009 C 
HETATM    8  C17 UNL     1      23.344  -0.767  54.195  1.00  0.00    -0.025 C 
HETATM    9  C18 UNL     1      24.696  -0.865  54.750  1.00  0.00     0.032 C 
HETATM   10  C19 UNL     1      25.792  -0.400  53.832  1.00  0.00     0.054 C 
ENDROOT
BRANCH   6  11
HETATM   11  N2  UNL     1      23.286   2.941  51.010  1.00  0.00    -0.398 N 
HETATM   12  H3  UNL     1      23.372   3.780  51.660  1.00  0.00     0.158 HD
BRANCH  11  13
HETATM   13  C6  UNL     1      23.711   2.984  49.623  1.00  0.00     0.125 C 
BRANCH  13  14
HETATM   14  C7  UNL     1      25.063   3.572  49.429  1.00  0.00     0.080 C 
BRANCH  14  15
HETATM   15  C8  UNL     1      25.207   5.021  49.525  1.00  0.00     0.051 A 
HETATM   16  N3  UNL     1      24.215   5.886  49.911  1.00  0.00    -0.245 NA
HETATM   17  C9  UNL     1      24.311   7.197  49.964  1.00  0.00     0.234 A 
HETATM   18  N4  UNL     1      25.426   7.870  49.637  1.00  0.00    -0.241 NA
HETATM   19  C10 UNL     1      26.475   7.129  49.241  1.00  0.00     0.070 A 
HETATM   20  C11 UNL     1      26.326   5.760  49.202  1.00  0.00     0.039 A 
HETATM   21  C15 UNL     1      27.427   8.011  48.988  1.00  0.00     0.032 C 
HETATM   22  C12 UNL     1      27.227   4.844  48.892  1.00  0.00     0.153 C 
HETATM   23  O1  UNL     1      28.560   4.823  48.474  1.00  0.00    -0.337 OA
HETATM   24  C13 UNL     1      29.486   5.764  47.944  1.00  0.00     0.343 C 
HETATM   25  O2  UNL     1      28.897   6.932  47.509  1.00  0.00    -0.363 OA
HETATM   26  C14 UNL     1      28.851   7.896  48.510  1.00  0.00     0.200 C 
ENDBRANCH  14  15
ENDBRANCH  13  14
ENDBRANCH  11  13
ENDBRANCH   6  11
TORSDOF 4
ENDMDL
MODEL 4
REMARK VINA RESULT:      -7.9      1.841      2.994
REMARK  4 active torsions:
REMARK  status: ('A' for Active; 'I' for Inactive)
REMARK    1  A    between atoms: C5_6  and  N2_7 
REMARK    2  A    between atoms: N2_7  and  C6_8 
REMARK    3  A    between atoms: C6_8  and  C7_9 
REMARK    4  A    between atoms: C7_9  and  C8_10 
ROOT
HETATM    1  N1  UNL     1      25.900  -0.883  55.114  1.00  0.00    -0.192 NA
HETATM    2  C1  UNL     1      25.089  -0.413  54.416  1.00  0.00     0.095 C 
HETATM    3  C2  UNL     1      24.104   0.171  53.541  1.00  0.00     0.023 C 
HETATM    4  C3  UNL     1      24.402   1.416  53.199  1.00  0.00     0.031 C 
HETATM    5  C4  UNL     1      23.552   2.240  52.309  1.00  0.00    -0.020 C 
HETATM    6  C5  UNL     1      24.214   3.153  51.591  1.00  0.00     0.094 C 
HETATM    7  C16 UNL     1      22.104   2.135  52.158  1.00  0.00     0.009 C 
HETATM    8  C17 UNL     1      21.344   1.141  52.660  1.00  0.00    -0.025 C 
HETATM    9  C18 UNL     1      21.617  -0.064  53.446  1.00  0.00     0.032 C 
HETATM   10  C19 UNL     1      22.954  -0.702  53.185  1.00  0.00     0.054 C 
ENDROOT
BRANCH   6  11
HETATM   11  N2  UNL     1      25.617   3.307  51.687  1.00  0.00    -0.398 N 
HETATM   12  H3  UNL     1      25.897   3.641  52.659  1.00  0.00     0.158 HD
BRANCH  11  13
HETATM   13  C6  UNL     1      26.591   3.053  50.641  1.00  0.00     0.125 C 
BRANCH  13  14
HETATM   14  C7  UNL     1      26.257   3.698  49.343  1.00  0.00     0.080 C 
BRANCH  14  15
HETATM   15  C8  UNL     1      27.046   4.850  48.922  1.00  0.00     0.051 A 
HETATM   16  N3  UNL     1      28.356   4.801  48.516  1.00  0.00    -0.245 NA
HETATM   17  C9  UNL     1      29.097   5.832  48.173  1.00  0.00     0.234 A 
HETATM   18  N4  UNL     1      28.650   7.098  48.177  1.00  0.00    -0.241 NA
HETATM   19  C10 UNL     1      27.373   7.278  48.556  1.00  0.00     0.070 A 
HETATM   20  C11 UNL     1      26.637   6.168  48.907  1.00  0.00     0.039 A 
HETATM   21  C15 UNL     1      27.182   8.583  48.469  1.00  0.00     0.032 C 
HETATM   22  C12 UNL     1      25.365   6.103  49.263  1.00  0.00     0.153 C 
HETATM   23  O1  UNL     1      24.316   7.003  49.468  1.00  0.00    -0.337 OA
HETATM   24  C13 UNL     1      24.186   8.409  49.640  1.00  0.00     0.343 C 
HETATM   25  O2  UNL     1      25.380   9.045  49.901  1.00  0.00    -0.363 OA
HETATM   26  C14 UNL     1      26.004   9.482  48.738  1.00  0.00     0.200 C 
ENDBRANCH  14  15
ENDBRANCH  13  14
ENDBRANCH  11  13
ENDBRANCH   6  11
TORSDOF 4
ENDMDL
MODEL 5
REMARK VINA RESULT:      -7.9      2.998      7.001
REMARK  4 active torsions:
REMARK  status: ('A' for Active; 'I' for Inactive)
REMARK    1  A    between atoms: C5_6  and  N2_7 
REMARK    2  A    between atoms: N2_7  and  C6_8 
REMARK    3  A    between atoms: C6_8  and  C7_9 
REMARK    4  A    between atoms: C7_9  and  C8_10 
ROOT
HETATM    1  N1  UNL     1      28.094   4.660  48.557  1.00  0.00    -0.192 NA
HETATM    2  C1  UNL     1      27.181   5.349  48.795  1.00  0.00     0.095 C 
HETATM    3  C2  UNL     1      26.057   6.194  49.109  1.00  0.00     0.023 C 
HETATM    4  C3  UNL     1      25.108   5.552  49.774  1.00  0.00     0.031 C 
HETATM    5  C4  UNL     1      23.849   6.194  50.215  1.00  0.00    -0.020 C 
HETATM    6  C5  UNL     1      23.314   5.675  51.325  1.00  0.00     0.094 C 
HETATM    7  C16 UNL     1      23.172   7.309  49.558  1.00  0.00     0.009 C 
HETATM    8  C17 UNL     1      23.694   8.052  48.562  1.00  0.00    -0.025 C 
HETATM    9  C18 UNL     1      24.965   8.048  47.835  1.00  0.00     0.032 C 
HETATM   10  C19 UNL     1      26.154   7.603  48.641  1.00  0.00     0.054 C 
ENDROOT
BRANCH   6  11
HETATM   11  N2  UNL     1      23.918   4.596  52.012  1.00  0.00    -0.398 N 
HETATM   12  H3  UNL     1      24.922   4.830  52.281  1.00  0.00     0.158 HD
BRANCH  11  13
HETATM   13  C6  UNL     1      23.301   3.324  52.341  1.00  0.00     0.125 C 
BRANCH  13  14
HETATM   14  C7  UNL     1      24.038   2.146  51.811  1.00  0.00     0.080 C 
BRANCH  14  15
HETATM   15  C8  UNL     1      24.526   1.152  52.761  1.00  0.00     0.051 A 
HETATM   16  N3  UNL     1      23.760   0.170  53.336  1.00  0.00    -0.245 NA
HETATM   17  C9  UNL     1      24.170  -0.708  54.224  1.00  0.00     0.234 A 
HETATM   18  N4  UNL     1      25.427  -0.754  54.693  1.00  0.00    -0.241 NA
HETATM   19  C10 UNL     1      26.279   0.162  54.203  1.00  0.00     0.070 A 
HETATM   20  C11 UNL     1      25.804   1.061  53.273  1.00  0.00     0.039 A 
HETATM   21  C15 UNL     1      27.427  -0.096  54.806  1.00  0.00     0.032 C 
HETATM   22  C12 UNL     1      26.467   2.007  52.631  1.00  0.00     0.153 C 
HETATM   23  O1  UNL     1      27.771   2.509  52.614  1.00  0.00    -0.337 OA
HETATM   24  C13 UNL     1      28.918   2.416  53.450  1.00  0.00     0.343 C 
HETATM   25  O2  UNL     1      28.650   1.905  54.701  1.00  0.00    -0.363 OA
HETATM   26  C14 UNL     1      28.798   0.523  54.743  1.00  0.00     0.200 C 
ENDBRANCH  14  15
ENDBRANCH  13  14
ENDBRANCH  11  13
ENDBRANCH   6  11
TORSDOF 4
ENDMDL
MODEL 6
REMARK VINA RESULT:      -7.8      3.751      8.144
REMARK  4 active torsions:
REMARK  status: ('A' for Active; 'I' for Inactive)
REMARK    1  A    between atoms: C5_6  and  N2_7 
REMARK    2  A    between atoms: N2_7  and  C6_8 
REMARK    3  A    between atoms: C6_8  and  C7_9 
REMARK    4  A    between atoms: C7_9  and  C8_10 
ROOT
HETATM    1  N1  UNL     1      30.158   5.617  47.816  1.00  0.00    -0.192 NA
HETATM    2  C1  UNL     1      29.045   5.757  48.145  1.00  0.00     0.095 C 
HETATM    3  C2  UNL     1      27.678   5.925  48.568  1.00  0.00     0.023 C 
HETATM    4  C3  UNL     1      27.173   4.823  49.102  1.00  0.00     0.031 C 
HETATM    5  C4  UNL     1      25.787   4.730  49.615  1.00  0.00    -0.020 C 
HETATM    6  C5  UNL     1      25.618   3.859  50.616  1.00  0.00     0.094 C 
HETATM    7  C16 UNL     1      24.635   5.488  49.135  1.00  0.00     0.009 C 
HETATM    8  C17 UNL     1      24.697   6.531  48.283  1.00  0.00    -0.025 C 
HETATM    9  C18 UNL     1      25.783   7.230  47.590  1.00  0.00     0.032 C 
HETATM   10  C19 UNL     1      27.088   7.270  48.337  1.00  0.00     0.054 C 
ENDROOT
BRANCH   6  11
HETATM   11  N2  UNL     1      26.690   3.093  51.131  1.00  0.00    -0.398 N 
HETATM   12  H3  UNL     1      27.618   3.415  50.719  1.00  0.00     0.158 HD
BRANCH  11  13
HETATM   13  C6  UNL     1      26.598   2.012  52.095  1.00  0.00     0.125 C 
BRANCH  13  14
HETATM   14  C7  UNL     1      25.554   1.005  51.767  1.00  0.00     0.080 C 
BRANCH  14  15
HETATM   15  C8  UNL     1      24.849   0.357  52.867  1.00  0.00     0.051 A 
HETATM   16  N3  UNL     1      25.450  -0.342  53.884  1.00  0.00    -0.245 NA
HETATM   17  C9  UNL     1      24.831  -0.968  54.861  1.00  0.00     0.234 A 
HETATM   18  N4  UNL     1      23.496  -1.004  54.987  1.00  0.00    -0.241 NA
HETATM   19  C10 UNL     1      22.790  -0.352  54.047  1.00  0.00     0.070 A 
HETATM   20  C11 UNL     1      23.482   0.290  53.044  1.00  0.00     0.039 A 
HETATM   21  C15 UNL     1      21.528  -0.530  54.396  1.00  0.00     0.032 C 
HETATM   22  C12 UNL     1      23.003   1.023  52.053  1.00  0.00     0.153 C 
HETATM   23  O1  UNL     1      21.745   1.410  51.586  1.00  0.00    -0.337 OA
HETATM   24  C13 UNL     1      20.399   0.998  51.794  1.00  0.00     0.343 C 
HETATM   25  O2  UNL     1      20.288  -0.222  52.427  1.00  0.00    -0.363 OA
HETATM   26  C14 UNL     1      20.213  -0.088  53.809  1.00  0.00     0.200 C 
ENDBRANCH  14  15
ENDBRANCH  13  14
ENDBRANCH  11  13
ENDBRANCH   6  11
TORSDOF 4
ENDMDL
MODEL 7
REMARK VINA RESULT:      -7.7      4.893      7.452
REMARK  4 active torsions:
REMARK  status: ('A' for Active; 'I' for Inactive)
REMARK    1  A    between atoms: C5_6  and  N2_7 
REMARK    2  A    between atoms: N2_7  and  C6_8 
REMARK    3  A    between atoms: C6_8  and  C7_9 
REMARK    4  A    between atoms: C7_9  and  C8_10 
ROOT
HETATM    1  N1  UNL     1      21.684   2.110  48.251  1.00  0.00    -0.192 NA
HETATM    2  C1  UNL     1      20.812   1.813  48.970  1.00  0.00     0.095 C 
HETATM    3  C2  UNL     1      19.748   1.452  49.873  1.00  0.00     0.023 C 
HETATM    4  C3  UNL     1      20.116   0.528  50.748  1.00  0.00     0.031 C 
HETATM    5  C4  UNL     1      19.209  -0.016  51.784  1.00  0.00    -0.020 C 
HETATM    6  C5  UNL     1      19.818  -0.424  52.903  1.00  0.00     0.094 C 
HETATM    7  C16 UNL     1      17.757  -0.137  51.685  1.00  0.00     0.009 C 
HETATM    8  C17 UNL     1      17.001   0.411  50.713  1.00  0.00    -0.025 C 
HETATM    9  C18 UNL     1      17.281   1.230  49.531  1.00  0.00     0.032 C 
HETATM   10  C19 UNL     1      18.456   2.159  49.669  1.00  0.00     0.054 C 
ENDROOT
BRANCH   6  11
HETATM   11  N2  UNL     1      21.220  -0.335  53.067  1.00  0.00    -0.398 N 
HETATM   12  H3  UNL     1      21.692  -0.051  52.155  1.00  0.00     0.158 HD
BRANCH  11  13
HETATM   13  C6  UNL     1      21.967  -0.577  54.287  1.00  0.00     0.125 C 
BRANCH  13  14
HETATM   14  C7  UNL     1      23.432  -0.716  54.075  1.00  0.00     0.080 C 
BRANCH  14  15
HETATM   15  C8  UNL     1      24.119   0.311  53.299  1.00  0.00     0.051 A 
HETATM   16  N3  UNL     1      23.551   1.043  52.286  1.00  0.00    -0.245 NA
HETATM   17  C9  UNL     1      24.164   1.943  51.548  1.00  0.00     0.234 A 
HETATM   18  N4  UNL     1      25.458   2.266  51.698  1.00  0.00    -0.241 NA
HETATM   19  C10 UNL     1      26.127   1.614  52.664  1.00  0.00     0.070 A 
HETATM   20  C11 UNL     1      25.443   0.681  53.412  1.00  0.00     0.039 A 
HETATM   21  C15 UNL     1      27.352   2.108  52.611  1.00  0.00     0.032 C 
HETATM   22  C12 UNL     1      25.882  -0.038  54.431  1.00  0.00     0.153 C 
HETATM   23  O1  UNL     1      27.087  -0.206  55.118  1.00  0.00    -0.337 OA
HETATM   24  C13 UNL     1      28.454   0.115  54.889  1.00  0.00     0.343 C 
HETATM   25  O2  UNL     1      28.726   0.473  53.586  1.00  0.00    -0.363 OA
HETATM   26  C14 UNL     1      28.615   1.845  53.389  1.00  0.00     0.200 C 
ENDBRANCH  14  15
ENDBRANCH  13  14
ENDBRANCH  11  13
ENDBRANCH   6  11
TORSDOF 4
ENDMDL
MODEL 8
REMARK VINA RESULT:      -7.7      1.993      4.009
REMARK  4 active torsions:
REMARK  status: ('A' for Active; 'I' for Inactive)
REMARK    1  A    between atoms: C5_6  and  N2_7 
REMARK    2  A    between atoms: N2_7  and  C6_8 
REMARK    3  A    between atoms: C6_8  and  C7_9 
REMARK    4  A    between atoms: C7_9  and  C8_10 
ROOT
HETATM    1  N1  UNL     1      20.828   3.515  50.848  1.00  0.00    -0.192 NA
HETATM    2  C1  UNL     1      21.339   2.724  51.542  1.00  0.00     0.095 C 
HETATM    3  C2  UNL     1      21.980   1.763  52.403  1.00  0.00     0.023 C 
HETATM    4  C3  UNL     1      23.283   1.673  52.182  1.00  0.00     0.031 C 
HETATM    5  C4  UNL     1      24.173   0.758  52.933  1.00  0.00    -0.020 C 
HETATM    6  C5  UNL     1      25.435   1.182  53.057  1.00  0.00     0.094 C 
HETATM    7  C16 UNL     1      23.794  -0.520  53.528  1.00  0.00     0.009 C 
HETATM    8  C17 UNL     1      22.530  -0.970  53.653  1.00  0.00    -0.025 C 
HETATM    9  C18 UNL     1      21.211  -0.441  53.298  1.00  0.00     0.032 C 
HETATM   10  C19 UNL     1      21.090   1.057  53.362  1.00  0.00     0.054 C 
ENDROOT
BRANCH   6  11
HETATM   11  N2  UNL     1      25.870   2.411  52.507  1.00  0.00    -0.398 N 
HETATM   12  H3  UNL     1      25.433   3.234  53.023  1.00  0.00     0.158 HD
BRANCH  11  13
HETATM   13  C6  UNL     1      26.790   2.587  51.399  1.00  0.00     0.125 C 
BRANCH  13  14
HETATM   14  C7  UNL     1      26.129   3.003  50.133  1.00  0.00     0.080 C 
BRANCH  14  15
HETATM   15  C8  UNL     1      26.528   4.269  49.529  1.00  0.00     0.051 A 
HETATM   16  N3  UNL     1      27.710   4.487  48.866  1.00  0.00    -0.245 NA
HETATM   17  C9  UNL     1      28.107   5.630  48.351  1.00  0.00     0.234 A 
HETATM   18  N4  UNL     1      27.383   6.759  48.412  1.00  0.00    -0.241 NA
HETATM   19  C10 UNL     1      26.197   6.674  49.039  1.00  0.00     0.070 A 
HETATM   20  C11 UNL     1      25.824   5.455  49.562  1.00  0.00     0.039 A 
HETATM   21  C15 UNL     1      25.690   7.892  48.957  1.00  0.00     0.032 C 
HETATM   22  C12 UNL     1      24.696   5.132  50.171  1.00  0.00     0.153 C 
HETATM   23  O1  UNL     1      23.524   5.784  50.561  1.00  0.00    -0.337 OA
HETATM   24  C13 UNL     1      23.101   7.134  50.718  1.00  0.00     0.343 C 
HETATM   25  O2  UNL     1      24.139   8.041  50.713  1.00  0.00    -0.363 OA
HETATM   26  C14 UNL     1      24.407   8.520  49.436  1.00  0.00     0.200 C 
ENDBRANCH  14  15
ENDBRANCH  13  14
ENDBRANCH  11  13
ENDBRANCH   6  11
TORSDOF 4
ENDMDL
MODEL 9
REMARK VINA RESULT:      -7.7      5.702      8.999
REMARK  4 active torsions:
REMARK  status: ('A' for Active; 'I' for Inactive)
REMARK    1  A    between atoms: C5_6  and  N2_7 
REMARK    2  A    between atoms: N2_7  and  C6_8 
REMARK    3  A    between atoms: C6_8  and  C7_9 
REMARK    4  A    between atoms: C7_9  and  C8_10 
ROOT
HETATM    1  N1  UNL     1      24.119   3.823  51.614  1.00  0.00    -0.192 NA
HETATM    2  C1  UNL     1      24.862   3.049  52.077  1.00  0.00     0.095 C 
HETATM    3  C2  UNL     1      25.767   2.080  52.643  1.00  0.00     0.023 C 
HETATM    4  C3  UNL     1      25.175   1.287  53.524  1.00  0.00     0.031 C 
HETATM    5  C4  UNL     1      25.884   0.207  54.249  1.00  0.00    -0.020 C 
HETATM    6  C5  UNL     1      25.117  -0.835  54.589  1.00  0.00     0.094 C 
HETATM    7  C16 UNL     1      27.299   0.190  54.605  1.00  0.00     0.009 C 
HETATM    8  C17 UNL     1      28.220   1.067  54.156  1.00  0.00    -0.025 C 
HETATM    9  C18 UNL     1      28.185   2.224  53.259  1.00  0.00     0.032 C 
HETATM   10  C19 UNL     1      27.169   2.139  52.153  1.00  0.00     0.054 C 
ENDROOT
BRANCH   6  11
HETATM   11  N2  UNL     1      23.739  -0.885  54.274  1.00  0.00    -0.398 N 
HETATM   12  H3  UNL     1      23.577  -0.676  53.242  1.00  0.00     0.158 HD
BRANCH  11  13
HETATM   13  C6  UNL     1      22.652  -1.183  55.188  1.00  0.00     0.125 C 
BRANCH  13  14
HETATM   14  C7  UNL     1      21.333  -1.337  54.519  1.00  0.00     0.080 C 
BRANCH  14  15
HETATM   15  C8  UNL     1      20.887  -0.280  53.619  1.00  0.00     0.051 A 
HETATM   16  N3  UNL     1      21.618   0.833  53.288  1.00  0.00    -0.245 NA
HETATM   17  C9  UNL     1      21.219   1.818  52.514  1.00  0.00     0.234 A 
HETATM   18  N4  UNL     1      20.009   1.857  51.932  1.00  0.00    -0.241 NA
HETATM   19  C10 UNL     1      19.195   0.817  52.180  1.00  0.00     0.070 A 
HETATM   20  C11 UNL     1      19.658  -0.191  52.997  1.00  0.00     0.039 A 
HETATM   21  C15 UNL     1      18.094   1.089  51.501  1.00  0.00     0.032 C 
HETATM   22  C12 UNL     1      19.054  -1.317  53.337  1.00  0.00     0.153 C 
HETATM   23  O1  UNL     1      17.819  -1.924  53.099  1.00  0.00    -0.337 OA
HETATM   24  C13 UNL     1      16.549  -1.514  52.605  1.00  0.00     0.343 C 
HETATM   25  O2  UNL     1      16.395  -0.146  52.551  1.00  0.00    -0.363 OA
HETATM   26  C14 UNL     1      16.780   0.375  51.320  1.00  0.00     0.200 C 
ENDBRANCH  14  15
ENDBRANCH  13  14
ENDBRANCH  11  13
ENDBRANCH   6  11
TORSDOF 4
ENDMDL
