MODEL 1
REMARK VINA RESULT:      -8.9      0.000      0.000
REMARK  1 active torsions:
REMARK  status: ('A' for Active; 'I' for Inactive)
REMARK    1  A    between atoms: C2_2  and  N1_4 
ROOT
HETATM    1  N1  UNL     1      23.433   1.658  52.636  1.00  0.00    -0.344 N 
HETATM    2  C4  UNL     1      22.390   0.867  53.005  1.00  0.00     0.027 A 
HETATM    3  C5  UNL     1      22.804  -0.127  53.849  1.00  0.00     0.049 A 
HETATM    4  C6  UNL     1      24.168   0.066  54.004  1.00  0.00     0.058 A 
HETATM    5  C7  UNL     1      24.551   1.177  53.245  1.00  0.00     0.061 A 
HETATM    6  C8  UNL     1      26.000   1.321  53.456  1.00  0.00     0.006 A 
HETATM    7  C9  UNL     1      26.907   2.234  52.963  1.00  0.00     0.014 A 
HETATM    8  C10 UNL     1      28.257   2.195  53.290  1.00  0.00     0.001 A 
HETATM    9  C11 UNL     1      28.643   1.180  54.143  1.00  0.00     0.001 A 
HETATM   10  C12 UNL     1      27.786   0.235  54.670  1.00  0.00     0.016 A 
HETATM   11  C13 UNL     1      26.440   0.327  54.305  1.00  0.00     0.027 A 
HETATM   12  C14 UNL     1      25.319  -0.519  54.700  1.00  0.00     0.196 A 
HETATM   13  O1  UNL     1      25.307  -1.516  55.451  1.00  0.00    -0.286 OA
HETATM   14  C15 UNL     1      21.849  -1.109  54.383  1.00  0.00     0.162 C 
HETATM   15  O2  UNL     1      22.138  -1.735  55.440  1.00  0.00    -0.292 OA
HETATM   16  C16 UNL     1      20.599  -1.237  53.553  1.00  0.00     0.084 C 
HETATM   17  C17 UNL     1      20.058   0.171  53.445  1.00  0.00     0.014 C 
HETATM   18  C18 UNL     1      20.984   0.988  52.605  1.00  0.00     0.059 C 
ENDROOT
BRANCH   1  19
HETATM   19  C2  UNL     1      23.401   2.809  51.757  1.00  0.00     0.082 C 
HETATM   20  C1  UNL     1      23.687   4.045  52.589  1.00  0.00     0.032 C 
HETATM   21  C3  UNL     1      24.258   2.671  50.547  1.00  0.00     0.032 C 
ENDBRANCH   1  19
TORSDOF 1
ENDMDL
MODEL 2
REMARK VINA RESULT:      -8.7      2.254      4.207
REMARK  1 active torsions:
REMARK  status: ('A' for Active; 'I' for Inactive)
REMARK    1  A    between atoms: C2_2  and  N1_4 
ROOT
HETATM    1  N1  UNL     1      24.672   0.460  53.012  1.00  0.00    -0.344 N 
HETATM    2  C4  UNL     1      23.459   0.026  53.448  1.00  0.00     0.027 A 
HETATM    3  C5  UNL     1      22.445   0.667  52.790  1.00  0.00     0.049 A 
HETATM    4  C6  UNL     1      23.069   1.535  51.907  1.00  0.00     0.058 A 
HETATM    5  C7  UNL     1      24.454   1.400  52.052  1.00  0.00     0.061 A 
HETATM    6  C8  UNL     1      25.046   2.344  51.092  1.00  0.00     0.006 A 
HETATM    7  C9  UNL     1      26.359   2.641  50.797  1.00  0.00     0.014 A 
HETATM    8  C10 UNL     1      26.714   3.582  49.838  1.00  0.00     0.001 A 
HETATM    9  C11 UNL     1      25.668   4.210  49.192  1.00  0.00     0.001 A 
HETATM   10  C12 UNL     1      24.333   3.959  49.441  1.00  0.00     0.016 A 
HETATM   11  C13 UNL     1      24.040   3.002  50.416  1.00  0.00     0.027 A 
HETATM   12  C14 UNL     1      22.740   2.535  50.886  1.00  0.00     0.196 A 
HETATM   13  O1  UNL     1      21.596   2.883  50.526  1.00  0.00    -0.286 OA
HETATM   14  C15 UNL     1      21.039   0.362  53.094  1.00  0.00     0.162 C 
HETATM   15  O2  UNL     1      20.153   0.628  52.234  1.00  0.00    -0.292 OA
HETATM   16  C16 UNL     1      20.843  -0.255  54.454  1.00  0.00     0.084 C 
HETATM   17  C17 UNL     1      21.764  -1.454  54.473  1.00  0.00     0.014 C 
HETATM   18  C18 UNL     1      23.181  -0.983  54.475  1.00  0.00     0.059 C 
ENDROOT
BRANCH   1  19
HETATM   19  C2  UNL     1      25.979   0.026  53.461  1.00  0.00     0.082 C 
HETATM   20  C1  UNL     1      26.664  -0.680  52.306  1.00  0.00     0.032 C 
HETATM   21  C3  UNL     1      26.791   1.104  54.091  1.00  0.00     0.032 C 
ENDBRANCH   1  19
TORSDOF 1
ENDMDL
MODEL 3
REMARK VINA RESULT:      -8.6      1.325      5.387
REMARK  1 active torsions:
REMARK  status: ('A' for Active; 'I' for Inactive)
REMARK    1  A    between atoms: C2_2  and  N1_4 
ROOT
HETATM    1  N1  UNL     1      22.982   1.313  51.801  1.00  0.00    -0.344 N 
HETATM    2  C4  UNL     1      24.214   1.170  52.359  1.00  0.00     0.027 A 
HETATM    3  C5  UNL     1      24.184   0.268  53.386  1.00  0.00     0.049 A 
HETATM    4  C6  UNL     1      22.868  -0.163  53.461  1.00  0.00     0.058 A 
HETATM    5  C7  UNL     1      22.127   0.493  52.471  1.00  0.00     0.061 A 
HETATM    6  C8  UNL     1      20.752  -0.010  52.608  1.00  0.00     0.006 A 
HETATM    7  C9  UNL     1      19.601   0.280  51.908  1.00  0.00     0.014 A 
HETATM    8  C10 UNL     1      18.379  -0.314  52.201  1.00  0.00     0.001 A 
HETATM    9  C11 UNL     1      18.383  -1.220  53.243  1.00  0.00     0.001 A 
HETATM   10  C12 UNL     1      19.499  -1.554  53.984  1.00  0.00     0.016 A 
HETATM   11  C13 UNL     1      20.698  -0.923  53.641  1.00  0.00     0.027 A 
HETATM   12  C14 UNL     1      22.021  -1.074  54.237  1.00  0.00     0.196 A 
HETATM   13  O1  UNL     1      22.383  -1.799  55.187  1.00  0.00    -0.286 OA
HETATM   14  C15 UNL     1      25.403  -0.052  54.144  1.00  0.00     0.162 C 
HETATM   15  O2  UNL     1      25.463  -1.141  54.779  1.00  0.00    -0.292 OA
HETATM   16  C16 UNL     1      26.461   1.016  54.051  1.00  0.00     0.084 C 
HETATM   17  C17 UNL     1      26.677   1.221  52.568  1.00  0.00     0.014 C 
HETATM   18  C18 UNL     1      25.457   1.848  51.977  1.00  0.00     0.059 C 
ENDROOT
BRANCH   1  19
HETATM   19  C2  UNL     1      22.607   2.171  50.695  1.00  0.00     0.082 C 
HETATM   20  C1  UNL     1      22.058   1.295  49.584  1.00  0.00     0.032 C 
HETATM   21  C3  UNL     1      21.717   3.302  51.081  1.00  0.00     0.032 C 
ENDBRANCH   1  19
TORSDOF 1
ENDMDL
MODEL 4
REMARK VINA RESULT:      -8.1      2.000      3.401
REMARK  1 active torsions:
REMARK  status: ('A' for Active; 'I' for Inactive)
REMARK    1  A    between atoms: C2_2  and  N1_4 
ROOT
HETATM    1  N1  UNL     1      22.089   2.187  51.962  1.00  0.00    -0.344 N 
HETATM    2  C4  UNL     1      22.066   1.150  52.843  1.00  0.00     0.027 A 
HETATM    3  C5  UNL     1      23.318   0.630  53.018  1.00  0.00     0.049 A 
HETATM    4  C6  UNL     1      24.149   1.386  52.204  1.00  0.00     0.058 A 
HETATM    5  C7  UNL     1      23.375   2.351  51.551  1.00  0.00     0.061 A 
HETATM    6  C8  UNL     1      24.315   3.110  50.711  1.00  0.00     0.006 A 
HETATM    7  C9  UNL     1      24.120   4.171  49.855  1.00  0.00     0.014 A 
HETATM    8  C10 UNL     1      25.159   4.756  49.141  1.00  0.00     0.001 A 
HETATM    9  C11 UNL     1      26.411   4.207  49.340  1.00  0.00     0.001 A 
HETATM   10  C12 UNL     1      26.673   3.145  50.182  1.00  0.00     0.016 A 
HETATM   11  C13 UNL     1      25.587   2.601  50.872  1.00  0.00     0.027 A 
HETATM   12  C14 UNL     1      25.559   1.490  51.817  1.00  0.00     0.196 A 
HETATM   13  O1  UNL     1      26.498   0.774  52.224  1.00  0.00    -0.286 OA
HETATM   14  C15 UNL     1      23.543  -0.503  53.927  1.00  0.00     0.162 C 
HETATM   15  O2  UNL     1      24.702  -0.699  54.390  1.00  0.00    -0.292 OA
HETATM   16  C16 UNL     1      22.300  -1.310  54.194  1.00  0.00     0.084 C 
HETATM   17  C17 UNL     1      21.281  -0.304  54.681  1.00  0.00     0.014 C 
HETATM   18  C18 UNL     1      20.907   0.600  53.554  1.00  0.00     0.059 C 
ENDROOT
BRANCH   1  19
HETATM   19  C2  UNL     1      20.970   2.993  51.518  1.00  0.00     0.082 C 
HETATM   20  C1  UNL     1      21.202   4.418  51.981  1.00  0.00     0.032 C 
HETATM   21  C3  UNL     1      20.668   2.861  50.065  1.00  0.00     0.032 C 
ENDBRANCH   1  19
TORSDOF 1
ENDMDL
MODEL 5
REMARK VINA RESULT:      -7.7      2.556      5.334
REMARK  1 active torsions:
REMARK  status: ('A' for Active; 'I' for Inactive)
REMARK    1  A    between atoms: C2_2  and  N1_4 
ROOT
HETATM    1  N1  UNL     1      23.324   1.242  51.816  1.00  0.00    -0.344 N 
HETATM    2  C4  UNL     1      24.327   0.598  52.472  1.00  0.00     0.027 A 
HETATM    3  C5  UNL     1      25.540   1.156  52.179  1.00  0.00     0.049 A 
HETATM    4  C6  UNL     1      25.267   2.193  51.299  1.00  0.00     0.058 A 
HETATM    5  C7  UNL     1      23.886   2.238  51.078  1.00  0.00     0.061 A 
HETATM    6  C8  UNL     1      23.671   3.353  50.143  1.00  0.00     0.006 A 
HETATM    7  C9  UNL     1      22.522   3.860  49.577  1.00  0.00     0.014 A 
HETATM    8  C10 UNL     1      22.534   4.938  48.702  1.00  0.00     0.001 A 
HETATM    9  C11 UNL     1      23.774   5.479  48.426  1.00  0.00     0.001 A 
HETATM   10  C12 UNL     1      24.962   5.018  48.958  1.00  0.00     0.016 A 
HETATM   11  C13 UNL     1      24.884   3.931  49.833  1.00  0.00     0.027 A 
HETATM   12  C14 UNL     1      25.958   3.239  50.539  1.00  0.00     0.196 A 
HETATM   13  O1  UNL     1      27.187   3.459  50.522  1.00  0.00    -0.286 OA
HETATM   14  C15 UNL     1      26.776   0.627  52.773  1.00  0.00     0.162 C 
HETATM   15  O2  UNL     1      27.796   1.369  52.834  1.00  0.00    -0.292 OA
HETATM   16  C16 UNL     1      26.647  -0.796  53.251  1.00  0.00     0.084 C 
HETATM   17  C17 UNL     1      25.455  -0.786  54.182  1.00  0.00     0.014 C 
HETATM   18  C18 UNL     1      24.215  -0.543  53.387  1.00  0.00     0.059 C 
ENDROOT
BRANCH   1  19
HETATM   19  C2  UNL     1      21.906   0.950  51.865  1.00  0.00     0.082 C 
HETATM   20  C1  UNL     1      21.206   2.124  52.523  1.00  0.00     0.032 C 
HETATM   21  C3  UNL     1      21.325   0.545  50.555  1.00  0.00     0.032 C 
ENDBRANCH   1  19
TORSDOF 1
ENDMDL
MODEL 6
REMARK VINA RESULT:      -7.7      2.537      5.684
REMARK  1 active torsions:
REMARK  status: ('A' for Active; 'I' for Inactive)
REMARK    1  A    between atoms: C2_2  and  N1_4 
ROOT
HETATM    1  N1  UNL     1      25.229   1.563  52.221  1.00  0.00    -0.344 N 
HETATM    2  C4  UNL     1      25.149   2.552  51.291  1.00  0.00     0.027 A 
HETATM    3  C5  UNL     1      23.846   2.832  50.986  1.00  0.00     0.049 A 
HETATM    4  C6  UNL     1      23.091   1.972  51.769  1.00  0.00     0.058 A 
HETATM    5  C7  UNL     1      23.959   1.186  52.533  1.00  0.00     0.061 A 
HETATM    6  C8  UNL     1      23.095   0.304  53.333  1.00  0.00     0.006 A 
HETATM    7  C9  UNL     1      23.395  -0.673  54.257  1.00  0.00     0.014 A 
HETATM    8  C10 UNL     1      22.414  -1.406  54.913  1.00  0.00     0.001 A 
HETATM    9  C11 UNL     1      21.109  -1.099  54.584  1.00  0.00     0.001 A 
HETATM   10  C12 UNL     1      20.742  -0.134  53.667  1.00  0.00     0.016 A 
HETATM   11  C13 UNL     1      21.774   0.570  53.041  1.00  0.00     0.027 A 
HETATM   12  C14 UNL     1      21.691   1.632  52.043  1.00  0.00     0.196 A 
HETATM   13  O1  UNL     1      20.682   2.152  51.523  1.00  0.00    -0.286 OA
HETATM   14  C15 UNL     1      23.509   3.871  50.002  1.00  0.00     0.162 C 
HETATM   15  O2  UNL     1      22.361   4.397  50.032  1.00  0.00    -0.292 OA
HETATM   16  C16 UNL     1      24.634   4.178  49.049  1.00  0.00     0.084 C 
HETATM   17  C17 UNL     1      25.814   4.510  49.935  1.00  0.00     0.014 C 
HETATM   18  C18 UNL     1      26.253   3.274  50.650  1.00  0.00     0.059 C 
ENDROOT
BRANCH   1  19
HETATM   19  C2  UNL     1      26.427   0.988  52.799  1.00  0.00     0.082 C 
HETATM   20  C1  UNL     1      26.807  -0.231  51.981  1.00  0.00     0.032 C 
HETATM   21  C3  UNL     1      27.534   1.966  52.993  1.00  0.00     0.032 C 
ENDBRANCH   1  19
TORSDOF 1
ENDMDL
MODEL 7
REMARK VINA RESULT:      -7.6      1.522      2.502
REMARK  1 active torsions:
REMARK  status: ('A' for Active; 'I' for Inactive)
REMARK    1  A    between atoms: C2_2  and  N1_4 
ROOT
HETATM    1  N1  UNL     1      22.168   2.190  51.733  1.00  0.00    -0.344 N 
HETATM    2  C4  UNL     1      20.886   1.743  51.648  1.00  0.00     0.027 A 
HETATM    3  C5  UNL     1      20.724   0.588  52.362  1.00  0.00     0.049 A 
HETATM    4  C6  UNL     1      21.967   0.316  52.912  1.00  0.00     0.058 A 
HETATM    5  C7  UNL     1      22.860   1.317  52.515  1.00  0.00     0.061 A 
HETATM    6  C8  UNL     1      24.149   0.967  53.130  1.00  0.00     0.006 A 
HETATM    7  C9  UNL     1      25.379   1.585  53.086  1.00  0.00     0.014 A 
HETATM    8  C10 UNL     1      26.492   1.083  53.749  1.00  0.00     0.001 A 
HETATM    9  C11 UNL     1      26.294  -0.084  54.461  1.00  0.00     0.001 A 
HETATM   10  C12 UNL     1      25.089  -0.753  54.545  1.00  0.00     0.016 A 
HETATM   11  C13 UNL     1      24.008  -0.197  53.857  1.00  0.00     0.027 A 
HETATM   12  C14 UNL     1      22.632  -0.675  53.764  1.00  0.00     0.196 A 
HETATM   13  O1  UNL     1      22.109  -1.687  54.277  1.00  0.00    -0.286 OA
HETATM   14  C15 UNL     1      19.418  -0.085  52.419  1.00  0.00     0.162 C 
HETATM   15  O2  UNL     1      19.175  -0.876  53.374  1.00  0.00    -0.292 OA
HETATM   16  C16 UNL     1      18.508   0.280  51.276  1.00  0.00     0.084 C 
HETATM   17  C17 UNL     1      18.439   1.790  51.302  1.00  0.00     0.014 C 
HETATM   18  C18 UNL     1      19.769   2.348  50.916  1.00  0.00     0.059 C 
ENDROOT
BRANCH   1  19
HETATM   19  C2  UNL     1      22.732   3.375  51.118  1.00  0.00     0.082 C 
HETATM   20  C1  UNL     1      23.127   4.337  52.222  1.00  0.00     0.032 C 
HETATM   21  C3  UNL     1      23.815   3.089  50.136  1.00  0.00     0.032 C 
ENDBRANCH   1  19
TORSDOF 1
ENDMDL
MODEL 8
REMARK VINA RESULT:      -7.3      2.339      6.208
REMARK  1 active torsions:
REMARK  status: ('A' for Active; 'I' for Inactive)
REMARK    1  A    between atoms: C2_2  and  N1_4 
ROOT
HETATM    1  N1  UNL     1      21.137   1.246  50.829  1.00  0.00    -0.344 N 
HETATM    2  C4  UNL     1      22.377   1.304  51.386  1.00  0.00     0.027 A 
HETATM    3  C5  UNL     1      22.429   0.569  52.538  1.00  0.00     0.049 A 
HETATM    4  C6  UNL     1      21.159   0.035  52.693  1.00  0.00     0.058 A 
HETATM    5  C7  UNL     1      20.361   0.462  51.626  1.00  0.00     0.061 A 
HETATM    6  C8  UNL     1      19.038  -0.139  51.854  1.00  0.00     0.006 A 
HETATM    7  C9  UNL     1      17.867  -0.065  51.133  1.00  0.00     0.014 A 
HETATM    8  C10 UNL     1      16.705  -0.718  51.527  1.00  0.00     0.001 A 
HETATM    9  C11 UNL     1      16.791  -1.452  52.694  1.00  0.00     0.001 A 
HETATM   10  C12 UNL     1      17.933  -1.565  53.462  1.00  0.00     0.016 A 
HETATM   11  C13 UNL     1      19.068  -0.886  53.013  1.00  0.00     0.027 A 
HETATM   12  C14 UNL     1      20.399  -0.822  53.609  1.00  0.00     0.196 A 
HETATM   13  O1  UNL     1      20.825  -1.359  54.653  1.00  0.00    -0.286 OA
HETATM   14  C15 UNL     1      23.671   0.481  53.320  1.00  0.00     0.162 C 
HETATM   15  O2  UNL     1      23.831  -0.490  54.112  1.00  0.00    -0.292 OA
HETATM   16  C16 UNL     1      24.625   1.615  53.054  1.00  0.00     0.084 C 
HETATM   17  C17 UNL     1      24.824   1.612  51.555  1.00  0.00     0.014 C 
HETATM   18  C18 UNL     1      23.552   2.027  50.891  1.00  0.00     0.059 C 
ENDROOT
BRANCH   1  19
HETATM   19  C2  UNL     1      20.686   1.888  49.610  1.00  0.00     0.082 C 
HETATM   20  C1  UNL     1      20.529   3.370  49.889  1.00  0.00     0.032 C 
HETATM   21  C3  UNL     1      21.518   1.572  48.416  1.00  0.00     0.032 C 
ENDBRANCH   1  19
TORSDOF 1
ENDMDL
MODEL 9
REMARK VINA RESULT:      -7.3      2.471      4.927
REMARK  1 active torsions:
REMARK  status: ('A' for Active; 'I' for Inactive)
REMARK    1  A    between atoms: C2_2  and  N1_4 
ROOT
HETATM    1  N1  UNL     1      24.076   2.074  52.592  1.00  0.00    -0.344 N 
HETATM    2  C4  UNL     1      23.287   1.057  53.030  1.00  0.00     0.027 A 
HETATM    3  C5  UNL     1      21.964   1.395  52.948  1.00  0.00     0.049 A 
HETATM    4  C6  UNL     1      21.943   2.682  52.433  1.00  0.00     0.058 A 
HETATM    5  C7  UNL     1      23.262   3.097  52.215  1.00  0.00     0.061 A 
HETATM    6  C8  UNL     1      23.164   4.461  51.673  1.00  0.00     0.006 A 
HETATM    7  C9  UNL     1      24.132   5.357  51.277  1.00  0.00     0.014 A 
HETATM    8  C10 UNL     1      23.826   6.619  50.784  1.00  0.00     0.001 A 
HETATM    9  C11 UNL     1      22.482   6.930  50.714  1.00  0.00     0.001 A 
HETATM   10  C12 UNL     1      21.463   6.079  51.094  1.00  0.00     0.016 A 
HETATM   11  C13 UNL     1      21.836   4.823  51.582  1.00  0.00     0.027 A 
HETATM   12  C14 UNL     1      20.991   3.730  52.052  1.00  0.00     0.196 A 
HETATM   13  O1  UNL     1      19.746   3.668  52.126  1.00  0.00    -0.286 OA
HETATM   14  C15 UNL     1      20.918   0.451  53.367  1.00  0.00     0.162 C 
HETATM   15  O2  UNL     1      19.746   0.593  52.917  1.00  0.00    -0.292 OA
HETATM   16  C16 UNL     1      21.413  -0.604  54.321  1.00  0.00     0.084 C 
HETATM   17  C17 UNL     1      22.591  -1.241  53.617  1.00  0.00     0.014 C 
HETATM   18  C18 UNL     1      23.707  -0.253  53.537  1.00  0.00     0.059 C 
ENDROOT
BRANCH   1  19
HETATM   19  C2  UNL     1      25.523   2.102  52.523  1.00  0.00     0.082 C 
HETATM   20  C1  UNL     1      26.061   2.219  53.936  1.00  0.00     0.032 C 
HETATM   21  C3  UNL     1      26.113   0.986  51.732  1.00  0.00     0.032 C 
ENDBRANCH   1  19
TORSDOF 1
ENDMDL
