MODEL 1
REMARK VINA RESULT:      -8.4      0.000      0.000
REMARK  3 active torsions:
REMARK  status: ('A' for Active; 'I' for Inactive)
REMARK    1  A    between atoms: C6_7  and  C7_8 
REMARK    2  A    between atoms: C9_10  and  N1_11 
REMARK    3  A    between atoms: N1_11  and  C10_12 
ROOT
HETATM    1  C7  UNL     1      22.991   1.415  51.862  1.00  0.00     0.065 A 
HETATM    2  C8  UNL     1      23.972   2.172  51.485  1.00  0.00     0.083 A 
HETATM    3  C9  UNL     1      25.134   2.801  51.756  1.00  0.00     0.145 A 
HETATM    4  N2  UNL     1      25.808   3.543  50.860  1.00  0.00    -0.223 NA
HETATM    5  C16 UNL     1      25.300   3.682  49.597  1.00  0.00     0.237 A 
HETATM    6  N3  UNL     1      24.134   3.048  49.339  1.00  0.00    -0.221 NA
HETATM    7  C17 UNL     1      23.461   2.309  50.223  1.00  0.00     0.167 A 
HETATM    8  N4  UNL     1      22.457   1.556  50.547  1.00  0.00    -0.231 NA
ENDROOT
BRANCH   3   9
HETATM    9  N1  UNL     1      25.821   2.800  52.974  1.00  0.00    -0.340 N 
HETATM   10  H10 UNL     1      25.752   3.465  53.774  1.00  0.00     0.167 HD
BRANCH   9  11
HETATM   11  C10 UNL     1      26.704   1.674  53.041  1.00  0.00     0.035 A 
HETATM   12  C11 UNL     1      27.977   2.073  53.480  1.00  0.00     0.029 A 
HETATM   13  C12 UNL     1      28.999   1.166  53.639  1.00  0.00     0.004 A 
HETATM   14  C13 UNL     1      28.746  -0.162  53.352  1.00  0.00     0.024 A 
HETATM   15  C14 UNL     1      27.489  -0.580  52.915  1.00  0.00     0.036 A 
HETATM   16 CL1  UNL     1      27.085  -2.240  52.540  1.00  0.00    -0.084 Cl
HETATM   17  C15 UNL     1      26.479   0.354  52.764  1.00  0.00     0.053 A 
ENDBRANCH   9  11
ENDBRANCH   3   9
BRANCH   1  18
HETATM   18  C6  UNL     1      22.478   0.672  52.989  1.00  0.00     0.090 C 
HETATM   19  C2  UNL     1      20.940   0.769  53.061  1.00  0.00     0.131 C 
HETATM   20  C1  UNL     1      20.518   2.162  52.775  1.00  0.00     0.040 C 
HETATM   21  O1  UNL     1      20.639   0.426  54.402  1.00  0.00    -0.382 OA
HETATM   22  C3  UNL     1      20.695  -0.985  54.402  1.00  0.00     0.195 C 
HETATM   23  C4  UNL     1      21.992  -1.440  53.802  1.00  0.00    -0.004 C 
HETATM   24  C5  UNL     1      22.898  -0.723  53.118  1.00  0.00    -0.015 C 
ENDBRANCH   1  18
TORSDOF 3
ENDMDL
MODEL 2
REMARK VINA RESULT:      -8.3      2.566      5.357
REMARK  3 active torsions:
REMARK  status: ('A' for Active; 'I' for Inactive)
REMARK    1  A    between atoms: C6_7  and  C7_8 
REMARK    2  A    between atoms: C9_10  and  N1_11 
REMARK    3  A    between atoms: N1_11  and  C10_12 
ROOT
HETATM    1  C7  UNL     1      26.595   2.225  51.965  1.00  0.00     0.065 A 
HETATM    2  C8  UNL     1      25.479   2.740  51.556  1.00  0.00     0.083 A 
HETATM    3  C9  UNL     1      24.195   3.082  51.790  1.00  0.00     0.145 A 
HETATM    4  N2  UNL     1      23.406   3.680  50.881  1.00  0.00    -0.223 NA
HETATM    5  C16 UNL     1      23.915   3.962  49.642  1.00  0.00     0.237 A 
HETATM    6  N3  UNL     1      25.202   3.612  49.421  1.00  0.00    -0.221 NA
HETATM    7  C17 UNL     1      25.992   3.020  50.319  1.00  0.00     0.167 A 
HETATM    8  N4  UNL     1      27.131   2.516  50.675  1.00  0.00    -0.231 NA
ENDROOT
BRANCH   3   9
HETATM    9  N1  UNL     1      23.478   2.881  52.973  1.00  0.00    -0.340 N 
HETATM   10  H10 UNL     1      23.420   3.482  53.823  1.00  0.00     0.167 HD
BRANCH   9  11
HETATM   11  C10 UNL     1      22.736   1.658  52.897  1.00  0.00     0.035 A 
HETATM   12  C11 UNL     1      23.497   0.588  53.395  1.00  0.00     0.029 A 
HETATM   13  C12 UNL     1      22.995  -0.691  53.441  1.00  0.00     0.004 A 
HETATM   14  C13 UNL     1      21.710  -0.907  52.979  1.00  0.00     0.024 A 
HETATM   15  C14 UNL     1      20.936   0.141  52.481  1.00  0.00     0.036 A 
HETATM   16 CL1  UNL     1      19.302  -0.046  51.886  1.00  0.00    -0.084 Cl
HETATM   17  C15 UNL     1      21.467   1.418  52.446  1.00  0.00     0.053 A 
ENDBRANCH   9  11
ENDBRANCH   3   9
BRANCH   1  18
HETATM   18  C6  UNL     1      27.229   1.610  53.107  1.00  0.00     0.090 C 
HETATM   19  C2  UNL     1      27.619   0.148  52.803  1.00  0.00     0.131 C 
HETATM   20  C1  UNL     1      26.519  -0.513  52.059  1.00  0.00     0.040 C 
HETATM   21  O1  UNL     1      27.773  -0.437  54.083  1.00  0.00    -0.382 OA
HETATM   22  C3  UNL     1      29.063  -0.024  54.482  1.00  0.00     0.195 C 
HETATM   23  C4  UNL     1      29.185   1.464  54.338  1.00  0.00    -0.004 C 
HETATM   24  C5  UNL     1      28.362   2.315  53.705  1.00  0.00    -0.015 C 
ENDBRANCH   1  18
TORSDOF 3
ENDMDL
MODEL 3
REMARK VINA RESULT:      -8.2      2.616      4.575
REMARK  3 active torsions:
REMARK  status: ('A' for Active; 'I' for Inactive)
REMARK    1  A    between atoms: C6_7  and  C7_8 
REMARK    2  A    between atoms: C9_10  and  N1_11 
REMARK    3  A    between atoms: N1_11  and  C10_12 
ROOT
HETATM    1  C7  UNL     1      25.755  -0.792  53.387  1.00  0.00     0.065 A 
HETATM    2  C8  UNL     1      26.741   0.018  53.612  1.00  0.00     0.083 A 
HETATM    3  C9  UNL     1      27.192   1.242  53.957  1.00  0.00     0.145 A 
HETATM    4  N2  UNL     1      28.496   1.556  54.052  1.00  0.00    -0.223 NA
HETATM    5  C16 UNL     1      29.432   0.594  53.786  1.00  0.00     0.237 A 
HETATM    6  N3  UNL     1      28.966  -0.627  53.440  1.00  0.00    -0.221 NA
HETATM    7  C17 UNL     1      27.674  -0.946  53.345  1.00  0.00     0.167 A 
HETATM    8  N4  UNL     1      26.727  -1.799  53.107  1.00  0.00    -0.231 NA
ENDROOT
BRANCH   3   9
HETATM    9  N1  UNL     1      26.417   2.364  54.261  1.00  0.00    -0.340 N 
HETATM   10  H10 UNL     1      26.320   2.879  55.162  1.00  0.00     0.167 HD
BRANCH   9  11
HETATM   11  C10 UNL     1      25.707   2.803  53.096  1.00  0.00     0.035 A 
HETATM   12  C11 UNL     1      24.417   3.239  53.440  1.00  0.00     0.029 A 
HETATM   13  C12 UNL     1      23.545   3.722  52.493  1.00  0.00     0.004 A 
HETATM   14  C13 UNL     1      23.968   3.770  51.178  1.00  0.00     0.024 A 
HETATM   15  C14 UNL     1      25.245   3.344  50.814  1.00  0.00     0.036 A 
HETATM   16 CL1  UNL     1      25.859   3.379  49.177  1.00  0.00    -0.084 Cl
HETATM   17  C15 UNL     1      26.102   2.862  51.787  1.00  0.00     0.053 A 
ENDBRANCH   9  11
ENDBRANCH   3   9
BRANCH   1  18
HETATM   18  C6  UNL     1      24.314  -0.875  53.370  1.00  0.00     0.090 C 
HETATM   19  C2  UNL     1      23.729  -0.626  54.775  1.00  0.00     0.131 C 
HETATM   20  C1  UNL     1      24.549  -1.337  55.786  1.00  0.00     0.040 C 
HETATM   21  O1  UNL     1      22.430  -1.186  54.708  1.00  0.00    -0.382 OA
HETATM   22  C3  UNL     1      21.673  -0.188  54.058  1.00  0.00     0.195 C 
HETATM   23  C4  UNL     1      22.360   0.222  52.789  1.00  0.00    -0.004 C 
HETATM   24  C5  UNL     1      23.608  -0.060  52.382  1.00  0.00    -0.015 C 
ENDBRANCH   1  18
TORSDOF 3
ENDMDL
MODEL 4
REMARK VINA RESULT:      -8.1      2.800      5.684
REMARK  3 active torsions:
REMARK  status: ('A' for Active; 'I' for Inactive)
REMARK    1  A    between atoms: C6_7  and  C7_8 
REMARK    2  A    between atoms: C9_10  and  N1_11 
REMARK    3  A    between atoms: N1_11  and  C10_12 
ROOT
HETATM    1  C7  UNL     1      24.408  -0.465  53.635  1.00  0.00     0.065 A 
HETATM    2  C8  UNL     1      23.140  -0.374  53.388  1.00  0.00     0.083 A 
HETATM    3  C9  UNL     1      22.134  -0.039  52.555  1.00  0.00     0.145 A 
HETATM    4  N2  UNL     1      20.833  -0.189  52.859  1.00  0.00    -0.223 NA
HETATM    5  C16 UNL     1      20.491  -0.707  54.079  1.00  0.00     0.237 A 
HETATM    6  N3  UNL     1      21.510  -1.036  54.904  1.00  0.00    -0.221 NA
HETATM    7  C17 UNL     1      22.803  -0.892  54.609  1.00  0.00     0.167 A 
HETATM    8  N4  UNL     1      24.059  -1.004  54.909  1.00  0.00    -0.231 NA
ENDROOT
BRANCH   3   9
HETATM    9  N1  UNL     1      22.254   0.509  51.274  1.00  0.00    -0.340 N 
HETATM   10  H10 UNL     1      21.926   0.133  50.359  1.00  0.00     0.167 HD
BRANCH   9  11
HETATM   11  C10 UNL     1      22.921   1.775  51.341  1.00  0.00     0.035 A 
HETATM   12  C11 UNL     1      22.171   2.687  52.101  1.00  0.00     0.029 A 
HETATM   13  C12 UNL     1      22.610   3.971  52.322  1.00  0.00     0.004 A 
HETATM   14  C13 UNL     1      23.820   4.353  51.773  1.00  0.00     0.024 A 
HETATM   15  C14 UNL     1      24.582   3.464  51.016  1.00  0.00     0.036 A 
HETATM   16 CL1  UNL     1      26.124   3.864  50.295  1.00  0.00    -0.084 Cl
HETATM   17  C15 UNL     1      24.115   2.178  50.809  1.00  0.00     0.053 A 
ENDBRANCH   9  11
ENDBRANCH   3   9
BRANCH   1  18
HETATM   18  C6  UNL     1      25.713  -0.219  53.067  1.00  0.00     0.090 C 
HETATM   19  C2  UNL     1      26.448   0.900  53.833  1.00  0.00     0.131 C 
HETATM   20  C1  UNL     1      25.499   1.999  54.135  1.00  0.00     0.040 C 
HETATM   21  O1  UNL     1      27.442   1.339  52.924  1.00  0.00    -0.382 OA
HETATM   22  C3  UNL     1      28.464   0.376  53.061  1.00  0.00     0.195 C 
HETATM   23  C4  UNL     1      27.886  -1.000  52.905  1.00  0.00    -0.004 C 
HETATM   24  C5  UNL     1      26.597  -1.372  52.896  1.00  0.00    -0.015 C 
ENDBRANCH   1  18
TORSDOF 3
ENDMDL
MODEL 5
REMARK VINA RESULT:      -7.9      3.042      5.294
REMARK  3 active torsions:
REMARK  status: ('A' for Active; 'I' for Inactive)
REMARK    1  A    between atoms: C6_7  and  C7_8 
REMARK    2  A    between atoms: C9_10  and  N1_11 
REMARK    3  A    between atoms: N1_11  and  C10_12 
ROOT
HETATM    1  C7  UNL     1      24.787  -0.244  53.639  1.00  0.00     0.065 A 
HETATM    2  C8  UNL     1      23.959   0.662  53.227  1.00  0.00     0.083 A 
HETATM    3  C9  UNL     1      23.692   1.950  52.925  1.00  0.00     0.145 A 
HETATM    4  N2  UNL     1      22.502   2.377  52.467  1.00  0.00    -0.223 NA
HETATM    5  C16 UNL     1      21.493   1.469  52.292  1.00  0.00     0.237 A 
HETATM    6  N3  UNL     1      21.775   0.183  52.599  1.00  0.00    -0.221 NA
HETATM    7  C17 UNL     1      22.953  -0.248  53.053  1.00  0.00     0.167 A 
HETATM    8  N4  UNL     1      23.739  -1.195  53.460  1.00  0.00    -0.231 NA
ENDROOT
BRANCH   3   9
HETATM    9  N1  UNL     1      24.567   3.034  53.036  1.00  0.00    -0.340 N 
HETATM   10  H10 UNL     1      24.895   3.538  53.888  1.00  0.00     0.167 HD
BRANCH   9  11
HETATM   11  C10 UNL     1      25.040   3.419  51.739  1.00  0.00     0.035 A 
HETATM   12  C11 UNL     1      26.094   2.585  51.332  1.00  0.00     0.029 A 
HETATM   13  C12 UNL     1      26.709   2.747  50.113  1.00  0.00     0.004 A 
HETATM   14  C13 UNL     1      26.265   3.761  49.285  1.00  0.00     0.024 A 
HETATM   15  C14 UNL     1      25.219   4.600  49.669  1.00  0.00     0.036 A 
HETATM   16 CL1  UNL     1      24.593   5.899  48.679  1.00  0.00    -0.084 Cl
HETATM   17  C15 UNL     1      24.619   4.415  50.901  1.00  0.00     0.053 A 
ENDBRANCH   9  11
ENDBRANCH   3   9
BRANCH   1  18
HETATM   18  C6  UNL     1      26.141  -0.444  54.098  1.00  0.00     0.090 C 
HETATM   19  C2  UNL     1      27.074  -0.814  52.927  1.00  0.00     0.131 C 
HETATM   20  C1  UNL     1      26.390  -1.785  52.038  1.00  0.00     0.040 C 
HETATM   21  O1  UNL     1      28.189  -1.419  53.556  1.00  0.00    -0.382 OA
HETATM   22  C3  UNL     1      28.951  -0.320  54.006  1.00  0.00     0.195 C 
HETATM   23  C4  UNL     1      28.080   0.611  54.796  1.00  0.00    -0.004 C 
HETATM   24  C5  UNL     1      26.741   0.623  54.898  1.00  0.00    -0.015 C 
ENDBRANCH   1  18
TORSDOF 3
ENDMDL
MODEL 6
REMARK VINA RESULT:      -7.8      2.417      4.542
REMARK  3 active torsions:
REMARK  status: ('A' for Active; 'I' for Inactive)
REMARK    1  A    between atoms: C6_7  and  C7_8 
REMARK    2  A    between atoms: C9_10  and  N1_11 
REMARK    3  A    between atoms: N1_11  and  C10_12 
ROOT
HETATM    1  C7  UNL     1      23.295   2.447  49.792  1.00  0.00     0.065 A 
HETATM    2  C8  UNL     1      22.856   1.861  50.861  1.00  0.00     0.083 A 
HETATM    3  C9  UNL     1      22.936   1.642  52.190  1.00  0.00     0.145 A 
HETATM    4  N2  UNL     1      22.098   0.835  52.864  1.00  0.00    -0.223 NA
HETATM    5  C16 UNL     1      21.105   0.188  52.180  1.00  0.00     0.237 A 
HETATM    6  N3  UNL     1      21.037   0.416  50.849  1.00  0.00    -0.221 NA
HETATM    7  C17 UNL     1      21.863   1.217  50.174  1.00  0.00     0.167 A 
HETATM    8  N4  UNL     1      22.262   1.775  49.074  1.00  0.00    -0.231 NA
ENDROOT
BRANCH   3   9
HETATM    9  N1  UNL     1      23.871   2.189  53.073  1.00  0.00    -0.340 N 
HETATM   10  H10 UNL     1      23.766   2.981  53.743  1.00  0.00     0.167 HD
BRANCH   9  11
HETATM   11  C10 UNL     1      25.110   1.475  52.983  1.00  0.00     0.035 A 
HETATM   12  C11 UNL     1      26.193   2.338  53.220  1.00  0.00     0.029 A 
HETATM   13  C12 UNL     1      27.491   1.884  53.202  1.00  0.00     0.004 A 
HETATM   14  C13 UNL     1      27.712   0.545  52.940  1.00  0.00     0.024 A 
HETATM   15  C14 UNL     1      26.652  -0.330  52.702  1.00  0.00     0.036 A 
HETATM   16 CL1  UNL     1      26.846  -2.036  52.372  1.00  0.00    -0.084 Cl
HETATM   17  C15 UNL     1      25.356   0.155  52.727  1.00  0.00     0.053 A 
ENDBRANCH   9  11
ENDBRANCH   3   9
BRANCH   1  18
HETATM   18  C6  UNL     1      24.301   3.365  49.313  1.00  0.00     0.090 C 
HETATM   19  C2  UNL     1      23.976   4.812  49.735  1.00  0.00     0.131 C 
HETATM   20  C1  UNL     1      22.525   5.066  49.556  1.00  0.00     0.040 C 
HETATM   21  O1  UNL     1      24.732   5.607  48.840  1.00  0.00    -0.382 OA
HETATM   22  C3  UNL     1      26.030   5.584  49.394  1.00  0.00     0.195 C 
HETATM   23  C4  UNL     1      26.448   4.165  49.645  1.00  0.00    -0.004 C 
HETATM   24  C5  UNL     1      25.695   3.054  49.626  1.00  0.00    -0.015 C 
ENDBRANCH   1  18
TORSDOF 3
ENDMDL
MODEL 7
REMARK VINA RESULT:      -7.7      2.214      2.965
REMARK  3 active torsions:
REMARK  status: ('A' for Active; 'I' for Inactive)
REMARK    1  A    between atoms: C6_7  and  C7_8 
REMARK    2  A    between atoms: C9_10  and  N1_11 
REMARK    3  A    between atoms: N1_11  and  C10_12 
ROOT
HETATM    1  C7  UNL     1      20.718   1.901  52.313  1.00  0.00     0.065 A 
HETATM    2  C8  UNL     1      21.831   2.508  52.048  1.00  0.00     0.083 A 
HETATM    3  C9  UNL     1      23.100   2.475  51.589  1.00  0.00     0.145 A 
HETATM    4  N2  UNL     1      23.897   3.555  51.524  1.00  0.00    -0.223 NA
HETATM    5  C16 UNL     1      23.413   4.765  51.943  1.00  0.00     0.237 A 
HETATM    6  N3  UNL     1      22.141   4.783  52.402  1.00  0.00    -0.221 NA
HETATM    7  C17 UNL     1      21.344   3.716  52.468  1.00  0.00     0.167 A 
HETATM    8  N4  UNL     1      20.209   3.159  52.753  1.00  0.00    -0.231 NA
ENDROOT
BRANCH   3   9
HETATM    9  N1  UNL     1      23.791   1.354  51.122  1.00  0.00    -0.340 N 
HETATM   10  H10 UNL     1      23.808   0.936  50.167  1.00  0.00     0.167 HD
BRANCH   9  11
HETATM   11  C10 UNL     1      24.573   0.782  52.178  1.00  0.00     0.035 A 
HETATM   12  C11 UNL     1      25.941   1.016  51.960  1.00  0.00     0.029 A 
HETATM   13  C12 UNL     1      26.896   0.574  52.845  1.00  0.00     0.004 A 
HETATM   14  C13 UNL     1      26.478  -0.115  53.968  1.00  0.00     0.024 A 
HETATM   15  C14 UNL     1      25.125  -0.357  54.205  1.00  0.00     0.036 A 
HETATM   16 CL1  UNL     1      24.515  -1.213  55.603  1.00  0.00    -0.084 Cl
HETATM   17  C15 UNL     1      24.186   0.098  53.297  1.00  0.00     0.053 A 
ENDBRANCH   9  11
ENDBRANCH   3   9
BRANCH   1  18
HETATM   18  C6  UNL     1      20.071   0.612  52.268  1.00  0.00     0.090 C 
HETATM   19  C2  UNL     1      19.765   0.095  53.689  1.00  0.00     0.131 C 
HETATM   20  C1  UNL     1      20.925   0.366  54.573  1.00  0.00     0.040 C 
HETATM   21  O1  UNL     1      19.590  -1.299  53.515  1.00  0.00    -0.382 OA
HETATM   22  C3  UNL     1      18.267  -1.408  53.034  1.00  0.00     0.195 C 
HETATM   23  C4  UNL     1      18.078  -0.494  51.860  1.00  0.00    -0.004 C 
HETATM   24  C5  UNL     1      18.882   0.489  51.425  1.00  0.00    -0.015 C 
ENDBRANCH   1  18
TORSDOF 3
ENDMDL
MODEL 8
REMARK VINA RESULT:      -7.7      2.625      4.456
REMARK  3 active torsions:
REMARK  status: ('A' for Active; 'I' for Inactive)
REMARK    1  A    between atoms: C6_7  and  C7_8 
REMARK    2  A    between atoms: C9_10  and  N1_11 
REMARK    3  A    between atoms: N1_11  and  C10_12 
ROOT
HETATM    1  C7  UNL     1      23.806   0.234  53.295  1.00  0.00     0.065 A 
HETATM    2  C8  UNL     1      24.849   0.995  53.194  1.00  0.00     0.083 A 
HETATM    3  C9  UNL     1      25.410   2.222  53.245  1.00  0.00     0.145 A 
HETATM    4  N2  UNL     1      26.718   2.452  53.040  1.00  0.00    -0.223 NA
HETATM    5  C16 UNL     1      27.543   1.396  52.760  1.00  0.00     0.237 A 
HETATM    6  N3  UNL     1      26.967   0.174  52.711  1.00  0.00    -0.221 NA
HETATM    7  C17 UNL     1      25.670  -0.063  52.915  1.00  0.00     0.167 A 
HETATM    8  N4  UNL     1      24.660  -0.871  53.003  1.00  0.00    -0.231 NA
ENDROOT
BRANCH   3   9
HETATM    9  N1  UNL     1      24.757   3.430  53.505  1.00  0.00    -0.340 N 
HETATM   10  H10 UNL     1      24.822   4.053  54.338  1.00  0.00     0.167 HD
BRANCH   9  11
HETATM   11  C10 UNL     1      23.917   3.784  52.398  1.00  0.00     0.035 A 
HETATM   12  C11 UNL     1      22.595   3.982  52.828  1.00  0.00     0.029 A 
HETATM   13  C12 UNL     1      21.601   4.344  51.950  1.00  0.00     0.004 A 
HETATM   14  C13 UNL     1      21.932   4.510  50.618  1.00  0.00     0.024 A 
HETATM   15  C14 UNL     1      23.240   4.320  50.170  1.00  0.00     0.036 A 
HETATM   16 CL1  UNL     1      23.743   4.517  48.507  1.00  0.00    -0.084 Cl
HETATM   17  C15 UNL     1      24.220   3.955  51.076  1.00  0.00     0.053 A 
ENDBRANCH   9  11
ENDBRANCH   3   9
BRANCH   1  18
HETATM   18  C6  UNL     1      22.388   0.253  53.565  1.00  0.00     0.090 C 
HETATM   19  C2  UNL     1      21.575   0.005  52.278  1.00  0.00     0.131 C 
HETATM   20  C1  UNL     1      22.176   0.769  51.158  1.00  0.00     0.040 C 
HETATM   21  O1  UNL     1      20.287   0.506  52.585  1.00  0.00    -0.382 OA
HETATM   22  C3  UNL     1      19.697  -0.537  53.331  1.00  0.00     0.195 C 
HETATM   23  C4  UNL     1      20.612  -0.939  54.450  1.00  0.00    -0.004 C 
HETATM   24  C5  UNL     1      21.899  -0.611  54.639  1.00  0.00    -0.015 C 
ENDBRANCH   1  18
TORSDOF 3
ENDMDL
MODEL 9
REMARK VINA RESULT:      -7.7      2.688      5.700
REMARK  3 active torsions:
REMARK  status: ('A' for Active; 'I' for Inactive)
REMARK    1  A    between atoms: C6_7  and  C7_8 
REMARK    2  A    between atoms: C9_10  and  N1_11 
REMARK    3  A    between atoms: N1_11  and  C10_12 
ROOT
HETATM    1  C7  UNL     1      24.131   2.230  52.440  1.00  0.00     0.065 A 
HETATM    2  C8  UNL     1      23.062   2.775  51.951  1.00  0.00     0.083 A 
HETATM    3  C9  UNL     1      21.921   2.675  51.237  1.00  0.00     0.145 A 
HETATM    4  N2  UNL     1      21.076   3.701  51.036  1.00  0.00    -0.223 NA
HETATM    5  C16 UNL     1      21.374   4.923  51.575  1.00  0.00     0.237 A 
HETATM    6  N3  UNL     1      22.520   5.009  52.287  1.00  0.00    -0.221 NA
HETATM    7  C17 UNL     1      23.363   3.995  52.492  1.00  0.00     0.167 A 
HETATM    8  N4  UNL     1      24.447   3.502  53.003  1.00  0.00    -0.231 NA
ENDROOT
BRANCH   3   9
HETATM    9  N1  UNL     1      21.432   1.533  50.598  1.00  0.00    -0.340 N 
HETATM   10  H10 UNL     1      21.509   1.249  49.597  1.00  0.00     0.167 HD
BRANCH   9  11
HETATM   11  C10 UNL     1      20.765   0.687  51.542  1.00  0.00     0.035 A 
HETATM   12  C11 UNL     1      19.391   0.620  51.258  1.00  0.00     0.029 A 
HETATM   13  C12 UNL     1      18.536  -0.142  52.018  1.00  0.00     0.004 A 
HETATM   14  C13 UNL     1      19.061  -0.851  53.082  1.00  0.00     0.024 A 
HETATM   15  C14 UNL     1      20.423  -0.800  53.382  1.00  0.00     0.036 A 
HETATM   16 CL1  UNL     1      21.167  -1.671  54.703  1.00  0.00    -0.084 Cl
HETATM   17  C15 UNL     1      21.260  -0.024  52.600  1.00  0.00     0.053 A 
ENDBRANCH   9  11
ENDBRANCH   3   9
BRANCH   1  18
HETATM   18  C6  UNL     1      24.854   0.983  52.520  1.00  0.00     0.090 C 
HETATM   19  C2  UNL     1      26.341   1.181  52.160  1.00  0.00     0.131 C 
HETATM   20  C1  UNL     1      26.451   2.084  50.989  1.00  0.00     0.040 C 
HETATM   21  O1  UNL     1      26.788  -0.120  51.827  1.00  0.00    -0.382 OA
HETATM   22  C3  UNL     1      27.022  -0.721  53.082  1.00  0.00     0.195 C 
HETATM   23  C4  UNL     1      25.810  -0.563  53.952  1.00  0.00    -0.004 C 
HETATM   24  C5  UNL     1      24.737   0.220  53.762  1.00  0.00    -0.015 C 
ENDBRANCH   1  18
TORSDOF 3
ENDMDL
