MODEL 1
REMARK VINA RESULT:      -9.6      0.000      0.000
REMARK  3 active torsions:
REMARK  status: ('A' for Active; 'I' for Inactive)
REMARK    1  A    between atoms: O1_1  and  C1_2 
REMARK    2  A    between atoms: C4_5  and  C5_6 
REMARK    3  A    between atoms: C5_6  and  C6_7 
ROOT
HETATM    1  C1  UNL     1      29.265   1.885  54.013  1.00  0.00     0.043 C 
HETATM    2  C2  UNL     1      28.161   2.447  53.585  1.00  0.00     0.008 C 
HETATM    3  C3  UNL     1      27.510   1.546  52.634  1.00  0.00     0.068 C 
HETATM    4  C4  UNL     1      27.431   0.121  53.129  1.00  0.00     0.088 C 
HETATM    5  N4  UNL     1      26.726  -0.703  52.169  1.00  0.00    -0.267 NA
HETATM    6  C13 UNL     1      26.784  -1.975  51.973  1.00  0.00     0.227 C 
HETATM    7  N5  UNL     1      27.518  -3.041  52.576  1.00  0.00    -0.255 NA
HETATM    8  C14 UNL     1      28.649  -2.866  53.217  1.00  0.00     0.118 C 
HETATM    9  C15 UNL     1      29.387  -1.606  53.453  1.00  0.00     0.025 C 
HETATM   10  C16 UNL     1      28.798  -0.424  53.394  1.00  0.00    -0.042 C 
HETATM   11  C17 UNL     1      29.868   0.593  53.689  1.00  0.00     0.100 C 
ENDROOT
BRANCH   4  12
HETATM   12  C5  UNL     1      26.591   0.110  54.390  1.00  0.00     0.120 C 
BRANCH  12  13
HETATM   13  C6  UNL     1      25.176   0.307  53.985  1.00  0.00     0.151 A 
HETATM   14  N1  UNL     1      24.689   1.338  53.272  1.00  0.00    -0.134 NA
HETATM   15  N2  UNL     1      23.409   1.434  52.955  1.00  0.00    -0.146 NA
HETATM   16  C7  UNL     1      22.563   0.470  53.359  1.00  0.00     0.107 A 
HETATM   17  C8  UNL     1      21.210   0.478  53.080  1.00  0.00     0.036 A 
HETATM   18  C12 UNL     1      23.007  -0.611  54.093  1.00  0.00     0.089 A 
HETATM   19  C9  UNL     1      20.354  -0.529  53.508  1.00  0.00     0.003 A 
HETATM   20  C10 UNL     1      20.840  -1.593  54.241  1.00  0.00     0.002 A 
HETATM   21  C11 UNL     1      22.190  -1.629  54.536  1.00  0.00     0.034 A 
HETATM   22  N3  UNL     1      24.319  -0.659  54.388  1.00  0.00    -0.229 NA
ENDBRANCH  12  13
ENDBRANCH   4  12
BRANCH   1  23
HETATM   23  O1  UNL     1      29.982   2.642  54.928  1.00  0.00    -0.365 OA
HETATM   24  H1  UNL     1      30.979   2.546  55.059  1.00  0.00     0.217 HD
ENDBRANCH   1  23
TORSDOF 3
ENDMDL
MODEL 2
REMARK VINA RESULT:      -8.4      3.905      6.188
REMARK  3 active torsions:
REMARK  status: ('A' for Active; 'I' for Inactive)
REMARK    1  A    between atoms: O1_1  and  C1_2 
REMARK    2  A    between atoms: C4_5  and  C5_6 
REMARK    3  A    between atoms: C5_6  and  C6_7 
ROOT
HETATM    1  C1  UNL     1      23.843  -0.115  53.397  1.00  0.00     0.043 C 
HETATM    2  C2  UNL     1      23.511   1.112  53.076  1.00  0.00     0.008 C 
HETATM    3  C3  UNL     1      24.629   2.002  53.393  1.00  0.00     0.068 C 
HETATM    4  C4  UNL     1      25.958   1.479  52.902  1.00  0.00     0.088 C 
HETATM    5  N4  UNL     1      27.009   2.431  53.195  1.00  0.00    -0.267 NA
HETATM    6  C13 UNL     1      28.276   2.244  53.337  1.00  0.00     0.227 C 
HETATM    7  N5  UNL     1      29.125   1.099  53.273  1.00  0.00    -0.255 NA
HETATM    8  C14 UNL     1      28.699  -0.127  53.470  1.00  0.00     0.118 C 
HETATM    9  C15 UNL     1      27.328  -0.585  53.784  1.00  0.00     0.025 C 
HETATM   10  C16 UNL     1      26.262   0.148  53.512  1.00  0.00    -0.042 C 
HETATM   11  C17 UNL     1      25.074  -0.653  53.975  1.00  0.00     0.100 C 
ENDROOT
BRANCH   4  12
HETATM   12  C5  UNL     1      25.891   1.378  51.391  1.00  0.00     0.120 C 
BRANCH  12  13
HETATM   13  C6  UNL     1      25.745   2.755  50.857  1.00  0.00     0.151 A 
HETATM   14  N1  UNL     1      24.722   3.595  51.093  1.00  0.00    -0.134 NA
HETATM   15  N2  UNL     1      24.674   4.811  50.574  1.00  0.00    -0.146 NA
HETATM   16  C7  UNL     1      25.681   5.223  49.784  1.00  0.00     0.107 A 
HETATM   17  C8  UNL     1      25.724   6.472  49.195  1.00  0.00     0.036 A 
HETATM   18  C12 UNL     1      26.756   4.404  49.509  1.00  0.00     0.089 A 
HETATM   19  C9  UNL     1      26.774   6.878  48.382  1.00  0.00     0.003 A 
HETATM   20  C10 UNL     1      27.832   6.026  48.132  1.00  0.00     0.002 A 
HETATM   21  C11 UNL     1      27.817   4.769  48.707  1.00  0.00     0.034 A 
HETATM   22  N3  UNL     1      26.755   3.178  50.062  1.00  0.00    -0.229 NA
ENDBRANCH  12  13
ENDBRANCH   4  12
BRANCH   1  23
HETATM   23  O1  UNL     1      22.863  -1.063  53.144  1.00  0.00    -0.365 OA
HETATM   24  H1  UNL     1      22.905  -2.006  53.504  1.00  0.00     0.217 HD
ENDBRANCH   1  23
TORSDOF 3
ENDMDL
MODEL 3
REMARK VINA RESULT:      -8.2      3.228      6.357
REMARK  3 active torsions:
REMARK  status: ('A' for Active; 'I' for Inactive)
REMARK    1  A    between atoms: O1_1  and  C1_2 
REMARK    2  A    between atoms: C4_5  and  C5_6 
REMARK    3  A    between atoms: C5_6  and  C6_7 
ROOT
HETATM    1  C1  UNL     1      24.544  -1.016  55.045  1.00  0.00     0.043 C 
HETATM    2  C2  UNL     1      25.469  -0.777  54.147  1.00  0.00     0.008 C 
HETATM    3  C3  UNL     1      24.823  -0.536  52.856  1.00  0.00     0.068 C 
HETATM    4  C4  UNL     1      23.661   0.425  52.946  1.00  0.00     0.088 C 
HETATM    5  N4  UNL     1      23.107   0.663  51.630  1.00  0.00    -0.267 NA
HETATM    6  C13 UNL     1      21.925   1.047  51.290  1.00  0.00     0.227 C 
HETATM    7  N5  UNL     1      20.740   1.377  52.013  1.00  0.00    -0.255 NA
HETATM    8  C14 UNL     1      20.487   0.935  53.223  1.00  0.00     0.118 C 
HETATM    9  C15 UNL     1      21.314   0.048  54.070  1.00  0.00     0.025 C 
HETATM   10  C16 UNL     1      22.614  -0.097  53.878  1.00  0.00    -0.042 C 
HETATM   11  C17 UNL     1      23.087  -1.067  54.927  1.00  0.00     0.100 C 
ENDROOT
BRANCH   4  12
HETATM   12  C5  UNL     1      24.195   1.759  53.426  1.00  0.00     0.120 C 
BRANCH  12  13
HETATM   13  C6  UNL     1      25.019   2.330  52.331  1.00  0.00     0.151 A 
HETATM   14  N1  UNL     1      26.195   1.852  51.888  1.00  0.00    -0.134 NA
HETATM   15  N2  UNL     1      26.864   2.427  50.903  1.00  0.00    -0.146 NA
HETATM   16  C7  UNL     1      26.353   3.527  50.322  1.00  0.00     0.107 A 
HETATM   17  C8  UNL     1      26.973   4.199  49.287  1.00  0.00     0.036 A 
HETATM   18  C12 UNL     1      25.150   4.061  50.736  1.00  0.00     0.089 A 
HETATM   19  C9  UNL     1      26.428   5.335  48.702  1.00  0.00     0.003 A 
HETATM   20  C10 UNL     1      25.221   5.837  49.147  1.00  0.00     0.002 A 
HETATM   21  C11 UNL     1      24.576   5.186  50.181  1.00  0.00     0.034 A 
HETATM   22  N3  UNL     1      24.511   3.437  51.742  1.00  0.00    -0.229 NA
ENDBRANCH  12  13
ENDBRANCH   4  12
BRANCH   1  23
HETATM   23  O1  UNL     1      25.027  -1.261  56.322  1.00  0.00    -0.365 OA
HETATM   24  H1  UNL     1      25.017  -0.568  57.056  1.00  0.00     0.217 HD
ENDBRANCH   1  23
TORSDOF 3
ENDMDL
MODEL 4
REMARK VINA RESULT:      -8.1      2.925      6.523
REMARK  3 active torsions:
REMARK  status: ('A' for Active; 'I' for Inactive)
REMARK    1  A    between atoms: O1_1  and  C1_2 
REMARK    2  A    between atoms: C4_5  and  C5_6 
REMARK    3  A    between atoms: C5_6  and  C6_7 
ROOT
HETATM    1  C1  UNL     1      21.812   0.415  53.734  1.00  0.00     0.043 C 
HETATM    2  C2  UNL     1      22.905  -0.305  53.801  1.00  0.00     0.008 C 
HETATM    3  C3  UNL     1      23.785   0.068  52.692  1.00  0.00     0.068 C 
HETATM    4  C4  UNL     1      23.933   1.563  52.533  1.00  0.00     0.088 C 
HETATM    5  N4  UNL     1      24.859   1.861  51.460  1.00  0.00    -0.267 NA
HETATM    6  C13 UNL     1      24.964   2.918  50.731  1.00  0.00     0.227 C 
HETATM    7  N5  UNL     1      24.260   4.158  50.671  1.00  0.00    -0.255 NA
HETATM    8  C14 UNL     1      23.031   4.312  51.104  1.00  0.00     0.118 C 
HETATM    9  C15 UNL     1      22.139   3.303  51.718  1.00  0.00     0.025 C 
HETATM   10  C16 UNL     1      22.605   2.202  52.282  1.00  0.00    -0.042 C 
HETATM   11  C17 UNL     1      21.403   1.447  52.782  1.00  0.00     0.100 C 
ENDROOT
BRANCH   4  12
HETATM   12  C5  UNL     1      24.565   2.107  53.798  1.00  0.00     0.120 C 
BRANCH  12  13
HETATM   13  C6  UNL     1      25.999   1.724  53.782  1.00  0.00     0.151 A 
HETATM   14  N1  UNL     1      27.043   2.543  53.999  1.00  0.00    -0.134 NA
HETATM   15  N2  UNL     1      28.294   2.114  53.966  1.00  0.00    -0.146 NA
HETATM   16  C7  UNL     1      28.532   0.816  53.706  1.00  0.00     0.107 A 
HETATM   17  C8  UNL     1      29.800   0.271  53.650  1.00  0.00     0.036 A 
HETATM   18  C12 UNL     1      27.499  -0.069  53.477  1.00  0.00     0.089 A 
HETATM   19  C9  UNL     1      30.024  -1.074  53.380  1.00  0.00     0.003 A 
HETATM   20  C10 UNL     1      28.960  -1.925  53.156  1.00  0.00     0.002 A 
HETATM   21  C11 UNL     1      27.679  -1.409  53.206  1.00  0.00     0.034 A 
HETATM   22  N3  UNL     1      26.246   0.420  53.522  1.00  0.00    -0.229 NA
ENDBRANCH  12  13
ENDBRANCH   4  12
BRANCH   1  23
HETATM   23  O1  UNL     1      20.888   0.157  54.736  1.00  0.00    -0.365 OA
HETATM   24  H1  UNL     1      21.145   0.054  55.707  1.00  0.00     0.217 HD
ENDBRANCH   1  23
TORSDOF 3
ENDMDL
MODEL 5
REMARK VINA RESULT:      -8.0      3.625      6.888
REMARK  3 active torsions:
REMARK  status: ('A' for Active; 'I' for Inactive)
REMARK    1  A    between atoms: O1_1  and  C1_2 
REMARK    2  A    between atoms: C4_5  and  C5_6 
REMARK    3  A    between atoms: C5_6  and  C6_7 
ROOT
HETATM    1  C1  UNL     1      21.102   3.027  52.012  1.00  0.00     0.043 C 
HETATM    2  C2  UNL     1      21.588   1.811  52.081  1.00  0.00     0.008 C 
HETATM    3  C3  UNL     1      22.741   1.711  51.185  1.00  0.00     0.068 C 
HETATM    4  C4  UNL     1      23.705   2.866  51.331  1.00  0.00     0.088 C 
HETATM    5  N4  UNL     1      24.847   2.677  50.462  1.00  0.00    -0.267 NA
HETATM    6  C13 UNL     1      25.659   3.545  49.965  1.00  0.00     0.227 C 
HETATM    7  N5  UNL     1      25.769   4.965  50.050  1.00  0.00    -0.255 NA
HETATM    8  C14 UNL     1      24.760   5.751  50.344  1.00  0.00     0.118 C 
HETATM    9  C15 UNL     1      23.359   5.378  50.636  1.00  0.00     0.025 C 
HETATM   10  C16 UNL     1      23.023   4.164  51.037  1.00  0.00    -0.042 C 
HETATM   11  C17 UNL     1      21.529   4.184  51.227  1.00  0.00     0.100 C 
ENDROOT
BRANCH   4  12
HETATM   12  C5  UNL     1      24.245   2.848  52.747  1.00  0.00     0.120 C 
BRANCH  12  13
HETATM   13  C6  UNL     1      25.174   1.695  52.855  1.00  0.00     0.151 A 
HETATM   14  N1  UNL     1      24.850   0.397  52.718  1.00  0.00    -0.134 NA
HETATM   15  N2  UNL     1      25.747  -0.568  52.831  1.00  0.00    -0.146 NA
HETATM   16  C7  UNL     1      27.026  -0.244  53.092  1.00  0.00     0.107 A 
HETATM   17  C8  UNL     1      28.035  -1.177  53.227  1.00  0.00     0.036 A 
HETATM   18  C12 UNL     1      27.414   1.071  53.241  1.00  0.00     0.089 A 
HETATM   19  C9  UNL     1      29.350  -0.821  53.497  1.00  0.00     0.003 A 
HETATM   20  C10 UNL     1      29.697   0.508  53.640  1.00  0.00     0.002 A 
HETATM   21  C11 UNL     1      28.708   1.466  53.509  1.00  0.00     0.034 A 
HETATM   22  N3  UNL     1      26.462   2.013  53.116  1.00  0.00    -0.229 NA
ENDBRANCH  12  13
ENDBRANCH   4  12
BRANCH   1  23
HETATM   23  O1  UNL     1      19.999   3.254  52.820  1.00  0.00    -0.365 OA
HETATM   24  H1  UNL     1      19.849   4.122  53.315  1.00  0.00     0.217 HD
ENDBRANCH   1  23
TORSDOF 3
ENDMDL
MODEL 6
REMARK VINA RESULT:      -7.8      3.407      5.965
REMARK  3 active torsions:
REMARK  status: ('A' for Active; 'I' for Inactive)
REMARK    1  A    between atoms: O1_1  and  C1_2 
REMARK    2  A    between atoms: C4_5  and  C5_6 
REMARK    3  A    between atoms: C5_6  and  C6_7 
ROOT
HETATM    1  C1  UNL     1      26.450  -0.151  53.909  1.00  0.00     0.043 C 
HETATM    2  C2  UNL     1      26.878   0.622  52.941  1.00  0.00     0.008 C 
HETATM    3  C3  UNL     1      25.833   0.726  51.921  1.00  0.00     0.068 C 
HETATM    4  C4  UNL     1      24.468   1.012  52.502  1.00  0.00     0.088 C 
HETATM    5  N4  UNL     1      23.495   1.160  51.441  1.00  0.00    -0.267 NA
HETATM    6  C13 UNL     1      22.217   0.998  51.464  1.00  0.00     0.227 C 
HETATM    7  N5  UNL     1      21.281   0.626  52.475  1.00  0.00    -0.255 NA
HETATM    8  C14 UNL     1      21.609  -0.059  53.546  1.00  0.00     0.118 C 
HETATM    9  C15 UNL     1      22.938  -0.576  53.935  1.00  0.00     0.025 C 
HETATM   10  C16 UNL     1      24.059  -0.070  53.451  1.00  0.00    -0.042 C 
HETATM   11  C17 UNL     1      25.180  -0.854  54.080  1.00  0.00     0.100 C 
ENDROOT
BRANCH   4  12
HETATM   12  C5  UNL     1      24.531   2.352  53.206  1.00  0.00     0.120 C 
BRANCH  12  13
HETATM   13  C6  UNL     1      24.516   3.406  52.161  1.00  0.00     0.151 A 
HETATM   14  N1  UNL     1      23.540   4.308  51.954  1.00  0.00    -0.134 NA
HETATM   15  N2  UNL     1      23.611   5.216  50.995  1.00  0.00    -0.146 NA
HETATM   16  C7  UNL     1      24.694   5.241  50.198  1.00  0.00     0.107 A 
HETATM   17  C8  UNL     1      24.862   6.148  49.171  1.00  0.00     0.036 A 
HETATM   18  C12 UNL     1      25.726   4.340  50.365  1.00  0.00     0.089 A 
HETATM   19  C9  UNL     1      25.990   6.156  48.359  1.00  0.00     0.003 A 
HETATM   20  C10 UNL     1      27.000   5.236  48.560  1.00  0.00     0.002 A 
HETATM   21  C11 UNL     1      26.860   4.315  49.581  1.00  0.00     0.034 A 
HETATM   22  N3  UNL     1      25.603   3.438  51.356  1.00  0.00    -0.229 NA
ENDBRANCH  12  13
ENDBRANCH   4  12
BRANCH   1  23
HETATM   23  O1  UNL     1      27.353  -0.333  54.946  1.00  0.00    -0.365 OA
HETATM   24  H1  UNL     1      27.070  -0.559  55.888  1.00  0.00     0.217 HD
ENDBRANCH   1  23
TORSDOF 3
ENDMDL
MODEL 7
REMARK VINA RESULT:      -7.7      4.161      5.722
REMARK  3 active torsions:
REMARK  status: ('A' for Active; 'I' for Inactive)
REMARK    1  A    between atoms: O1_1  and  C1_2 
REMARK    2  A    between atoms: C4_5  and  C5_6 
REMARK    3  A    between atoms: C5_6  and  C6_7 
ROOT
HETATM    1  C1  UNL     1      27.088   1.813  52.194  1.00  0.00     0.043 C 
HETATM    2  C2  UNL     1      26.583   2.751  51.430  1.00  0.00     0.008 C 
HETATM    3  C3  UNL     1      25.267   2.318  50.958  1.00  0.00     0.068 C 
HETATM    4  C4  UNL     1      24.397   1.760  52.060  1.00  0.00     0.088 C 
HETATM    5  N4  UNL     1      23.094   1.407  51.538  1.00  0.00    -0.267 NA
HETATM    6  C13 UNL     1      22.230   0.560  51.980  1.00  0.00     0.227 C 
HETATM    7  N5  UNL     1      22.191  -0.330  53.095  1.00  0.00    -0.255 NA
HETATM    8  C14 UNL     1      23.267  -0.781  53.696  1.00  0.00     0.118 C 
HETATM    9  C15 UNL     1      24.684  -0.494  53.383  1.00  0.00     0.025 C 
HETATM   10  C16 UNL     1      25.051   0.579  52.703  1.00  0.00    -0.042 C 
HETATM   11  C17 UNL     1      26.551   0.513  52.594  1.00  0.00     0.100 C 
ENDROOT
BRANCH   4  12
HETATM   12  C5  UNL     1      24.161   2.863  53.072  1.00  0.00     0.120 C 
BRANCH  12  13
HETATM   13  C6  UNL     1      23.358   3.918  52.403  1.00  0.00     0.151 A 
HETATM   14  N1  UNL     1      22.027   3.905  52.215  1.00  0.00    -0.134 NA
HETATM   15  N2  UNL     1      21.391   4.893  51.606  1.00  0.00    -0.146 NA
HETATM   16  C7  UNL     1      22.098   5.946  51.158  1.00  0.00     0.107 A 
HETATM   17  C8  UNL     1      21.528   7.025  50.511  1.00  0.00     0.036 A 
HETATM   18  C12 UNL     1      23.466   6.012  51.324  1.00  0.00     0.089 A 
HETATM   19  C9  UNL     1      22.277   8.103  50.056  1.00  0.00     0.003 A 
HETATM   20  C10 UNL     1      23.645   8.129  50.243  1.00  0.00     0.002 A 
HETATM   21  C11 UNL     1      24.244   7.063  50.887  1.00  0.00     0.034 A 
HETATM   22  N3  UNL     1      24.062   4.981  51.950  1.00  0.00    -0.229 NA
ENDBRANCH  12  13
ENDBRANCH   4  12
BRANCH   1  23
HETATM   23  O1  UNL     1      28.343   2.101  52.710  1.00  0.00    -0.365 OA
HETATM   24  H1  UNL     1      28.950   2.806  52.317  1.00  0.00     0.217 HD
ENDBRANCH   1  23
TORSDOF 3
ENDMDL
MODEL 8
REMARK VINA RESULT:      -7.6      3.846      5.647
REMARK  3 active torsions:
REMARK  status: ('A' for Active; 'I' for Inactive)
REMARK    1  A    between atoms: O1_1  and  C1_2 
REMARK    2  A    between atoms: C4_5  and  C5_6 
REMARK    3  A    between atoms: C5_6  and  C6_7 
ROOT
HETATM    1  C1  UNL     1      26.557  -0.088  53.935  1.00  0.00     0.043 C 
HETATM    2  C2  UNL     1      26.959   0.655  52.933  1.00  0.00     0.008 C 
HETATM    3  C3  UNL     1      25.892   0.719  51.934  1.00  0.00     0.068 C 
HETATM    4  C4  UNL     1      24.537   1.015  52.533  1.00  0.00     0.088 C 
HETATM    5  N4  UNL     1      23.541   1.122  51.489  1.00  0.00    -0.267 NA
HETATM    6  C13 UNL     1      22.265   0.953  51.545  1.00  0.00     0.227 C 
HETATM    7  N5  UNL     1      21.353   0.610  52.587  1.00  0.00    -0.255 NA
HETATM    8  C14 UNL     1      21.708  -0.037  53.673  1.00  0.00     0.118 C 
HETATM    9  C15 UNL     1      23.049  -0.533  54.050  1.00  0.00     0.025 C 
HETATM   10  C16 UNL     1      24.156  -0.036  53.526  1.00  0.00    -0.042 C 
HETATM   11  C17 UNL     1      25.295  -0.793  54.157  1.00  0.00     0.100 C 
ENDROOT
BRANCH   4  12
HETATM   12  C5  UNL     1      24.606   2.379  53.191  1.00  0.00     0.120 C 
BRANCH  12  13
HETATM   13  C6  UNL     1      24.504   3.398  52.116  1.00  0.00     0.151 A 
HETATM   14  N1  UNL     1      25.376   3.583  51.110  1.00  0.00    -0.134 NA
HETATM   15  N2  UNL     1      25.205   4.520  50.192  1.00  0.00    -0.146 NA
HETATM   16  C7  UNL     1      24.124   5.316  50.265  1.00  0.00     0.107 A 
HETATM   17  C8  UNL     1      23.855   6.321  49.357  1.00  0.00     0.036 A 
HETATM   18  C12 UNL     1      23.195   5.170  51.276  1.00  0.00     0.089 A 
HETATM   19  C9  UNL     1      22.731   7.132  49.452  1.00  0.00     0.003 A 
HETATM   20  C10 UNL     1      21.827   6.953  50.480  1.00  0.00     0.002 A 
HETATM   21  C11 UNL     1      22.069   5.954  51.404  1.00  0.00     0.034 A 
HETATM   22  N3  UNL     1      23.418   4.202  52.183  1.00  0.00    -0.229 NA
ENDBRANCH  12  13
ENDBRANCH   4  12
BRANCH   1  23
HETATM   23  O1  UNL     1      27.483  -0.229  54.958  1.00  0.00    -0.365 OA
HETATM   24  H1  UNL     1      27.313  -0.792  55.779  1.00  0.00     0.217 HD
ENDBRANCH   1  23
TORSDOF 3
ENDMDL
MODEL 9
REMARK VINA RESULT:      -7.5      4.734      7.732
REMARK  3 active torsions:
REMARK  status: ('A' for Active; 'I' for Inactive)
REMARK    1  A    between atoms: O1_1  and  C1_2 
REMARK    2  A    between atoms: C4_5  and  C5_6 
REMARK    3  A    between atoms: C5_6  and  C6_7 
ROOT
HETATM    1  C1  UNL     1      20.106   2.998  52.008  1.00  0.00     0.043 C 
HETATM    2  C2  UNL     1      20.610   4.157  51.661  1.00  0.00     0.008 C 
HETATM    3  C3  UNL     1      21.937   4.295  52.262  1.00  0.00     0.068 C 
HETATM    4  C4  UNL     1      22.799   3.067  52.080  1.00  0.00     0.088 C 
HETATM    5  N4  UNL     1      24.113   3.291  52.644  1.00  0.00    -0.267 NA
HETATM    6  C13 UNL     1      24.982   2.443  53.075  1.00  0.00     0.227 C 
HETATM    7  N5  UNL     1      25.017   1.020  53.174  1.00  0.00    -0.255 NA
HETATM    8  C14 UNL     1      23.938   0.274  53.223  1.00  0.00     0.118 C 
HETATM    9  C15 UNL     1      22.522   0.700  53.190  1.00  0.00     0.025 C 
HETATM   10  C16 UNL     1      22.152   1.870  52.699  1.00  0.00    -0.042 C 
HETATM   11  C17 UNL     1      20.654   1.928  52.842  1.00  0.00     0.100 C 
ENDROOT
BRANCH   4  12
HETATM   12  C5  UNL     1      23.009   2.860  50.594  1.00  0.00     0.120 C 
BRANCH  12  13
HETATM   13  C6  UNL     1      23.819   3.998  50.094  1.00  0.00     0.151 A 
HETATM   14  N1  UNL     1      23.403   5.269  49.953  1.00  0.00    -0.134 NA
HETATM   15  N2  UNL     1      24.197   6.224  49.498  1.00  0.00    -0.146 NA
HETATM   16  C7  UNL     1      25.463   5.917  49.164  1.00  0.00     0.107 A 
HETATM   17  C8  UNL     1      26.369   6.841  48.681  1.00  0.00     0.036 A 
HETATM   18  C12 UNL     1      25.944   4.630  49.290  1.00  0.00     0.089 A 
HETATM   19  C9  UNL     1      27.673   6.502  48.342  1.00  0.00     0.003 A 
HETATM   20  C10 UNL     1      28.113   5.201  48.483  1.00  0.00     0.002 A 
HETATM   21  C11 UNL     1      27.230   4.253  48.964  1.00  0.00     0.034 A 
HETATM   22  N3  UNL     1      25.094   3.697  49.757  1.00  0.00    -0.229 NA
ENDBRANCH  12  13
ENDBRANCH   4  12
BRANCH   1  23
HETATM   23  O1  UNL     1      18.842   2.741  51.500  1.00  0.00    -0.365 OA
HETATM   24  H1  UNL     1      18.276   1.961  51.802  1.00  0.00     0.217 HD
ENDBRANCH   1  23
TORSDOF 3
ENDMDL
