MODEL 1
REMARK VINA RESULT:      -9.2      0.000      0.000
REMARK  6 active torsions:
REMARK  status: ('A' for Active; 'I' for Inactive)
REMARK    1  A    between atoms: C6_6  and  N1_7 
REMARK    2  A    between atoms: N1_7  and  C7_8 
REMARK       I    between atoms: N1_7  and  C14_17 
REMARK    3  A    between atoms: C7_8  and  C8_9 
REMARK    4  A    between atoms: C11_12  and  O1_13 
REMARK    5  A    between atoms: C13_15  and  O2_16 
REMARK       I    between atoms: C14_17  and  N2_19 
REMARK    6  A    between atoms: N2_19  and  C15_20 
ROOT
HETATM    1  N1  UNL     1      25.125   2.000  52.624  1.00  0.00    -0.295 N 
HETATM    2  C14 UNL     1      23.790   1.637  52.339  1.00  0.00     0.327 C 
HETATM    3  O3  UNL     1      23.415   2.202  51.267  1.00  0.00    -0.246 OA
HETATM    4  N2  UNL     1      23.038   0.767  53.169  1.00  0.00    -0.309 N 
HETATM    5  H14 UNL     1      23.451   0.355  54.033  1.00  0.00     0.170 HD
ENDROOT
BRANCH   1   6
HETATM    6  C6  UNL     1      25.404   2.856  51.497  1.00  0.00     0.039 A 
HETATM    7  C5  UNL     1      26.313   2.466  50.507  1.00  0.00     0.030 A 
HETATM    8  C4  UNL     1      26.544   3.324  49.446  1.00  0.00     0.003 A 
HETATM    9  C3  UNL     1      25.920   4.547  49.316  1.00  0.00     0.007 A 
HETATM   10  C2  UNL     1      25.024   4.932  50.292  1.00  0.00    -0.060 A 
HETATM   11  C1  UNL     1      24.346   6.238  50.172  1.00  0.00     0.048 C 
HETATM   12  C21 UNL     1      24.776   4.095  51.362  1.00  0.00     0.036 A 
ENDBRANCH   1   6
BRANCH   1  13
HETATM   13  C7  UNL     1      26.262   1.891  53.516  1.00  0.00     0.175 C 
BRANCH  13  14
HETATM   14  C8  UNL     1      26.965   0.599  53.427  1.00  0.00    -0.006 A 
HETATM   15  C9  UNL     1      26.292  -0.415  52.739  1.00  0.00     0.014 A 
HETATM   16  C10 UNL     1      26.788  -1.695  52.544  1.00  0.00     0.037 A 
HETATM   17  C11 UNL     1      28.027  -1.989  53.063  1.00  0.00     0.068 A 
HETATM   18  C12 UNL     1      28.704  -1.006  53.741  1.00  0.00     0.073 A 
HETATM   19  C13 UNL     1      28.199   0.263  53.928  1.00  0.00     0.076 A 
BRANCH  17  20
HETATM   20  O1  UNL     1      28.611  -3.240  52.921  1.00  0.00    -0.361 OA
HETATM   21  H11 UNL     1      28.330  -3.768  52.105  1.00  0.00     0.217 HD
ENDBRANCH  17  20
BRANCH  19  22
HETATM   22  O2  UNL     1      28.860   1.272  54.609  1.00  0.00    -0.360 OA
HETATM   23  H13 UNL     1      28.639   1.399  55.596  1.00  0.00     0.217 HD
ENDBRANCH  19  22
ENDBRANCH  13  14
ENDBRANCH   1  13
BRANCH   4  24
HETATM   24  C15 UNL     1      21.721   0.243  53.136  1.00  0.00     0.036 A 
HETATM   25  C16 UNL     1      21.518  -0.845  53.980  1.00  0.00     0.029 A 
HETATM   26  C17 UNL     1      20.295  -1.446  54.046  1.00  0.00     0.002 A 
HETATM   27  C18 UNL     1      19.249  -0.990  53.285  1.00  0.00     0.000 A 
HETATM   28  C19 UNL     1      19.424   0.084  52.442  1.00  0.00     0.002 A 
HETATM   29  C20 UNL     1      20.652   0.706  52.361  1.00  0.00     0.029 A 
ENDBRANCH   4  24
TORSDOF 6
ENDMDL
MODEL 2
REMARK VINA RESULT:      -9.1      2.233      7.289
REMARK  6 active torsions:
REMARK  status: ('A' for Active; 'I' for Inactive)
REMARK    1  A    between atoms: C6_6  and  N1_7 
REMARK    2  A    between atoms: N1_7  and  C7_8 
REMARK       I    between atoms: N1_7  and  C14_17 
REMARK    3  A    between atoms: C7_8  and  C8_9 
REMARK    4  A    between atoms: C11_12  and  O1_13 
REMARK    5  A    between atoms: C13_15  and  O2_16 
REMARK       I    between atoms: C14_17  and  N2_19 
REMARK    6  A    between atoms: N2_19  and  C15_20 
ROOT
HETATM    1  N1  UNL     1      25.199   2.215  52.338  1.00  0.00    -0.295 N 
HETATM    2  C14 UNL     1      26.060   2.928  51.474  1.00  0.00     0.327 C 
HETATM    3  O3  UNL     1      27.225   2.430  51.528  1.00  0.00    -0.246 OA
HETATM    4  N2  UNL     1      25.622   4.027  50.691  1.00  0.00    -0.309 N 
HETATM    5  H14 UNL     1      24.632   4.352  50.724  1.00  0.00     0.170 HD
ENDROOT
BRANCH   1   6
HETATM    6  C6  UNL     1      26.117   1.231  52.858  1.00  0.00     0.039 A 
HETATM    7  C5  UNL     1      26.983   1.543  53.913  1.00  0.00     0.030 A 
HETATM    8  C4  UNL     1      27.841   0.561  54.376  1.00  0.00     0.003 A 
HETATM    9  C3  UNL     1      27.885  -0.713  53.848  1.00  0.00     0.007 A 
HETATM   10  C2  UNL     1      27.031  -1.020  52.808  1.00  0.00    -0.060 A 
HETATM   11  C1  UNL     1      27.063  -2.378  52.228  1.00  0.00     0.048 C 
HETATM   12  C21 UNL     1      26.165  -0.059  52.327  1.00  0.00     0.036 A 
ENDBRANCH   1   6
BRANCH   1  13
HETATM   13  C7  UNL     1      23.870   2.066  52.896  1.00  0.00     0.175 C 
BRANCH  13  14
HETATM   14  C8  UNL     1      22.804   2.002  51.881  1.00  0.00    -0.006 A 
HETATM   15  C9  UNL     1      22.311   0.726  51.593  1.00  0.00     0.014 A 
HETATM   16  C10 UNL     1      21.308   0.460  50.674  1.00  0.00     0.037 A 
HETATM   17  C11 UNL     1      20.758   1.524  49.998  1.00  0.00     0.068 A 
HETATM   18  C12 UNL     1      21.228   2.786  50.268  1.00  0.00     0.073 A 
HETATM   19  C13 UNL     1      22.227   3.036  51.185  1.00  0.00     0.076 A 
BRANCH  17  20
HETATM   20  O1  UNL     1      19.749   1.363  49.060  1.00  0.00    -0.361 OA
HETATM   21  H11 UNL     1      19.906   1.804  48.163  1.00  0.00     0.217 HD
ENDBRANCH  17  20
BRANCH  19  22
HETATM   22  O2  UNL     1      22.720   4.298  51.475  1.00  0.00    -0.360 OA
HETATM   23  H13 UNL     1      23.406   4.376  52.223  1.00  0.00     0.217 HD
ENDBRANCH  19  22
ENDBRANCH  13  14
ENDBRANCH   1  13
BRANCH   4  24
HETATM   24  C15 UNL     1      26.240   4.904  49.765  1.00  0.00     0.036 A 
HETATM   25  C16 UNL     1      25.592   6.128  49.618  1.00  0.00     0.029 A 
HETATM   26  C17 UNL     1      26.082   7.067  48.758  1.00  0.00     0.002 A 
HETATM   27  C18 UNL     1      27.217   6.822  48.026  1.00  0.00     0.000 A 
HETATM   28  C19 UNL     1      27.876   5.620  48.153  1.00  0.00     0.002 A 
HETATM   29  C20 UNL     1      27.397   4.658  49.017  1.00  0.00     0.029 A 
ENDBRANCH   4  24
TORSDOF 6
ENDMDL
MODEL 3
REMARK VINA RESULT:      -9.0      2.589      6.743
REMARK  6 active torsions:
REMARK  status: ('A' for Active; 'I' for Inactive)
REMARK    1  A    between atoms: C6_6  and  N1_7 
REMARK    2  A    between atoms: N1_7  and  C7_8 
REMARK       I    between atoms: N1_7  and  C14_17 
REMARK    3  A    between atoms: C7_8  and  C8_9 
REMARK    4  A    between atoms: C11_12  and  O1_13 
REMARK    5  A    between atoms: C13_15  and  O2_16 
REMARK       I    between atoms: C14_17  and  N2_19 
REMARK    6  A    between atoms: N2_19  and  C15_20 
ROOT
HETATM    1  N1  UNL     1      23.892   3.471  51.300  1.00  0.00    -0.295 N 
HETATM    2  C14 UNL     1      24.734   2.483  51.858  1.00  0.00     0.327 C 
HETATM    3  O3  UNL     1      24.331   1.332  51.505  1.00  0.00    -0.246 OA
HETATM    4  N2  UNL     1      25.846   2.798  52.679  1.00  0.00    -0.309 N 
HETATM    5  H14 UNL     1      26.088   3.786  52.904  1.00  0.00     0.170 HD
ENDROOT
BRANCH   1   6
HETATM    6  C6  UNL     1      22.968   2.638  50.570  1.00  0.00     0.039 A 
HETATM    7  C5  UNL     1      23.070   2.498  49.181  1.00  0.00     0.030 A 
HETATM    8  C4  UNL     1      22.159   1.686  48.529  1.00  0.00     0.003 A 
HETATM    9  C3  UNL     1      21.153   1.005  49.182  1.00  0.00     0.007 A 
HETATM   10  C2  UNL     1      21.052   1.143  50.552  1.00  0.00    -0.060 A 
HETATM   11  C1  UNL     1      19.982   0.423  51.270  1.00  0.00     0.048 C 
HETATM   12  C21 UNL     1      21.948   1.948  51.227  1.00  0.00     0.036 A 
ENDBRANCH   1   6
BRANCH   1  13
HETATM   13  C7  UNL     1      23.577   4.879  51.164  1.00  0.00     0.175 C 
BRANCH  13  14
HETATM   14  C8  UNL     1      24.644   5.667  50.523  1.00  0.00    -0.006 A 
HETATM   15  C9  UNL     1      25.459   4.973  49.623  1.00  0.00     0.014 A 
HETATM   16  C10 UNL     1      26.510   5.538  48.919  1.00  0.00     0.037 A 
HETATM   17  C11 UNL     1      26.773   6.873  49.118  1.00  0.00     0.068 A 
HETATM   18  C12 UNL     1      25.983   7.572  49.997  1.00  0.00     0.073 A 
HETATM   19  C13 UNL     1      24.940   6.998  50.692  1.00  0.00     0.076 A 
BRANCH  17  20
HETATM   20  O1  UNL     1      27.802   7.532  48.461  1.00  0.00    -0.361 OA
HETATM   21  H11 UNL     1      27.641   7.737  47.483  1.00  0.00     0.217 HD
ENDBRANCH  17  20
BRANCH  19  22
HETATM   22  O2  UNL     1      24.130   7.679  51.585  1.00  0.00    -0.360 OA
HETATM   23  H13 UNL     1      23.397   8.273  51.200  1.00  0.00     0.217 HD
ENDBRANCH  19  22
ENDBRANCH  13  14
ENDBRANCH   1  13
BRANCH   4  24
HETATM   24  C15 UNL     1      26.835   2.041  53.356  1.00  0.00     0.036 A 
HETATM   25  C16 UNL     1      26.329   0.991  54.118  1.00  0.00     0.029 A 
HETATM   26  C17 UNL     1      27.172   0.181  54.821  1.00  0.00     0.002 A 
HETATM   27  C18 UNL     1      28.528   0.386  54.789  1.00  0.00     0.000 A 
HETATM   28  C19 UNL     1      29.054   1.417  54.043  1.00  0.00     0.002 A 
HETATM   29  C20 UNL     1      28.219   2.247  53.325  1.00  0.00     0.029 A 
ENDBRANCH   4  24
TORSDOF 6
ENDMDL
MODEL 4
REMARK VINA RESULT:      -9.0      2.004      5.700
REMARK  6 active torsions:
REMARK  status: ('A' for Active; 'I' for Inactive)
REMARK    1  A    between atoms: C6_6  and  N1_7 
REMARK    2  A    between atoms: N1_7  and  C7_8 
REMARK       I    between atoms: N1_7  and  C14_17 
REMARK    3  A    between atoms: C7_8  and  C8_9 
REMARK    4  A    between atoms: C11_12  and  O1_13 
REMARK    5  A    between atoms: C13_15  and  O2_16 
REMARK       I    between atoms: C14_17  and  N2_19 
REMARK    6  A    between atoms: N2_19  and  C15_20 
ROOT
HETATM    1  N1  UNL     1      23.612   2.475  51.988  1.00  0.00    -0.295 N 
HETATM    2  C14 UNL     1      24.050   3.295  50.924  1.00  0.00     0.327 C 
HETATM    3  O3  UNL     1      23.162   3.327  50.019  1.00  0.00    -0.246 OA
HETATM    4  N2  UNL     1      25.306   3.953  50.930  1.00  0.00    -0.309 N 
HETATM    5  H14 UNL     1      25.962   3.856  51.735  1.00  0.00     0.170 HD
ENDROOT
BRANCH   1   6
HETATM    6  C6  UNL     1      22.315   2.083  51.493  1.00  0.00     0.039 A 
HETATM    7  C5  UNL     1      22.152   0.895  50.772  1.00  0.00     0.030 A 
HETATM    8  C4  UNL     1      20.885   0.564  50.321  1.00  0.00     0.003 A 
HETATM    9  C3  UNL     1      19.775   1.349  50.549  1.00  0.00     0.007 A 
HETATM   10  C2  UNL     1      19.937   2.521  51.260  1.00  0.00    -0.060 A 
HETATM   11  C1  UNL     1      18.760   3.376  51.514  1.00  0.00     0.048 C 
HETATM   12  C21 UNL     1      21.189   2.875  51.721  1.00  0.00     0.036 A 
ENDBRANCH   1   6
BRANCH   1  13
HETATM   13  C7  UNL     1      23.897   1.891  53.284  1.00  0.00     0.175 C 
BRANCH  13  14
HETATM   14  C8  UNL     1      25.142   1.102  53.319  1.00  0.00    -0.006 A 
HETATM   15  C9  UNL     1      25.008  -0.262  53.045  1.00  0.00     0.014 A 
HETATM   16  C10 UNL     1      26.058  -1.166  53.025  1.00  0.00     0.037 A 
HETATM   17  C11 UNL     1      27.320  -0.689  53.294  1.00  0.00     0.068 A 
HETATM   18  C12 UNL     1      27.473   0.648  53.565  1.00  0.00     0.073 A 
HETATM   19  C13 UNL     1      26.418   1.537  53.581  1.00  0.00     0.076 A 
BRANCH  17  20
HETATM   20  O1  UNL     1      28.437  -1.513  53.298  1.00  0.00    -0.361 OA
HETATM   21  H11 UNL     1      29.140  -1.307  52.600  1.00  0.00     0.217 HD
ENDBRANCH  17  20
BRANCH  19  22
HETATM   22  O2  UNL     1      26.544   2.889  53.852  1.00  0.00    -0.360 OA
HETATM   23  H13 UNL     1      26.307   3.207  54.791  1.00  0.00     0.217 HD
ENDBRANCH  19  22
ENDBRANCH  13  14
ENDBRANCH   1  13
BRANCH   4  24
HETATM   24  C15 UNL     1      25.990   4.810  50.032  1.00  0.00     0.036 A 
HETATM   25  C16 UNL     1      27.069   4.214  49.384  1.00  0.00     0.029 A 
HETATM   26  C17 UNL     1      27.815   4.927  48.491  1.00  0.00     0.002 A 
HETATM   27  C18 UNL     1      27.516   6.237  48.217  1.00  0.00     0.000 A 
HETATM   28  C19 UNL     1      26.454   6.849  48.844  1.00  0.00     0.002 A 
HETATM   29  C20 UNL     1      25.687   6.147  49.750  1.00  0.00     0.029 A 
ENDBRANCH   4  24
TORSDOF 6
ENDMDL
MODEL 5
REMARK VINA RESULT:      -8.8      1.691      5.553
REMARK  6 active torsions:
REMARK  status: ('A' for Active; 'I' for Inactive)
REMARK    1  A    between atoms: C6_6  and  N1_7 
REMARK    2  A    between atoms: N1_7  and  C7_8 
REMARK       I    between atoms: N1_7  and  C14_17 
REMARK    3  A    between atoms: C7_8  and  C8_9 
REMARK    4  A    between atoms: C11_12  and  O1_13 
REMARK    5  A    between atoms: C13_15  and  O2_16 
REMARK       I    between atoms: C14_17  and  N2_19 
REMARK    6  A    between atoms: N2_19  and  C15_20 
ROOT
HETATM    1  N1  UNL     1      25.917   1.359  52.359  1.00  0.00    -0.295 N 
HETATM    2  C14 UNL     1      24.934   0.538  52.955  1.00  0.00     0.327 C 
HETATM    3  O3  UNL     1      25.489  -0.284  53.746  1.00  0.00    -0.246 OA
HETATM    4  N2  UNL     1      23.551   0.667  52.668  1.00  0.00    -0.309 N 
HETATM    5  H14 UNL     1      23.204   1.385  51.998  1.00  0.00     0.170 HD
ENDROOT
BRANCH   1   6
HETATM    6  C6  UNL     1      27.105   0.834  52.987  1.00  0.00     0.039 A 
HETATM    7  C5  UNL     1      27.880   1.632  53.836  1.00  0.00     0.030 A 
HETATM    8  C4  UNL     1      29.010   1.079  54.415  1.00  0.00     0.003 A 
HETATM    9  C3  UNL     1      29.409  -0.223  54.195  1.00  0.00     0.007 A 
HETATM   10  C2  UNL     1      28.644  -1.009  53.358  1.00  0.00    -0.060 A 
HETATM   11  C1  UNL     1      29.054  -2.406  53.110  1.00  0.00     0.048 C 
HETATM   12  C21 UNL     1      27.513  -0.483  52.767  1.00  0.00     0.036 A 
ENDBRANCH   1   6
BRANCH   1  13
HETATM   13  C7  UNL     1      26.222   2.434  51.436  1.00  0.00     0.175 C 
BRANCH  13  14
HETATM   14  C8  UNL     1      25.041   3.207  51.013  1.00  0.00    -0.006 A 
HETATM   15  C9  UNL     1      24.778   3.219  49.640  1.00  0.00     0.014 A 
HETATM   16  C10 UNL     1      23.715   3.883  49.050  1.00  0.00     0.037 A 
HETATM   17  C11 UNL     1      22.858   4.580  49.869  1.00  0.00     0.068 A 
HETATM   18  C12 UNL     1      23.099   4.580  51.221  1.00  0.00     0.073 A 
HETATM   19  C13 UNL     1      24.161   3.915  51.796  1.00  0.00     0.076 A 
BRANCH  17  20
HETATM   20  O1  UNL     1      21.765   5.276  49.376  1.00  0.00    -0.361 OA
HETATM   21  H11 UNL     1      21.039   4.714  48.951  1.00  0.00     0.217 HD
ENDBRANCH  17  20
BRANCH  19  22
HETATM   22  O2  UNL     1      24.427   3.900  53.155  1.00  0.00    -0.360 OA
HETATM   23  H13 UNL     1      25.377   4.119  53.453  1.00  0.00     0.217 HD
ENDBRANCH  19  22
ENDBRANCH  13  14
ENDBRANCH   1  13
BRANCH   4  24
HETATM   24  C15 UNL     1      22.374   0.005  53.101  1.00  0.00     0.036 A 
HETATM   25  C16 UNL     1      21.216   0.414  52.446  1.00  0.00     0.029 A 
HETATM   26  C17 UNL     1      20.012  -0.143  52.765  1.00  0.00     0.002 A 
HETATM   27  C18 UNL     1      19.923  -1.112  53.732  1.00  0.00     0.000 A 
HETATM   28  C19 UNL     1      21.054  -1.534  54.394  1.00  0.00     0.002 A 
HETATM   29  C20 UNL     1      22.280  -0.984  54.087  1.00  0.00     0.029 A 
ENDBRANCH   4  24
TORSDOF 6
ENDMDL
MODEL 6
REMARK VINA RESULT:      -8.7      1.975      6.893
REMARK  6 active torsions:
REMARK  status: ('A' for Active; 'I' for Inactive)
REMARK    1  A    between atoms: C6_6  and  N1_7 
REMARK    2  A    between atoms: N1_7  and  C7_8 
REMARK       I    between atoms: N1_7  and  C14_17 
REMARK    3  A    between atoms: C7_8  and  C8_9 
REMARK    4  A    between atoms: C11_12  and  O1_13 
REMARK    5  A    between atoms: C13_15  and  O2_16 
REMARK       I    between atoms: C14_17  and  N2_19 
REMARK    6  A    between atoms: N2_19  and  C15_20 
ROOT
HETATM    1  N1  UNL     1      24.199   2.232  52.477  1.00  0.00    -0.295 N 
HETATM    2  C14 UNL     1      25.083   1.137  52.596  1.00  0.00     0.327 C 
HETATM    3  O3  UNL     1      24.457   0.058  52.365  1.00  0.00    -0.246 OA
HETATM    4  N2  UNL     1      26.454   1.291  52.925  1.00  0.00    -0.309 N 
HETATM    5  H14 UNL     1      26.865   2.234  53.093  1.00  0.00     0.170 HD
ENDROOT
BRANCH   1   6
HETATM    6  C6  UNL     1      22.981   1.542  52.126  1.00  0.00     0.039 A 
HETATM    7  C5  UNL     1      22.607   1.382  50.787  1.00  0.00     0.030 A 
HETATM    8  C4  UNL     1      21.430   0.710  50.505  1.00  0.00     0.003 A 
HETATM    9  C3  UNL     1      20.607   0.189  51.481  1.00  0.00     0.007 A 
HETATM   10  C2  UNL     1      20.976   0.347  52.801  1.00  0.00    -0.060 A 
HETATM   11  C1  UNL     1      20.108  -0.203  53.861  1.00  0.00     0.048 C 
HETATM   12  C21 UNL     1      22.144   1.013  53.111  1.00  0.00     0.036 A 
ENDBRANCH   1   6
BRANCH   1  13
HETATM   13  C7  UNL     1      24.003   3.666  52.561  1.00  0.00     0.175 C 
BRANCH  13  14
HETATM   14  C8  UNL     1      24.126   4.358  51.265  1.00  0.00    -0.006 A 
HETATM   15  C9  UNL     1      22.977   5.014  50.813  1.00  0.00     0.014 A 
HETATM   16  C10 UNL     1      22.893   5.722  49.624  1.00  0.00     0.037 A 
HETATM   17  C11 UNL     1      24.017   5.784  48.834  1.00  0.00     0.068 A 
HETATM   18  C12 UNL     1      25.156   5.148  49.261  1.00  0.00     0.073 A 
HETATM   19  C13 UNL     1      25.225   4.446  50.446  1.00  0.00     0.076 A 
BRANCH  17  20
HETATM   20  O1  UNL     1      24.036   6.469  47.627  1.00  0.00    -0.361 OA
HETATM   21  H11 UNL     1      23.870   5.909  46.800  1.00  0.00     0.217 HD
ENDBRANCH  17  20
BRANCH  19  22
HETATM   22  O2  UNL     1      26.360   3.794  50.900  1.00  0.00    -0.360 OA
HETATM   23  H13 UNL     1      27.257   4.080  50.511  1.00  0.00     0.217 HD
ENDBRANCH  19  22
ENDBRANCH  13  14
ENDBRANCH   1  13
BRANCH   4  24
HETATM   24  C15 UNL     1      27.544   0.403  53.108  1.00  0.00     0.036 A 
HETATM   25  C16 UNL     1      28.726   1.024  53.503  1.00  0.00     0.029 A 
HETATM   26  C17 UNL     1      29.854   0.286  53.715  1.00  0.00     0.002 A 
HETATM   27  C18 UNL     1      29.842  -1.075  53.543  1.00  0.00     0.000 A 
HETATM   28  C19 UNL     1      28.686  -1.713  53.154  1.00  0.00     0.002 A 
HETATM   29  C20 UNL     1      27.536  -0.986  52.935  1.00  0.00     0.029 A 
ENDBRANCH   4  24
TORSDOF 6
ENDMDL
MODEL 7
REMARK VINA RESULT:      -8.6      2.392      6.963
REMARK  6 active torsions:
REMARK  status: ('A' for Active; 'I' for Inactive)
REMARK    1  A    between atoms: C6_6  and  N1_7 
REMARK    2  A    between atoms: N1_7  and  C7_8 
REMARK       I    between atoms: N1_7  and  C14_17 
REMARK    3  A    between atoms: C7_8  and  C8_9 
REMARK    4  A    between atoms: C11_12  and  O1_13 
REMARK    5  A    between atoms: C13_15  and  O2_16 
REMARK       I    between atoms: C14_17  and  N2_19 
REMARK    6  A    between atoms: N2_19  and  C15_20 
ROOT
HETATM    1  N1  UNL     1      24.215   2.696  50.643  1.00  0.00    -0.295 N 
HETATM    2  C14 UNL     1      24.950   2.196  51.741  1.00  0.00     0.327 C 
HETATM    3  O3  UNL     1      24.164   1.977  52.713  1.00  0.00    -0.246 OA
HETATM    4  N2  UNL     1      26.352   1.994  51.697  1.00  0.00    -0.309 N 
HETATM    5  H14 UNL     1      26.901   2.208  50.837  1.00  0.00     0.170 HD
ENDROOT
BRANCH   1   6
HETATM    6  C6  UNL     1      22.884   2.692  51.200  1.00  0.00     0.039 A 
HETATM    7  C5  UNL     1      22.368   3.830  51.832  1.00  0.00     0.030 A 
HETATM    8  C4  UNL     1      21.085   3.774  52.348  1.00  0.00     0.003 A 
HETATM    9  C3  UNL     1      20.289   2.650  52.271  1.00  0.00     0.007 A 
HETATM   10  C2  UNL     1      20.799   1.529  51.649  1.00  0.00    -0.060 A 
HETATM   11  C1  UNL     1      19.963   0.315  51.556  1.00  0.00     0.048 C 
HETATM   12  C21 UNL     1      22.076   1.557  51.125  1.00  0.00     0.036 A 
ENDBRANCH   1   6
BRANCH   1  13
HETATM   13  C7  UNL     1      24.229   3.187  49.279  1.00  0.00     0.175 C 
BRANCH  13  14
HETATM   14  C8  UNL     1      24.922   4.478  49.120  1.00  0.00    -0.006 A 
HETATM   15  C9  UNL     1      24.098   5.596  48.950  1.00  0.00     0.014 A 
HETATM   16  C10 UNL     1      24.559   6.893  48.790  1.00  0.00     0.037 A 
HETATM   17  C11 UNL     1      25.919   7.098  48.798  1.00  0.00     0.068 A 
HETATM   18  C12 UNL     1      26.744   6.013  48.965  1.00  0.00     0.073 A 
HETATM   19  C13 UNL     1      26.273   4.727  49.124  1.00  0.00     0.076 A 
BRANCH  17  20
HETATM   20  O1  UNL     1      26.478   8.358  48.647  1.00  0.00    -0.361 OA
HETATM   21  H11 UNL     1      25.878   9.060  48.233  1.00  0.00     0.217 HD
ENDBRANCH  17  20
BRANCH  19  22
HETATM   22  O2  UNL     1      27.083   3.616  49.292  1.00  0.00    -0.360 OA
HETATM   23  H13 UNL     1      28.049   3.685  48.979  1.00  0.00     0.217 HD
ENDBRANCH  19  22
ENDBRANCH  13  14
ENDBRANCH   1  13
BRANCH   4  24
HETATM   24  C15 UNL     1      27.324   1.521  52.615  1.00  0.00     0.036 A 
HETATM   25  C16 UNL     1      27.355   0.136  52.750  1.00  0.00     0.029 A 
HETATM   26  C17 UNL     1      28.243  -0.453  53.601  1.00  0.00     0.002 A 
HETATM   27  C18 UNL     1      29.118   0.306  54.335  1.00  0.00     0.000 A 
HETATM   28  C19 UNL     1      29.108   1.678  54.220  1.00  0.00     0.002 A 
HETATM   29  C20 UNL     1      28.218   2.293  53.365  1.00  0.00     0.029 A 
ENDBRANCH   4  24
TORSDOF 6
ENDMDL
MODEL 8
REMARK VINA RESULT:      -8.6      2.076      5.749
REMARK  6 active torsions:
REMARK  status: ('A' for Active; 'I' for Inactive)
REMARK    1  A    between atoms: C6_6  and  N1_7 
REMARK    2  A    between atoms: N1_7  and  C7_8 
REMARK       I    between atoms: N1_7  and  C14_17 
REMARK    3  A    between atoms: C7_8  and  C8_9 
REMARK    4  A    between atoms: C11_12  and  O1_13 
REMARK    5  A    between atoms: C13_15  and  O2_16 
REMARK       I    between atoms: C14_17  and  N2_19 
REMARK    6  A    between atoms: N2_19  and  C15_20 
ROOT
HETATM    1  N1  UNL     1      24.450   2.174  51.217  1.00  0.00    -0.295 N 
HETATM    2  C14 UNL     1      25.736   1.877  51.720  1.00  0.00     0.327 C 
HETATM    3  O3  UNL     1      26.451   2.926  51.704  1.00  0.00    -0.246 OA
HETATM    4  N2  UNL     1      26.107   0.581  52.161  1.00  0.00    -0.309 N 
HETATM    5  H14 UNL     1      25.432  -0.212  52.131  1.00  0.00     0.170 HD
ENDROOT
BRANCH   1   6
HETATM    6  C6  UNL     1      24.601   3.581  50.938  1.00  0.00     0.039 A 
HETATM    7  C5  UNL     1      23.878   4.538  51.660  1.00  0.00     0.030 A 
HETATM    8  C4  UNL     1      24.062   5.875  51.355  1.00  0.00     0.003 A 
HETATM    9  C3  UNL     1      24.925   6.312  50.372  1.00  0.00     0.007 A 
HETATM   10  C2  UNL     1      25.637   5.369  49.660  1.00  0.00    -0.060 A 
HETATM   11  C1  UNL     1      26.566   5.816  48.603  1.00  0.00     0.048 C 
HETATM   12  C21 UNL     1      25.473   4.028  49.944  1.00  0.00     0.036 A 
ENDBRANCH   1   6
BRANCH   1  13
HETATM   13  C7  UNL     1      23.126   1.693  50.875  1.00  0.00     0.175 C 
BRANCH  13  14
HETATM   14  C8  UNL     1      22.450   0.982  51.975  1.00  0.00    -0.006 A 
HETATM   15  C9  UNL     1      22.911  -0.312  52.238  1.00  0.00     0.014 A 
HETATM   16  C10 UNL     1      22.409  -1.137  53.232  1.00  0.00     0.037 A 
HETATM   17  C11 UNL     1      21.386  -0.652  54.013  1.00  0.00     0.068 A 
HETATM   18  C12 UNL     1      20.920   0.616  53.771  1.00  0.00     0.073 A 
HETATM   19  C13 UNL     1      21.429   1.427  52.778  1.00  0.00     0.076 A 
BRANCH  17  20
HETATM   20  O1  UNL     1      20.816  -1.400  55.033  1.00  0.00    -0.361 OA
HETATM   21  H11 UNL     1      20.604  -2.363  54.809  1.00  0.00     0.217 HD
ENDBRANCH  17  20
BRANCH  19  22
HETATM   22  O2  UNL     1      20.977   2.709  52.512  1.00  0.00    -0.360 OA
HETATM   23  H13 UNL     1      21.050   3.400  53.257  1.00  0.00     0.217 HD
ENDBRANCH  19  22
ENDBRANCH  13  14
ENDBRANCH   1  13
BRANCH   4  24
HETATM   24  C15 UNL     1      27.287   0.007  52.696  1.00  0.00     0.036 A 
HETATM   25  C16 UNL     1      28.183   0.933  53.226  1.00  0.00     0.029 A 
HETATM   26  C17 UNL     1      29.360   0.516  53.774  1.00  0.00     0.002 A 
HETATM   27  C18 UNL     1      29.681  -0.817  53.814  1.00  0.00     0.000 A 
HETATM   28  C19 UNL     1      28.812  -1.753  53.297  1.00  0.00     0.002 A 
HETATM   29  C20 UNL     1      27.617  -1.352  52.738  1.00  0.00     0.029 A 
ENDBRANCH   4  24
TORSDOF 6
ENDMDL
MODEL 9
REMARK VINA RESULT:      -8.5      1.962      6.751
REMARK  6 active torsions:
REMARK  status: ('A' for Active; 'I' for Inactive)
REMARK    1  A    between atoms: C6_6  and  N1_7 
REMARK    2  A    between atoms: N1_7  and  C7_8 
REMARK       I    between atoms: N1_7  and  C14_17 
REMARK    3  A    between atoms: C7_8  and  C8_9 
REMARK    4  A    between atoms: C11_12  and  O1_13 
REMARK    5  A    between atoms: C13_15  and  O2_16 
REMARK       I    between atoms: C14_17  and  N2_19 
REMARK    6  A    between atoms: N2_19  and  C15_20 
ROOT
HETATM    1  N1  UNL     1      24.300   2.001  52.809  1.00  0.00    -0.295 N 
HETATM    2  C14 UNL     1      25.123   0.853  52.815  1.00  0.00     0.327 C 
HETATM    3  O3  UNL     1      24.437  -0.164  52.490  1.00  0.00    -0.246 OA
HETATM    4  N2  UNL     1      26.502   0.900  53.143  1.00  0.00    -0.309 N 
HETATM    5  H14 UNL     1      26.966   1.799  53.394  1.00  0.00     0.170 HD
ENDROOT
BRANCH   1   6
HETATM    6  C6  UNL     1      23.044   1.415  52.408  1.00  0.00     0.039 A 
HETATM    7  C5  UNL     1      22.173   0.864  53.355  1.00  0.00     0.030 A 
HETATM    8  C4  UNL     1      20.980   0.316  52.917  1.00  0.00     0.003 A 
HETATM    9  C3  UNL     1      20.607   0.286  51.590  1.00  0.00     0.007 A 
HETATM   10  C2  UNL     1      21.466   0.828  50.656  1.00  0.00    -0.060 A 
HETATM   11  C1  UNL     1      21.085   0.805  49.229  1.00  0.00     0.048 C 
HETATM   12  C21 UNL     1      22.662   1.381  51.066  1.00  0.00     0.036 A 
ENDBRANCH   1   6
BRANCH   1  13
HETATM   13  C7  UNL     1      24.185   3.429  53.029  1.00  0.00     0.175 C 
BRANCH  13  14
HETATM   14  C8  UNL     1      24.161   4.221  51.786  1.00  0.00    -0.006 A 
HETATM   15  C9  UNL     1      25.154   3.918  50.850  1.00  0.00     0.014 A 
HETATM   16  C10 UNL     1      25.295   4.546  49.623  1.00  0.00     0.037 A 
HETATM   17  C11 UNL     1      24.397   5.537  49.302  1.00  0.00     0.068 A 
HETATM   18  C12 UNL     1      23.413   5.849  50.208  1.00  0.00     0.073 A 
HETATM   19  C13 UNL     1      23.284   5.216  51.426  1.00  0.00     0.076 A 
BRANCH  17  20
HETATM   20  O1  UNL     1      24.452   6.225  48.099  1.00  0.00    -0.361 OA
HETATM   21  H11 UNL     1      25.380   6.432  47.751  1.00  0.00     0.217 HD
ENDBRANCH  17  20
BRANCH  19  22
HETATM   22  O2  UNL     1      22.303   5.512  52.358  1.00  0.00    -0.360 OA
HETATM   23  H13 UNL     1      21.475   4.920  52.376  1.00  0.00     0.217 HD
ENDBRANCH  19  22
ENDBRANCH  13  14
ENDBRANCH   1  13
BRANCH   4  24
HETATM   24  C15 UNL     1      27.542  -0.059  53.230  1.00  0.00     0.036 A 
HETATM   25  C16 UNL     1      27.170  -1.341  52.834  1.00  0.00     0.029 A 
HETATM   26  C17 UNL     1      28.076  -2.362  52.867  1.00  0.00     0.002 A 
HETATM   27  C18 UNL     1      29.363  -2.142  53.289  1.00  0.00     0.000 A 
HETATM   28  C19 UNL     1      29.755  -0.883  53.686  1.00  0.00     0.002 A 
HETATM   29  C20 UNL     1      28.856   0.162  53.659  1.00  0.00     0.029 A 
ENDBRANCH   4  24
TORSDOF 6
ENDMDL
