MODEL 1
REMARK VINA RESULT:      -8.3      0.000      0.000
REMARK  7 active torsions:
REMARK  status: ('A' for Active; 'I' for Inactive)
REMARK    1  A    between atoms: O1_2  and  C2_3 
REMARK    2  A    between atoms: C6_9  and  N3_10 
REMARK    3  A    between atoms: N3_10  and  C7_11 
REMARK    4  A    between atoms: C15_21  and  O2_22 
REMARK    5  A    between atoms: O2_22  and  C16_23 
REMARK    6  A    between atoms: C16_23  and  C17_24 
REMARK    7  A    between atoms: C17_24  and  N4_25 
ROOT
HETATM    1  C2  UNL     1      19.518  -0.098  52.272  1.00  0.00     0.103 A 
HETATM    2  C3  UNL     1      19.906  -0.714  53.436  1.00  0.00     0.072 A 
HETATM    3  C4  UNL     1      21.234  -0.757  53.807  1.00  0.00     0.075 A 
HETATM    4  N1  UNL     1      21.485  -1.386  54.961  1.00  0.00    -0.241 NA
HETATM    5  C5  UNL     1      22.759  -1.456  55.371  1.00  0.00     0.236 A 
HETATM    6  N2  UNL     1      23.721  -0.907  54.628  1.00  0.00    -0.224 NA
HETATM    7  C6  UNL     1      23.546  -0.270  53.476  1.00  0.00     0.142 A 
HETATM    8  C13 UNL     1      22.251  -0.199  53.061  1.00  0.00     0.042 A 
HETATM    9  C14 UNL     1      21.821   0.406  51.911  1.00  0.00     0.057 A 
HETATM   10  C15 UNL     1      20.506   0.470  51.504  1.00  0.00     0.103 A 
ENDROOT
BRANCH   7  11
HETATM   11  N3  UNL     1      24.558   0.314  52.680  1.00  0.00    -0.340 N 
HETATM   12  H6  UNL     1      24.366   0.686  51.731  1.00  0.00     0.167 HD
BRANCH  11  13
HETATM   13  C7  UNL     1      25.931   0.507  52.973  1.00  0.00     0.035 A 
HETATM   14  C8  UNL     1      26.530   1.712  53.273  1.00  0.00     0.032 A 
HETATM   15  C9  UNL     1      27.860   1.874  53.557  1.00  0.00     0.046 A 
HETATM   16  C10 UNL     1      28.707   0.787  53.557  1.00  0.00     0.138 A 
HETATM   17  F1  UNL     1      29.997   1.037  53.846  1.00  0.00    -0.204 F 
HETATM   18  C11 UNL     1      28.157  -0.441  53.263  1.00  0.00     0.074 A 
HETATM   19 CL1  UNL     1      29.275  -1.786  53.277  1.00  0.00    -0.081 Cl
HETATM   20  C12 UNL     1      26.817  -0.546  52.985  1.00  0.00     0.056 A 
ENDBRANCH  11  13
ENDBRANCH   7  11
BRANCH  10  21
HETATM   21  O2  UNL     1      20.093   1.091  50.330  1.00  0.00    -0.347 OA
BRANCH  21  22
HETATM   22  C16 UNL     1      20.953   1.360  49.238  1.00  0.00     0.195 C 
BRANCH  22  23
HETATM   23  C17 UNL     1      21.200   2.849  49.202  1.00  0.00     0.143 C 
BRANCH  23  24
HETATM   24  N4  UNL     1      22.309   3.287  49.949  1.00  0.00    -0.406 N 
HETATM   25  C18 UNL     1      22.121   4.150  51.038  1.00  0.00     0.143 C 
HETATM   26  C19 UNL     1      23.198   3.797  52.075  1.00  0.00     0.187 C 
HETATM   27  O3  UNL     1      24.396   4.110  51.476  1.00  0.00    -0.388 OA
HETATM   28  C20 UNL     1      24.732   3.309  50.395  1.00  0.00     0.187 C 
HETATM   29  C21 UNL     1      23.590   2.907  49.542  1.00  0.00     0.143 C 
ENDBRANCH  23  24
ENDBRANCH  22  23
ENDBRANCH  21  22
ENDBRANCH  10  21
BRANCH   1  30
HETATM   30  O1  UNL     1      18.191  -0.062  51.914  1.00  0.00    -0.353 OA
HETATM   31  C1  UNL     1      17.272  -0.976  52.449  1.00  0.00     0.210 C 
ENDBRANCH   1  30
TORSDOF 7
ENDMDL
MODEL 2
REMARK VINA RESULT:      -7.8      3.611      5.312
REMARK  7 active torsions:
REMARK  status: ('A' for Active; 'I' for Inactive)
REMARK    1  A    between atoms: O1_2  and  C2_3 
REMARK    2  A    between atoms: C6_9  and  N3_10 
REMARK    3  A    between atoms: N3_10  and  C7_11 
REMARK    4  A    between atoms: C15_21  and  O2_22 
REMARK    5  A    between atoms: O2_22  and  C16_23 
REMARK    6  A    between atoms: C16_23  and  C17_24 
REMARK    7  A    between atoms: C17_24  and  N4_25 
ROOT
HETATM    1  C2  UNL     1      23.531   0.038  53.463  1.00  0.00     0.103 A 
HETATM    2  C3  UNL     1      24.813   0.211  53.922  1.00  0.00     0.072 A 
HETATM    3  C4  UNL     1      25.722   0.972  53.218  1.00  0.00     0.075 A 
HETATM    4  N1  UNL     1      26.938   1.066  53.768  1.00  0.00    -0.241 NA
HETATM    5  C5  UNL     1      27.861   1.795  53.127  1.00  0.00     0.236 A 
HETATM    6  N2  UNL     1      27.545   2.395  51.978  1.00  0.00    -0.224 NA
HETATM    7  C6  UNL     1      26.362   2.346  51.375  1.00  0.00     0.142 A 
HETATM    8  C13 UNL     1      25.425   1.605  52.029  1.00  0.00     0.042 A 
HETATM    9  C14 UNL     1      24.139   1.408  51.607  1.00  0.00     0.057 A 
HETATM   10  C15 UNL     1      23.200   0.655  52.280  1.00  0.00     0.103 A 
ENDROOT
BRANCH   7  11
HETATM   11  N3  UNL     1      26.017   2.977  50.158  1.00  0.00    -0.340 N 
HETATM   12  H6  UNL     1      25.534   2.470  49.393  1.00  0.00     0.167 HD
BRANCH  11  13
HETATM   13  C7  UNL     1      26.231   4.317  49.749  1.00  0.00     0.035 A 
HETATM   14  C8  UNL     1      27.216   4.749  48.886  1.00  0.00     0.032 A 
HETATM   15  C9  UNL     1      27.401   6.050  48.501  1.00  0.00     0.046 A 
HETATM   16  C10 UNL     1      26.573   7.040  48.981  1.00  0.00     0.138 A 
HETATM   17  F1  UNL     1      26.827   8.290  48.551  1.00  0.00    -0.204 F 
HETATM   18  C11 UNL     1      25.572   6.660  49.847  1.00  0.00     0.074 A 
HETATM   19 CL1  UNL     1      24.549   7.956  50.426  1.00  0.00    -0.081 Cl
HETATM   20  C12 UNL     1      25.431   5.342  50.200  1.00  0.00     0.056 A 
ENDBRANCH  11  13
ENDBRANCH   7  11
BRANCH  10  21
HETATM   21  O2  UNL     1      21.897   0.469  51.832  1.00  0.00    -0.347 OA
BRANCH  21  22
HETATM   22  C16 UNL     1      21.457   0.810  50.530  1.00  0.00     0.195 C 
BRANCH  22  23
HETATM   23  C17 UNL     1      20.398   1.878  50.666  1.00  0.00     0.143 C 
BRANCH  23  24
HETATM   24  N4  UNL     1      20.887   3.184  50.844  1.00  0.00    -0.406 N 
HETATM   25  C18 UNL     1      21.004   3.716  52.136  1.00  0.00     0.143 C 
HETATM   26  C19 UNL     1      22.225   4.648  52.124  1.00  0.00     0.187 C 
HETATM   27  O3  UNL     1      21.895   5.669  51.263  1.00  0.00    -0.388 OA
HETATM   28  C20 UNL     1      21.779   5.293  49.933  1.00  0.00     0.187 C 
HETATM   29  C21 UNL     1      21.182   3.954  49.717  1.00  0.00     0.143 C 
ENDBRANCH  23  24
ENDBRANCH  22  23
ENDBRANCH  21  22
ENDBRANCH  10  21
BRANCH   1  30
HETATM   30  O1  UNL     1      22.634  -0.724  54.175  1.00  0.00    -0.353 OA
HETATM   31  C1  UNL     1      23.016  -1.375  55.356  1.00  0.00     0.210 C 
ENDBRANCH   1  30
TORSDOF 7
ENDMDL
MODEL 3
REMARK VINA RESULT:      -7.8      3.969      6.492
REMARK  7 active torsions:
REMARK  status: ('A' for Active; 'I' for Inactive)
REMARK    1  A    between atoms: O1_2  and  C2_3 
REMARK    2  A    between atoms: C6_9  and  N3_10 
REMARK    3  A    between atoms: N3_10  and  C7_11 
REMARK    4  A    between atoms: C15_21  and  O2_22 
REMARK    5  A    between atoms: O2_22  and  C16_23 
REMARK    6  A    between atoms: C16_23  and  C17_24 
REMARK    7  A    between atoms: C17_24  and  N4_25 
ROOT
HETATM    1  C2  UNL     1      27.168   0.671  53.307  1.00  0.00     0.103 A 
HETATM    2  C3  UNL     1      26.694  -0.002  54.405  1.00  0.00     0.072 A 
HETATM    3  C4  UNL     1      25.380  -0.419  54.469  1.00  0.00     0.075 A 
HETATM    4  N1  UNL     1      25.039  -1.063  55.590  1.00  0.00    -0.241 NA
HETATM    5  C5  UNL     1      23.775  -1.493  55.706  1.00  0.00     0.236 A 
HETATM    6  N2  UNL     1      22.909  -1.266  54.715  1.00  0.00    -0.224 NA
HETATM    7  C6  UNL     1      23.178  -0.635  53.578  1.00  0.00     0.142 A 
HETATM    8  C13 UNL     1      24.463  -0.200  53.463  1.00  0.00     0.042 A 
HETATM    9  C14 UNL     1      24.976   0.472  52.387  1.00  0.00     0.057 A 
HETATM   10  C15 UNL     1      26.281   0.906  52.283  1.00  0.00     0.103 A 
ENDROOT
BRANCH   7  11
HETATM   11  N3  UNL     1      22.269  -0.389  52.523  1.00  0.00    -0.340 N 
HETATM   12  H6  UNL     1      22.146  -1.053  51.736  1.00  0.00     0.167 HD
BRANCH  11  13
HETATM   13  C7  UNL     1      21.402   0.714  52.324  1.00  0.00     0.035 A 
HETATM   14  C8  UNL     1      20.039   0.643  52.124  1.00  0.00     0.032 A 
HETATM   15  C9  UNL     1      19.219   1.724  51.937  1.00  0.00     0.046 A 
HETATM   16  C10 UNL     1      19.741   2.999  51.941  1.00  0.00     0.138 A 
HETATM   17  F1  UNL     1      18.864   4.002  51.750  1.00  0.00    -0.204 F 
HETATM   18  C11 UNL     1      21.099   3.124  52.138  1.00  0.00     0.074 A 
HETATM   19 CL1  UNL     1      21.708   4.764  52.134  1.00  0.00    -0.081 Cl
HETATM   20  C12 UNL     1      21.873   2.007  52.319  1.00  0.00     0.056 A 
ENDBRANCH  11  13
ENDBRANCH   7  11
BRANCH  10  21
HETATM   21  O2  UNL     1      26.780   1.588  51.179  1.00  0.00    -0.347 OA
BRANCH  21  22
HETATM   22  C16 UNL     1      26.645   2.984  50.991  1.00  0.00     0.195 C 
BRANCH  22  23
HETATM   23  C17 UNL     1      26.398   3.229  49.521  1.00  0.00     0.143 C 
BRANCH  23  24
HETATM   24  N4  UNL     1      26.596   4.556  49.097  1.00  0.00    -0.406 N 
HETATM   25  C18 UNL     1      25.527   5.462  49.117  1.00  0.00     0.143 C 
HETATM   26  C19 UNL     1      26.121   6.842  49.435  1.00  0.00     0.187 C 
HETATM   27  O3  UNL     1      26.927   7.147  48.363  1.00  0.00    -0.388 OA
HETATM   28  C20 UNL     1      28.053   6.347  48.237  1.00  0.00     0.187 C 
HETATM   29  C21 UNL     1      27.846   4.925  48.595  1.00  0.00     0.143 C 
ENDBRANCH  23  24
ENDBRANCH  22  23
ENDBRANCH  21  22
ENDBRANCH  10  21
BRANCH   1  30
HETATM   30  O1  UNL     1      28.480   1.081  53.256  1.00  0.00    -0.353 OA
HETATM   31  C1  UNL     1      28.907   2.226  53.941  1.00  0.00     0.210 C 
ENDBRANCH   1  30
TORSDOF 7
ENDMDL
MODEL 4
REMARK VINA RESULT:      -7.8      1.488      1.823
REMARK  7 active torsions:
REMARK  status: ('A' for Active; 'I' for Inactive)
REMARK    1  A    between atoms: O1_2  and  C2_3 
REMARK    2  A    between atoms: C6_9  and  N3_10 
REMARK    3  A    between atoms: N3_10  and  C7_11 
REMARK    4  A    between atoms: C15_21  and  O2_22 
REMARK    5  A    between atoms: O2_22  and  C16_23 
REMARK    6  A    between atoms: C16_23  and  C17_24 
REMARK    7  A    between atoms: C17_24  and  N4_25 
ROOT
HETATM    1  C2  UNL     1      19.898   0.649  52.084  1.00  0.00     0.103 A 
HETATM    2  C3  UNL     1      20.123  -0.083  53.223  1.00  0.00     0.072 A 
HETATM    3  C4  UNL     1      21.405  -0.345  53.658  1.00  0.00     0.075 A 
HETATM    4  N1  UNL     1      21.493  -1.067  54.780  1.00  0.00    -0.241 NA
HETATM    5  C5  UNL     1      22.716  -1.351  55.249  1.00  0.00     0.236 A 
HETATM    6  N2  UNL     1      23.791  -0.911  54.592  1.00  0.00    -0.224 NA
HETATM    7  C6  UNL     1      23.779  -0.191  53.475  1.00  0.00     0.142 A 
HETATM    8  C13 UNL     1      22.535   0.096  53.001  1.00  0.00     0.042 A 
HETATM    9  C14 UNL     1      22.267   0.821  51.872  1.00  0.00     0.057 A 
HETATM   10  C15 UNL     1      21.002   1.105  51.404  1.00  0.00     0.103 A 
ENDROOT
BRANCH   7  11
HETATM   11  N3  UNL     1      24.911   0.279  52.771  1.00  0.00    -0.340 N 
HETATM   12  H6  UNL     1      24.826   0.896  51.941  1.00  0.00     0.167 HD
BRANCH  11  13
HETATM   13  C7  UNL     1      26.285   0.038  53.017  1.00  0.00     0.035 A 
HETATM   14  C8  UNL     1      26.948  -1.152  52.800  1.00  0.00     0.032 A 
HETATM   15  C9  UNL     1      28.279  -1.360  53.042  1.00  0.00     0.046 A 
HETATM   16  C10 UNL     1      29.062  -0.342  53.540  1.00  0.00     0.138 A 
HETATM   17  F1  UNL     1      30.359  -0.635  53.748  1.00  0.00    -0.204 F 
HETATM   18  C11 UNL     1      28.447   0.868  53.775  1.00  0.00     0.074 A 
HETATM   19 CL1  UNL     1      29.487   2.126  54.406  1.00  0.00    -0.081 Cl
HETATM   20  C12 UNL     1      27.109   1.022  53.514  1.00  0.00     0.056 A 
ENDBRANCH  11  13
ENDBRANCH   7  11
BRANCH  10  21
HETATM   21  O2  UNL     1      20.755   1.845  50.253  1.00  0.00    -0.347 OA
BRANCH  21  22
HETATM   22  C16 UNL     1      20.776   1.298  48.947  1.00  0.00     0.195 C 
BRANCH  22  23
HETATM   23  C17 UNL     1      22.120   1.613  48.337  1.00  0.00     0.143 C 
BRANCH  23  24
HETATM   24  N4  UNL     1      22.531   2.952  48.461  1.00  0.00    -0.406 N 
HETATM   25  C18 UNL     1      21.800   3.968  47.830  1.00  0.00     0.143 C 
HETATM   26  C19 UNL     1      21.897   5.209  48.730  1.00  0.00     0.187 C 
HETATM   27  O3  UNL     1      23.227   5.563  48.720  1.00  0.00    -0.388 OA
HETATM   28  C20 UNL     1      24.073   4.659  49.345  1.00  0.00     0.187 C 
HETATM   29  C21 UNL     1      23.709   3.235  49.155  1.00  0.00     0.143 C 
ENDBRANCH  23  24
ENDBRANCH  22  23
ENDBRANCH  21  22
ENDBRANCH  10  21
BRANCH   1  30
HETATM   30  O1  UNL     1      18.614   0.902  51.662  1.00  0.00    -0.353 OA
HETATM   31  C1  UNL     1      17.857  -0.084  51.015  1.00  0.00     0.210 C 
ENDBRANCH   1  30
TORSDOF 7
ENDMDL
MODEL 5
REMARK VINA RESULT:      -7.8      3.802      6.242
REMARK  7 active torsions:
REMARK  status: ('A' for Active; 'I' for Inactive)
REMARK    1  A    between atoms: O1_2  and  C2_3 
REMARK    2  A    between atoms: C6_9  and  N3_10 
REMARK    3  A    between atoms: N3_10  and  C7_11 
REMARK    4  A    between atoms: C15_21  and  O2_22 
REMARK    5  A    between atoms: O2_22  and  C16_23 
REMARK    6  A    between atoms: C16_23  and  C17_24 
REMARK    7  A    between atoms: C17_24  and  N4_25 
ROOT
HETATM    1  C2  UNL     1      22.489  -0.067  52.961  1.00  0.00     0.103 A 
HETATM    2  C3  UNL     1      21.432   0.774  52.715  1.00  0.00     0.072 A 
HETATM    3  C4  UNL     1      21.637   2.101  52.401  1.00  0.00     0.075 A 
HETATM    4  N1  UNL     1      20.529   2.816  52.184  1.00  0.00    -0.241 NA
HETATM    5  C5  UNL     1      20.670   4.112  51.872  1.00  0.00     0.236 A 
HETATM    6  N2  UNL     1      21.892   4.640  51.790  1.00  0.00    -0.224 NA
HETATM    7  C6  UNL     1      23.034   3.991  51.992  1.00  0.00     0.142 A 
HETATM    8  C13 UNL     1      22.888   2.675  52.308  1.00  0.00     0.042 A 
HETATM    9  C14 UNL     1      23.913   1.804  52.558  1.00  0.00     0.057 A 
HETATM   10  C15 UNL     1      23.751   0.473  52.877  1.00  0.00     0.103 A 
ENDROOT
BRANCH   7  11
HETATM   11  N3  UNL     1      24.334   4.541  51.909  1.00  0.00    -0.340 N 
HETATM   12  H6  UNL     1      24.983   4.544  52.717  1.00  0.00     0.167 HD
BRANCH  11  13
HETATM   13  C7  UNL     1      24.982   5.151  50.806  1.00  0.00     0.035 A 
HETATM   14  C8  UNL     1      25.843   4.526  49.929  1.00  0.00     0.032 A 
HETATM   15  C9  UNL     1      26.455   5.136  48.867  1.00  0.00     0.046 A 
HETATM   16  C10 UNL     1      26.230   6.471  48.609  1.00  0.00     0.138 A 
HETATM   17  F1  UNL     1      26.872   6.988  47.546  1.00  0.00    -0.204 F 
HETATM   18  C11 UNL     1      25.376   7.141  49.457  1.00  0.00     0.074 A 
HETATM   19 CL1  UNL     1      25.125   8.832  49.084  1.00  0.00    -0.081 Cl
HETATM   20  C12 UNL     1      24.790   6.481  50.507  1.00  0.00     0.056 A 
ENDBRANCH  11  13
ENDBRANCH   7  11
BRANCH  10  21
HETATM   21  O2  UNL     1      24.809  -0.394  53.128  1.00  0.00    -0.347 OA
BRANCH  21  22
HETATM   22  C16 UNL     1      25.253  -0.737  54.428  1.00  0.00     0.195 C 
BRANCH  22  23
HETATM   23  C17 UNL     1      26.008   0.446  54.983  1.00  0.00     0.143 C 
BRANCH  23  24
HETATM   24  N4  UNL     1      27.212   0.748  54.322  1.00  0.00    -0.406 N 
HETATM   25  C18 UNL     1      27.331   1.942  53.597  1.00  0.00     0.143 C 
HETATM   26  C19 UNL     1      28.793   2.395  53.724  1.00  0.00     0.187 C 
HETATM   27  O3  UNL     1      29.532   1.425  53.087  1.00  0.00    -0.388 OA
HETATM   28  C20 UNL     1      29.535   0.189  53.716  1.00  0.00     0.187 C 
HETATM   29  C21 UNL     1      28.248  -0.189  54.344  1.00  0.00     0.143 C 
ENDBRANCH  23  24
ENDBRANCH  22  23
ENDBRANCH  21  22
ENDBRANCH  10  21
BRANCH   1  30
HETATM   30  O1  UNL     1      22.269  -1.387  53.274  1.00  0.00    -0.353 OA
HETATM   31  C1  UNL     1      21.441  -1.749  54.345  1.00  0.00     0.210 C 
ENDBRANCH   1  30
TORSDOF 7
ENDMDL
MODEL 6
REMARK VINA RESULT:      -7.8      3.478      6.022
REMARK  7 active torsions:
REMARK  status: ('A' for Active; 'I' for Inactive)
REMARK    1  A    between atoms: O1_2  and  C2_3 
REMARK    2  A    between atoms: C6_9  and  N3_10 
REMARK    3  A    between atoms: N3_10  and  C7_11 
REMARK    4  A    between atoms: C15_21  and  O2_22 
REMARK    5  A    between atoms: O2_22  and  C16_23 
REMARK    6  A    between atoms: C16_23  and  C17_24 
REMARK    7  A    between atoms: C17_24  and  N4_25 
ROOT
HETATM    1  C2  UNL     1      21.916   0.268  53.088  1.00  0.00     0.103 A 
HETATM    2  C3  UNL     1      20.798   0.471  52.318  1.00  0.00     0.072 A 
HETATM    3  C4  UNL     1      20.878   1.133  51.111  1.00  0.00     0.075 A 
HETATM    4  N1  UNL     1      19.721   1.269  50.455  1.00  0.00    -0.241 NA
HETATM    5  C5  UNL     1      19.740   1.903  49.274  1.00  0.00     0.236 A 
HETATM    6  N2  UNL     1      20.895   2.372  48.798  1.00  0.00    -0.224 NA
HETATM    7  C6  UNL     1      22.079   2.274  49.393  1.00  0.00     0.142 A 
HETATM    8  C13 UNL     1      22.056   1.629  50.592  1.00  0.00     0.042 A 
HETATM    9  C14 UNL     1      23.146   1.404  51.389  1.00  0.00     0.057 A 
HETATM   10  C15 UNL     1      23.109   0.748  52.601  1.00  0.00     0.103 A 
ENDROOT
BRANCH   7  11
HETATM   11  N3  UNL     1      23.308   2.768  48.898  1.00  0.00    -0.340 N 
HETATM   12  H6  UNL     1      23.832   2.284  48.146  1.00  0.00     0.167 HD
BRANCH  11  13
HETATM   13  C7  UNL     1      24.029   3.925  49.281  1.00  0.00     0.035 A 
HETATM   14  C8  UNL     1      25.398   4.082  49.212  1.00  0.00     0.032 A 
HETATM   15  C9  UNL     1      26.074   5.214  49.585  1.00  0.00     0.046 A 
HETATM   16  C10 UNL     1      25.387   6.304  50.071  1.00  0.00     0.138 A 
HETATM   17  F1  UNL     1      26.131   7.372  50.413  1.00  0.00    -0.204 F 
HETATM   18  C11 UNL     1      24.017   6.198  50.159  1.00  0.00     0.074 A 
HETATM   19 CL1  UNL     1      23.195   7.611  50.782  1.00  0.00    -0.081 Cl
HETATM   20  C12 UNL     1      23.390   5.041  49.772  1.00  0.00     0.056 A 
ENDBRANCH  11  13
ENDBRANCH   7  11
BRANCH  10  21
HETATM   21  O2  UNL     1      24.230   0.531  53.394  1.00  0.00    -0.347 OA
BRANCH  21  22
HETATM   22  C16 UNL     1      25.075  -0.598  53.268  1.00  0.00     0.195 C 
BRANCH  22  23
HETATM   23  C17 UNL     1      26.297  -0.175  52.488  1.00  0.00     0.143 C 
BRANCH  23  24
HETATM   24  N4  UNL     1      27.264   0.526  53.230  1.00  0.00    -0.406 N 
HETATM   25  C18 UNL     1      27.874  -0.084  54.336  1.00  0.00     0.143 C 
HETATM   26  C19 UNL     1      29.313   0.448  54.399  1.00  0.00     0.187 C 
HETATM   27  O3  UNL     1      29.192   1.793  54.660  1.00  0.00    -0.388 OA
HETATM   28  C20 UNL     1      28.632   2.536  53.631  1.00  0.00     0.187 C 
HETATM   29  C21 UNL     1      27.548   1.850  52.890  1.00  0.00     0.143 C 
ENDBRANCH  23  24
ENDBRANCH  22  23
ENDBRANCH  21  22
ENDBRANCH  10  21
BRANCH   1  30
HETATM   30  O1  UNL     1      21.822  -0.394  54.290  1.00  0.00    -0.353 OA
HETATM   31  C1  UNL     1      21.202  -1.647  54.379  1.00  0.00     0.210 C 
ENDBRANCH   1  30
TORSDOF 7
ENDMDL
MODEL 7
REMARK VINA RESULT:      -7.8      2.445      5.467
REMARK  7 active torsions:
REMARK  status: ('A' for Active; 'I' for Inactive)
REMARK    1  A    between atoms: O1_2  and  C2_3 
REMARK    2  A    between atoms: C6_9  and  N3_10 
REMARK    3  A    between atoms: N3_10  and  C7_11 
REMARK    4  A    between atoms: C15_21  and  O2_22 
REMARK    5  A    between atoms: O2_22  and  C16_23 
REMARK    6  A    between atoms: C16_23  and  C17_24 
REMARK    7  A    between atoms: C17_24  and  N4_25 
ROOT
HETATM    1  C2  UNL     1      22.438   5.415  49.789  1.00  0.00     0.103 A 
HETATM    2  C3  UNL     1      23.671   5.652  49.234  1.00  0.00     0.072 A 
HETATM    3  C4  UNL     1      24.747   4.840  49.524  1.00  0.00     0.075 A 
HETATM    4  N1  UNL     1      25.894   5.173  48.922  1.00  0.00    -0.241 NA
HETATM    5  C5  UNL     1      26.973   4.417  49.167  1.00  0.00     0.236 A 
HETATM    6  N2  UNL     1      26.872   3.373  49.992  1.00  0.00    -0.224 NA
HETATM    7  C6  UNL     1      25.769   2.985  50.623  1.00  0.00     0.142 A 
HETATM    8  C13 UNL     1      24.674   3.754  50.372  1.00  0.00     0.042 A 
HETATM    9  C14 UNL     1      23.429   3.553  50.902  1.00  0.00     0.057 A 
HETATM   10  C15 UNL     1      22.328   4.340  50.638  1.00  0.00     0.103 A 
ENDROOT
BRANCH   7  11
HETATM   11  N3  UNL     1      25.651   1.881  51.499  1.00  0.00    -0.340 N 
HETATM   12  H6  UNL     1      24.737   1.437  51.704  1.00  0.00     0.167 HD
BRANCH  11  13
HETATM   13  C7  UNL     1      26.659   1.198  52.223  1.00  0.00     0.035 A 
HETATM   14  C8  UNL     1      26.856  -0.167  52.239  1.00  0.00     0.032 A 
HETATM   15  C9  UNL     1      27.841  -0.806  52.944  1.00  0.00     0.046 A 
HETATM   16  C10 UNL     1      28.728  -0.082  53.710  1.00  0.00     0.138 A 
HETATM   17  F1  UNL     1      29.663  -0.790  54.369  1.00  0.00    -0.204 F 
HETATM   18  C11 UNL     1      28.574   1.287  53.726  1.00  0.00     0.074 A 
HETATM   19 CL1  UNL     1      29.727   2.158  54.713  1.00  0.00    -0.081 Cl
HETATM   20  C12 UNL     1      27.569   1.876  53.001  1.00  0.00     0.056 A 
ENDBRANCH  11  13
ENDBRANCH   7  11
BRANCH  10  21
HETATM   21  O2  UNL     1      21.071   4.117  51.190  1.00  0.00    -0.347 OA
BRANCH  21  22
HETATM   22  C16 UNL     1      20.857   3.410  52.398  1.00  0.00     0.195 C 
BRANCH  22  23
HETATM   23  C17 UNL     1      20.426   2.008  52.042  1.00  0.00     0.143 C 
BRANCH  23  24
HETATM   24  N4  UNL     1      21.097   0.985  52.736  1.00  0.00    -0.406 N 
HETATM   25  C18 UNL     1      22.166   0.312  52.127  1.00  0.00     0.143 C 
HETATM   26  C19 UNL     1      23.153  -0.055  53.245  1.00  0.00     0.187 C 
HETATM   27  O3  UNL     1      22.480  -0.948  54.047  1.00  0.00    -0.388 OA
HETATM   28  C20 UNL     1      21.409  -0.410  54.744  1.00  0.00     0.187 C 
HETATM   29  C21 UNL     1      20.633   0.609  53.999  1.00  0.00     0.143 C 
ENDBRANCH  23  24
ENDBRANCH  22  23
ENDBRANCH  21  22
ENDBRANCH  10  21
BRANCH   1  30
HETATM   30  O1  UNL     1      21.373   6.233  49.490  1.00  0.00    -0.353 OA
HETATM   31  C1  UNL     1      21.191   7.454  50.153  1.00  0.00     0.210 C 
ENDBRANCH   1  30
TORSDOF 7
ENDMDL
MODEL 8
REMARK VINA RESULT:      -7.7      3.596      6.083
REMARK  7 active torsions:
REMARK  status: ('A' for Active; 'I' for Inactive)
REMARK    1  A    between atoms: O1_2  and  C2_3 
REMARK    2  A    between atoms: C6_9  and  N3_10 
REMARK    3  A    between atoms: N3_10  and  C7_11 
REMARK    4  A    between atoms: C15_21  and  O2_22 
REMARK    5  A    between atoms: O2_22  and  C16_23 
REMARK    6  A    between atoms: C16_23  and  C17_24 
REMARK    7  A    between atoms: C17_24  and  N4_25 
ROOT
HETATM    1  C2  UNL     1      27.099   0.740  53.344  1.00  0.00     0.103 A 
HETATM    2  C3  UNL     1      26.657   0.093  54.471  1.00  0.00     0.072 A 
HETATM    3  C4  UNL     1      25.368  -0.390  54.553  1.00  0.00     0.075 A 
HETATM    4  N1  UNL     1      25.057  -1.001  55.701  1.00  0.00    -0.241 NA
HETATM    5  C5  UNL     1      23.817  -1.491  55.834  1.00  0.00     0.236 A 
HETATM    6  N2  UNL     1      22.945  -1.356  54.833  1.00  0.00    -0.224 NA
HETATM    7  C6  UNL     1      23.183  -0.764  53.669  1.00  0.00     0.142 A 
HETATM    8  C13 UNL     1      24.444  -0.266  53.536  1.00  0.00     0.042 A 
HETATM    9  C14 UNL     1      24.925   0.383  52.431  1.00  0.00     0.057 A 
HETATM   10  C15 UNL     1      26.204   0.881  52.310  1.00  0.00     0.103 A 
ENDROOT
BRANCH   7  11
HETATM   11  N3  UNL     1      22.266  -0.615  52.603  1.00  0.00    -0.340 N 
HETATM   12  H6  UNL     1      21.975  -1.415  52.012  1.00  0.00     0.167 HD
BRANCH  11  13
HETATM   13  C7  UNL     1      21.602   0.550  52.146  1.00  0.00     0.035 A 
HETATM   14  C8  UNL     1      20.933   1.460  52.938  1.00  0.00     0.032 A 
HETATM   15  C9  UNL     1      20.300   2.583  52.475  1.00  0.00     0.046 A 
HETATM   16  C10 UNL     1      20.301   2.874  51.129  1.00  0.00     0.138 A 
HETATM   17  F1  UNL     1      19.655   3.996  50.762  1.00  0.00    -0.204 F 
HETATM   18  C11 UNL     1      20.957   1.996  50.294  1.00  0.00     0.074 A 
HETATM   19 CL1  UNL     1      20.928   2.413  48.596  1.00  0.00    -0.081 Cl
HETATM   20  C12 UNL     1      21.574   0.885  50.812  1.00  0.00     0.056 A 
ENDBRANCH  11  13
ENDBRANCH   7  11
BRANCH  10  21
HETATM   21  O2  UNL     1      26.671   1.538  51.177  1.00  0.00    -0.347 OA
BRANCH  21  22
HETATM   22  C16 UNL     1      26.529   2.930  50.961  1.00  0.00     0.195 C 
BRANCH  22  23
HETATM   23  C17 UNL     1      25.398   3.131  49.981  1.00  0.00     0.143 C 
BRANCH  23  24
HETATM   24  N4  UNL     1      24.336   3.924  50.451  1.00  0.00    -0.406 N 
HETATM   25  C18 UNL     1      23.909   3.803  51.781  1.00  0.00     0.143 C 
HETATM   26  C19 UNL     1      23.439   5.196  52.225  1.00  0.00     0.187 C 
HETATM   27  O3  UNL     1      22.343   5.478  51.442  1.00  0.00    -0.388 OA
HETATM   28  C20 UNL     1      22.622   5.659  50.096  1.00  0.00     0.187 C 
HETATM   29  C21 UNL     1      23.678   4.771  49.556  1.00  0.00     0.143 C 
ENDBRANCH  23  24
ENDBRANCH  22  23
ENDBRANCH  21  22
ENDBRANCH  10  21
BRANCH   1  30
HETATM   30  O1  UNL     1      28.387   1.217  53.277  1.00  0.00    -0.353 OA
HETATM   31  C1  UNL     1      29.452   0.508  53.849  1.00  0.00     0.210 C 
ENDBRANCH   1  30
TORSDOF 7
ENDMDL
MODEL 9
REMARK VINA RESULT:      -7.7      5.680      8.786
REMARK  7 active torsions:
REMARK  status: ('A' for Active; 'I' for Inactive)
REMARK    1  A    between atoms: O1_2  and  C2_3 
REMARK    2  A    between atoms: C6_9  and  N3_10 
REMARK    3  A    between atoms: N3_10  and  C7_11 
REMARK    4  A    between atoms: C15_21  and  O2_22 
REMARK    5  A    between atoms: O2_22  and  C16_23 
REMARK    6  A    between atoms: C16_23  and  C17_24 
REMARK    7  A    between atoms: C17_24  and  N4_25 
ROOT
HETATM    1  C2  UNL     1      25.146   4.842  49.609  1.00  0.00     0.103 A 
HETATM    2  C3  UNL     1      25.271   6.057  48.983  1.00  0.00     0.072 A 
HETATM    3  C4  UNL     1      26.471   6.449  48.427  1.00  0.00     0.075 A 
HETATM    4  N1  UNL     1      26.466   7.653  47.845  1.00  0.00    -0.241 NA
HETATM    5  C5  UNL     1      27.605   8.084  47.287  1.00  0.00     0.236 A 
HETATM    6  N2  UNL     1      28.692   7.311  47.328  1.00  0.00    -0.224 NA
HETATM    7  C6  UNL     1      28.769   6.108  47.886  1.00  0.00     0.142 A 
HETATM    8  C13 UNL     1      27.610   5.672  48.453  1.00  0.00     0.042 A 
HETATM    9  C14 UNL     1      27.442   4.470  49.084  1.00  0.00     0.057 A 
HETATM   10  C15 UNL     1      26.262   4.042  49.653  1.00  0.00     0.103 A 
ENDROOT
BRANCH   7  11
HETATM   11  N3  UNL     1      29.916   5.281  47.936  1.00  0.00    -0.340 N 
HETATM   12  H6  UNL     1      29.858   4.254  47.811  1.00  0.00     0.167 HD
BRANCH  11  13
HETATM   13  C7  UNL     1      31.270   5.637  48.148  1.00  0.00     0.035 A 
HETATM   14  C8  UNL     1      31.729   6.886  48.510  1.00  0.00     0.032 A 
HETATM   15  C9  UNL     1      33.045   7.206  48.713  1.00  0.00     0.046 A 
HETATM   16  C10 UNL     1      34.024   6.249  48.557  1.00  0.00     0.138 A 
HETATM   17  F1  UNL     1      35.290   6.651  48.776  1.00  0.00    -0.204 F 
HETATM   18  C11 UNL     1      33.617   4.984  48.196  1.00  0.00     0.074 A 
HETATM   19 CL1  UNL     1      34.900   3.809  48.012  1.00  0.00    -0.081 Cl
HETATM   20  C12 UNL     1      32.285   4.718  48.005  1.00  0.00     0.056 A 
ENDBRANCH  11  13
ENDBRANCH   7  11
BRANCH  10  21
HETATM   21  O2  UNL     1      26.115   2.815  50.291  1.00  0.00    -0.347 OA
BRANCH  21  22
HETATM   22  C16 UNL     1      26.770   2.473  51.499  1.00  0.00     0.195 C 
BRANCH  22  23
HETATM   23  C17 UNL     1      26.488   1.017  51.780  1.00  0.00     0.143 C 
BRANCH  23  24
HETATM   24  N4  UNL     1      27.302   0.433  52.767  1.00  0.00    -0.406 N 
HETATM   25  C18 UNL     1      27.433  -0.962  52.829  1.00  0.00     0.143 C 
HETATM   26  C19 UNL     1      28.860  -1.253  53.317  1.00  0.00     0.187 C 
HETATM   27  O3  UNL     1      28.915  -0.755  54.599  1.00  0.00    -0.388 OA
HETATM   28  C20 UNL     1      28.832   0.626  54.690  1.00  0.00     0.187 C 
HETATM   29  C21 UNL     1      27.911   1.257  53.716  1.00  0.00     0.143 C 
ENDBRANCH  23  24
ENDBRANCH  22  23
ENDBRANCH  21  22
ENDBRANCH  10  21
BRANCH   1  30
HETATM   30  O1  UNL     1      23.943   4.465  50.159  1.00  0.00    -0.353 OA
HETATM   31  C1  UNL     1      23.514   4.988  51.386  1.00  0.00     0.210 C 
ENDBRANCH   1  30
TORSDOF 7
ENDMDL
