MODEL 1
REMARK VINA RESULT:      -8.2      0.000      0.000
REMARK  5 active torsions:
REMARK  status: ('A' for Active; 'I' for Inactive)
REMARK    1  A    between atoms: N1_1  and  C1_2 
REMARK    2  A    between atoms: N2_5  and  C4_6 
REMARK    3  A    between atoms: C4_6  and  C5_7 
REMARK    4  A    between atoms: C7_9  and  N3_10 
REMARK    5  A    between atoms: N3_10  and  C8_11 
ROOT
HETATM    1  C5  UNL     1      22.525   0.471  52.535  1.00  0.00     0.000 A 
HETATM    2  C6  UNL     1      23.359  -0.066  53.409  1.00  0.00     0.105 A 
HETATM    3  C7  UNL     1      24.728  -0.324  53.840  1.00  0.00     0.158 A 
HETATM    4  N4  UNL     1      24.969  -0.987  54.904  1.00  0.00    -0.220 NA
HETATM    5  C14 UNL     1      23.879  -1.474  55.670  1.00  0.00     0.257 A 
HETATM    6  N5  UNL     1      22.636  -1.286  55.353  1.00  0.00    -0.165 NA
HETATM    7  N6  UNL     1      22.287  -0.564  54.190  1.00  0.00    -0.261 N 
HETATM    8  C15 UNL     1      21.334  -0.001  53.277  1.00  0.00     0.190 A 
ENDROOT
BRANCH   1   9
HETATM    9  C4  UNL     1      22.627   1.253  51.276  1.00  0.00     0.310 C 
BRANCH   9  10
HETATM   10  N2  UNL     1      23.173   2.559  51.492  1.00  0.00     0.092 N 
HETATM   11  C3  UNL     1      22.247   3.455  52.157  1.00  0.00     0.275 C 
HETATM   12  C2  UNL     1      22.114   4.790  51.489  1.00  0.00     0.065 C 
HETATM   13  C1  UNL     1      23.483   5.409  51.247  1.00  0.00     0.221 C 
HETATM   14  C17 UNL     1      24.464   4.425  50.666  1.00  0.00     0.065 C 
HETATM   15  C16 UNL     1      23.727   3.139  50.292  1.00  0.00     0.275 C 
BRANCH  13  16
HETATM   16  N1  UNL     1      23.989   5.900  52.518  1.00  0.00     0.083 N 
HETATM   17  H1  UNL     1      23.233   6.338  53.067  1.00  0.00     0.313 HD
HETATM   18  H2  UNL     1      24.818   6.531  52.409  1.00  0.00     0.313 HD
ENDBRANCH  13  16
ENDBRANCH   9  10
ENDBRANCH   1   9
BRANCH   3  19
HETATM   19  N3  UNL     1      25.829   0.145  53.105  1.00  0.00    -0.339 N 
HETATM   20  H10 UNL     1      25.640   0.884  52.362  1.00  0.00     0.167 HD
BRANCH  19  21
HETATM   21  C8  UNL     1      27.172  -0.278  53.269  1.00  0.00     0.033 A 
HETATM   22  C9  UNL     1      27.688  -1.509  52.945  1.00  0.00     0.029 A 
HETATM   23  C10 UNL     1      29.002  -1.889  53.112  1.00  0.00     0.002 A 
HETATM   24  C11 UNL     1      29.894  -0.981  53.647  1.00  0.00     0.000 A 
HETATM   25  C12 UNL     1      29.436   0.272  53.993  1.00  0.00     0.002 A 
HETATM   26  C13 UNL     1      28.109   0.594  53.802  1.00  0.00     0.029 A 
ENDBRANCH  19  21
ENDBRANCH   3  19
TORSDOF 5
ENDMDL
MODEL 2
REMARK VINA RESULT:      -8.0      2.291      5.742
REMARK  5 active torsions:
REMARK  status: ('A' for Active; 'I' for Inactive)
REMARK    1  A    between atoms: N1_1  and  C1_2 
REMARK    2  A    between atoms: N2_5  and  C4_6 
REMARK    3  A    between atoms: C4_6  and  C5_7 
REMARK    4  A    between atoms: C7_9  and  N3_10 
REMARK    5  A    between atoms: N3_10  and  C8_11 
ROOT
HETATM    1  C5  UNL     1      25.885  -0.075  53.685  1.00  0.00     0.000 A 
HETATM    2  C6  UNL     1      26.751   0.851  53.313  1.00  0.00     0.105 A 
HETATM    3  C7  UNL     1      27.226   1.790  52.303  1.00  0.00     0.158 A 
HETATM    4  N4  UNL     1      28.245   2.529  52.519  1.00  0.00    -0.220 NA
HETATM    5  C14 UNL     1      28.915   2.425  53.764  1.00  0.00     0.257 A 
HETATM    6  N5  UNL     1      28.555   1.617  54.711  1.00  0.00    -0.165 NA
HETATM    7  N6  UNL     1      27.438   0.766  54.549  1.00  0.00    -0.261 N 
HETATM    8  C15 UNL     1      26.527  -0.242  55.008  1.00  0.00     0.190 A 
ENDROOT
BRANCH   1   9
HETATM    9  C4  UNL     1      24.703  -0.756  53.095  1.00  0.00     0.310 C 
BRANCH   9  10
HETATM   10  N2  UNL     1      23.469  -0.223  53.586  1.00  0.00     0.092 N 
HETATM   11  C3  UNL     1      22.799  -1.113  54.514  1.00  0.00     0.275 C 
HETATM   12  C2  UNL     1      21.348  -1.326  54.205  1.00  0.00     0.065 C 
HETATM   13  C1  UNL     1      20.635   0.006  54.028  1.00  0.00     0.221 C 
HETATM   14  C17 UNL     1      21.408   0.959  53.156  1.00  0.00     0.065 C 
HETATM   15  C16 UNL     1      22.593   0.223  52.530  1.00  0.00     0.275 C 
BRANCH  13  16
HETATM   16  N1  UNL     1      20.449   0.598  55.342  1.00  0.00     0.083 N 
HETATM   17  H1  UNL     1      21.064   1.417  55.464  1.00  0.00     0.313 HD
HETATM   18  H2  UNL     1      20.555  -0.097  56.119  1.00  0.00     0.313 HD
ENDBRANCH  13  16
ENDBRANCH   9  10
ENDBRANCH   1   9
BRANCH   3  19
HETATM   19  N3  UNL     1      26.584   1.917  51.061  1.00  0.00    -0.339 N 
HETATM   20  H10 UNL     1      26.393   1.022  50.517  1.00  0.00     0.167 HD
BRANCH  19  21
HETATM   21  C8  UNL     1      26.165   3.135  50.469  1.00  0.00     0.033 A 
HETATM   22  C9  UNL     1      26.844   3.861  49.520  1.00  0.00     0.029 A 
HETATM   23  C10 UNL     1      26.406   5.041  48.959  1.00  0.00     0.002 A 
HETATM   24  C11 UNL     1      25.193   5.560  49.365  1.00  0.00     0.000 A 
HETATM   25  C12 UNL     1      24.464   4.878  50.315  1.00  0.00     0.002 A 
HETATM   26  C13 UNL     1      24.955   3.701  50.839  1.00  0.00     0.029 A 
ENDBRANCH  19  21
ENDBRANCH   3  19
TORSDOF 5
ENDMDL
MODEL 3
REMARK VINA RESULT:      -7.8      2.291      4.955
REMARK  5 active torsions:
REMARK  status: ('A' for Active; 'I' for Inactive)
REMARK    1  A    between atoms: N1_1  and  C1_2 
REMARK    2  A    between atoms: N2_5  and  C4_6 
REMARK    3  A    between atoms: C4_6  and  C5_7 
REMARK    4  A    between atoms: C7_9  and  N3_10 
REMARK    5  A    between atoms: N3_10  and  C8_11 
ROOT
HETATM    1  C5  UNL     1      26.791   1.922  52.109  1.00  0.00     0.000 A 
HETATM    2  C6  UNL     1      26.693   1.005  53.056  1.00  0.00     0.105 A 
HETATM    3  C7  UNL     1      25.981  -0.129  53.635  1.00  0.00     0.158 A 
HETATM    4  N4  UNL     1      26.399  -0.693  54.701  1.00  0.00    -0.220 NA
HETATM    5  C14 UNL     1      27.574  -0.201  55.322  1.00  0.00     0.257 A 
HETATM    6  N5  UNL     1      28.262   0.801  54.870  1.00  0.00    -0.165 NA
HETATM    7  N6  UNL     1      27.865   1.479  53.695  1.00  0.00    -0.261 N 
HETATM    8  C15 UNL     1      28.024   2.494  52.694  1.00  0.00     0.190 A 
ENDROOT
BRANCH   1   9
HETATM    9  C4  UNL     1      26.027   2.315  50.897  1.00  0.00     0.310 C 
BRANCH   9  10
HETATM   10  N2  UNL     1      26.385   3.621  50.431  1.00  0.00     0.092 N 
HETATM   11  C3  UNL     1      25.309   4.583  50.566  1.00  0.00     0.275 C 
HETATM   12  C2  UNL     1      25.050   5.379  49.323  1.00  0.00     0.065 C 
HETATM   13  C1  UNL     1      26.341   5.990  48.797  1.00  0.00     0.221 C 
HETATM   14  C17 UNL     1      27.477   5.001  48.778  1.00  0.00     0.065 C 
HETATM   15  C16 UNL     1      26.938   3.606  49.099  1.00  0.00     0.275 C 
BRANCH  13  16
HETATM   16  N1  UNL     1      26.692   7.111  49.652  1.00  0.00     0.083 N 
HETATM   17  H1  UNL     1      27.685   7.364  49.533  1.00  0.00     0.313 HD
HETATM   18  H2  UNL     1      26.442   6.949  50.657  1.00  0.00     0.313 HD
ENDBRANCH  13  16
ENDBRANCH   9  10
ENDBRANCH   1   9
BRANCH   3  19
HETATM   19  N3  UNL     1      24.815  -0.641  53.044  1.00  0.00    -0.339 N 
HETATM   20  H10 UNL     1      24.936  -1.300  52.217  1.00  0.00     0.167 HD
BRANCH  19  21
HETATM   21  C8  UNL     1      23.488  -0.358  53.456  1.00  0.00     0.033 A 
HETATM   22  C9  UNL     1      22.799  -0.971  54.474  1.00  0.00     0.029 A 
HETATM   23  C10 UNL     1      21.509  -0.669  54.855  1.00  0.00     0.002 A 
HETATM   24  C11 UNL     1      20.830   0.322  54.176  1.00  0.00     0.000 A 
HETATM   25  C12 UNL     1      21.468   0.974  53.142  1.00  0.00     0.002 A 
HETATM   26  C13 UNL     1      22.760   0.628  52.808  1.00  0.00     0.029 A 
ENDBRANCH  19  21
ENDBRANCH   3  19
TORSDOF 5
ENDMDL
MODEL 4
REMARK VINA RESULT:      -7.6      1.987      5.864
REMARK  5 active torsions:
REMARK  status: ('A' for Active; 'I' for Inactive)
REMARK    1  A    between atoms: N1_1  and  C1_2 
REMARK    2  A    between atoms: N2_5  and  C4_6 
REMARK    3  A    between atoms: C4_6  and  C5_7 
REMARK    4  A    between atoms: C7_9  and  N3_10 
REMARK    5  A    between atoms: N3_10  and  C8_11 
ROOT
HETATM    1  C5  UNL     1      23.351   0.352  53.153  1.00  0.00     0.000 A 
HETATM    2  C6  UNL     1      22.034   0.287  53.052  1.00  0.00     0.105 A 
HETATM    3  C7  UNL     1      20.789   0.829  52.518  1.00  0.00     0.158 A 
HETATM    4  N4  UNL     1      19.667   0.285  52.788  1.00  0.00    -0.220 NA
HETATM    5  C14 UNL     1      19.642  -0.863  53.619  1.00  0.00     0.257 A 
HETATM    6  N5  UNL     1      20.704  -1.404  54.131  1.00  0.00    -0.165 NA
HETATM    7  N6  UNL     1      21.984  -0.861  53.880  1.00  0.00    -0.261 N 
HETATM    8  C15 UNL     1      23.411  -0.842  54.026  1.00  0.00     0.190 A 
ENDROOT
BRANCH   1   9
HETATM    9  C4  UNL     1      24.436   1.229  52.643  1.00  0.00     0.310 C 
BRANCH   9  10
HETATM   10  N2  UNL     1      25.706   0.913  53.223  1.00  0.00     0.092 N 
HETATM   11  C3  UNL     1      26.381   2.073  53.772  1.00  0.00     0.275 C 
HETATM   12  C2  UNL     1      27.811   2.200  53.341  1.00  0.00     0.065 C 
HETATM   13  C1  UNL     1      28.562   0.898  53.580  1.00  0.00     0.221 C 
HETATM   14  C17 UNL     1      27.789  -0.305  53.109  1.00  0.00     0.065 C 
HETATM   15  C16 UNL     1      26.555   0.159  52.333  1.00  0.00     0.275 C 
BRANCH  13  16
HETATM   16  N1  UNL     1      28.818   0.778  55.005  1.00  0.00     0.083 N 
HETATM   17  H1  UNL     1      28.738  -0.204  55.309  1.00  0.00     0.313 HD
HETATM   18  H2  UNL     1      28.224   1.422  55.580  1.00  0.00     0.313 HD
ENDBRANCH  13  16
ENDBRANCH   9  10
ENDBRANCH   1   9
BRANCH   3  19
HETATM   19  N3  UNL     1      20.779   1.964  51.692  1.00  0.00    -0.339 N 
HETATM   20  H10 UNL     1      20.263   2.823  52.049  1.00  0.00     0.167 HD
BRANCH  19  21
HETATM   21  C8  UNL     1      21.401   2.065  50.422  1.00  0.00     0.033 A 
HETATM   22  C9  UNL     1      21.197   1.241  49.342  1.00  0.00     0.029 A 
HETATM   23  C10 UNL     1      21.814   1.369  48.116  1.00  0.00     0.002 A 
HETATM   24  C11 UNL     1      22.715   2.398  47.930  1.00  0.00     0.000 A 
HETATM   25  C12 UNL     1      22.964   3.259  48.977  1.00  0.00     0.002 A 
HETATM   26  C13 UNL     1      22.315   3.079  50.180  1.00  0.00     0.029 A 
ENDBRANCH  19  21
ENDBRANCH   3  19
TORSDOF 5
ENDMDL
MODEL 5
REMARK VINA RESULT:      -7.4      2.227      6.413
REMARK  5 active torsions:
REMARK  status: ('A' for Active; 'I' for Inactive)
REMARK    1  A    between atoms: N1_1  and  C1_2 
REMARK    2  A    between atoms: N2_5  and  C4_6 
REMARK    3  A    between atoms: C4_6  and  C5_7 
REMARK    4  A    between atoms: C7_9  and  N3_10 
REMARK    5  A    between atoms: N3_10  and  C8_11 
ROOT
HETATM    1  C5  UNL     1      25.032   2.809  51.811  1.00  0.00     0.000 A 
HETATM    2  C6  UNL     1      23.883   2.817  51.157  1.00  0.00     0.105 A 
HETATM    3  C7  UNL     1      22.435   2.639  51.164  1.00  0.00     0.158 A 
HETATM    4  N4  UNL     1      21.749   2.795  50.098  1.00  0.00    -0.220 NA
HETATM    5  C14 UNL     1      22.416   3.146  48.898  1.00  0.00     0.257 A 
HETATM    6  N5  UNL     1      23.698   3.322  48.811  1.00  0.00    -0.165 NA
HETATM    7  N6  UNL     1      24.527   3.168  49.945  1.00  0.00    -0.261 N 
HETATM    8  C15 UNL     1      25.802   3.176  50.602  1.00  0.00     0.190 A 
ENDROOT
BRANCH   1   9
HETATM    9  C4  UNL     1      25.487   2.548  53.201  1.00  0.00     0.310 C 
BRANCH   9  10
HETATM   10  N2  UNL     1      26.538   1.578  53.255  1.00  0.00     0.092 N 
HETATM   11  C3  UNL     1      26.212   0.435  54.086  1.00  0.00     0.275 C 
HETATM   12  C2  UNL     1      27.285   0.079  55.071  1.00  0.00     0.065 C 
HETATM   13  C1  UNL     1      28.632  -0.048  54.375  1.00  0.00     0.221 C 
HETATM   14  C17 UNL     1      28.897   1.090  53.426  1.00  0.00     0.065 C 
HETATM   15  C16 UNL     1      27.815   2.156  53.600  1.00  0.00     0.275 C 
BRANCH  13  16
HETATM   16  N1  UNL     1      28.645  -1.302  53.640  1.00  0.00     0.083 N 
HETATM   17  H1  UNL     1      28.429  -2.094  54.265  1.00  0.00     0.313 HD
HETATM   18  H2  UNL     1      29.534  -1.449  53.105  1.00  0.00     0.313 HD
ENDBRANCH  13  16
ENDBRANCH   9  10
ENDBRANCH   1   9
BRANCH   3  19
HETATM   19  N3  UNL     1      21.745   2.292  52.336  1.00  0.00    -0.339 N 
HETATM   20  H10 UNL     1      21.132   3.040  52.780  1.00  0.00     0.167 HD
BRANCH  19  21
HETATM   21  C8  UNL     1      21.790   1.029  52.977  1.00  0.00     0.033 A 
HETATM   22  C9  UNL     1      22.721   0.040  52.773  1.00  0.00     0.029 A 
HETATM   23  C10 UNL     1      22.742  -1.178  53.418  1.00  0.00     0.002 A 
HETATM   24  C11 UNL     1      21.760  -1.455  54.347  1.00  0.00     0.000 A 
HETATM   25  C12 UNL     1      20.795  -0.502  54.596  1.00  0.00     0.002 A 
HETATM   26  C13 UNL     1      20.828   0.699  53.919  1.00  0.00     0.029 A 
ENDBRANCH  19  21
ENDBRANCH   3  19
TORSDOF 5
ENDMDL
MODEL 6
REMARK VINA RESULT:      -7.3      1.813      6.142
REMARK  5 active torsions:
REMARK  status: ('A' for Active; 'I' for Inactive)
REMARK    1  A    between atoms: N1_1  and  C1_2 
REMARK    2  A    between atoms: N2_5  and  C4_6 
REMARK    3  A    between atoms: C4_6  and  C5_7 
REMARK    4  A    between atoms: C7_9  and  N3_10 
REMARK    5  A    between atoms: N3_10  and  C8_11 
ROOT
HETATM    1  C5  UNL     1      25.247   3.386  50.808  1.00  0.00     0.000 A 
HETATM    2  C6  UNL     1      23.939   3.256  50.952  1.00  0.00     0.105 A 
HETATM    3  C7  UNL     1      22.784   2.399  51.196  1.00  0.00     0.158 A 
HETATM    4  N4  UNL     1      21.603   2.882  51.230  1.00  0.00    -0.220 NA
HETATM    5  C14 UNL     1      21.425   4.274  51.026  1.00  0.00     0.257 A 
HETATM    6  N5  UNL     1      22.400   5.099  50.803  1.00  0.00    -0.165 NA
HETATM    7  N6  UNL     1      23.736   4.643  50.750  1.00  0.00    -0.261 N 
HETATM    8  C15 UNL     1      25.146   4.846  50.586  1.00  0.00     0.190 A 
ENDROOT
BRANCH   1   9
HETATM    9  C4  UNL     1      26.435   2.495  50.834  1.00  0.00     0.310 C 
BRANCH   9  10
HETATM   10  N2  UNL     1      26.417   1.599  51.951  1.00  0.00     0.092 N 
HETATM   11  C3  UNL     1      27.191   2.085  53.077  1.00  0.00     0.275 C 
HETATM   12  C2  UNL     1      28.136   1.068  53.644  1.00  0.00     0.065 C 
HETATM   13  C1  UNL     1      27.410  -0.238  53.931  1.00  0.00     0.221 C 
HETATM   14  C17 UNL     1      26.520  -0.662  52.793  1.00  0.00     0.065 C 
HETATM   15  C16 UNL     1      26.770   0.248  51.590  1.00  0.00     0.275 C 
BRANCH  13  16
HETATM   16  N1  UNL     1      26.608  -0.057  55.129  1.00  0.00     0.083 N 
HETATM   17  H1  UNL     1      27.159   0.403  55.871  1.00  0.00     0.313 HD
HETATM   18  H2  UNL     1      26.163  -0.946  55.458  1.00  0.00     0.313 HD
ENDBRANCH  13  16
ENDBRANCH   9  10
ENDBRANCH   1   9
BRANCH   3  19
HETATM   19  N3  UNL     1      22.926   1.018  51.404  1.00  0.00    -0.339 N 
HETATM   20  H10 UNL     1      23.491   0.472  50.685  1.00  0.00     0.167 HD
BRANCH  19  21
HETATM   21  C8  UNL     1      22.385   0.286  52.491  1.00  0.00     0.033 A 
HETATM   22  C9  UNL     1      21.069  -0.063  52.668  1.00  0.00     0.029 A 
HETATM   23  C10 UNL     1      20.573  -0.781  53.736  1.00  0.00     0.002 A 
HETATM   24  C11 UNL     1      21.447  -1.194  54.721  1.00  0.00     0.000 A 
HETATM   25  C12 UNL     1      22.782  -0.874  54.601  1.00  0.00     0.002 A 
HETATM   26  C13 UNL     1      23.217  -0.153  53.509  1.00  0.00     0.029 A 
ENDBRANCH  19  21
ENDBRANCH   3  19
TORSDOF 5
ENDMDL
MODEL 7
REMARK VINA RESULT:      -7.3      1.479      1.981
REMARK  5 active torsions:
REMARK  status: ('A' for Active; 'I' for Inactive)
REMARK    1  A    between atoms: N1_1  and  C1_2 
REMARK    2  A    between atoms: N2_5  and  C4_6 
REMARK    3  A    between atoms: C4_6  and  C5_7 
REMARK    4  A    between atoms: C7_9  and  N3_10 
REMARK    5  A    between atoms: N3_10  and  C8_11 
ROOT
HETATM    1  C5  UNL     1      21.219   1.724  52.350  1.00  0.00     0.000 A 
HETATM    2  C6  UNL     1      21.883   0.769  52.977  1.00  0.00     0.105 A 
HETATM    3  C7  UNL     1      23.148   0.242  53.478  1.00  0.00     0.158 A 
HETATM    4  N4  UNL     1      23.199  -0.879  54.087  1.00  0.00    -0.220 NA
HETATM    5  C14 UNL     1      22.000  -1.613  54.273  1.00  0.00     0.257 A 
HETATM    6  N5  UNL     1      20.839  -1.212  53.859  1.00  0.00    -0.165 NA
HETATM    7  N6  UNL     1      20.700   0.017  53.176  1.00  0.00    -0.261 N 
HETATM    8  C15 UNL     1      19.926   1.021  52.505  1.00  0.00     0.190 A 
ENDROOT
BRANCH   1   9
HETATM    9  C4  UNL     1      21.538   3.024  51.705  1.00  0.00     0.310 C 
BRANCH   9  10
HETATM   10  N2  UNL     1      22.903   3.098  51.280  1.00  0.00     0.092 N 
HETATM   11  C3  UNL     1      23.645   4.152  51.944  1.00  0.00     0.275 C 
HETATM   12  C2  UNL     1      24.425   5.024  51.007  1.00  0.00     0.065 C 
HETATM   13  C1  UNL     1      25.282   4.181  50.075  1.00  0.00     0.221 C 
HETATM   14  C17 UNL     1      24.522   3.020  49.489  1.00  0.00     0.065 C 
HETATM   15  C16 UNL     1      23.041   3.155  49.845  1.00  0.00     0.275 C 
BRANCH  13  16
HETATM   16  N1  UNL     1      26.416   3.680  50.833  1.00  0.00     0.083 N 
HETATM   17  H1  UNL     1      26.651   4.322  51.605  1.00  0.00     0.313 HD
HETATM   18  H2  UNL     1      27.245   3.466  50.229  1.00  0.00     0.313 HD
ENDBRANCH  13  16
ENDBRANCH   9  10
ENDBRANCH   1   9
BRANCH   3  19
HETATM   19  N3  UNL     1      24.352   0.944  53.310  1.00  0.00    -0.339 N 
HETATM   20  H10 UNL     1      24.284   1.979  53.069  1.00  0.00     0.167 HD
BRANCH  19  21
HETATM   21  C8  UNL     1      25.653   0.395  53.438  1.00  0.00     0.033 A 
HETATM   22  C9  UNL     1      26.272  -0.456  52.556  1.00  0.00     0.029 A 
HETATM   23  C10 UNL     1      27.543  -0.970  52.707  1.00  0.00     0.002 A 
HETATM   24  C11 UNL     1      28.274  -0.620  53.823  1.00  0.00     0.000 A 
HETATM   25  C12 UNL     1      27.706   0.232  54.747  1.00  0.00     0.002 A 
HETATM   26  C13 UNL     1      26.431   0.714  54.541  1.00  0.00     0.029 A 
ENDBRANCH  19  21
ENDBRANCH   3  19
TORSDOF 5
ENDMDL
MODEL 8
REMARK VINA RESULT:      -7.2      2.424      6.947
REMARK  5 active torsions:
REMARK  status: ('A' for Active; 'I' for Inactive)
REMARK    1  A    between atoms: N1_1  and  C1_2 
REMARK    2  A    between atoms: N2_5  and  C4_6 
REMARK    3  A    between atoms: C4_6  and  C5_7 
REMARK    4  A    between atoms: C7_9  and  N3_10 
REMARK    5  A    between atoms: N3_10  and  C8_11 
ROOT
HETATM    1  C5  UNL     1      25.731   2.880  50.889  1.00  0.00     0.000 A 
HETATM    2  C6  UNL     1      24.865   3.876  50.816  1.00  0.00     0.105 A 
HETATM    3  C7  UNL     1      23.601   4.471  51.235  1.00  0.00     0.158 A 
HETATM    4  N4  UNL     1      23.222   5.601  50.776  1.00  0.00    -0.220 NA
HETATM    5  C14 UNL     1      24.051   6.276  49.845  1.00  0.00     0.257 A 
HETATM    6  N5  UNL     1      25.187   5.813  49.425  1.00  0.00    -0.165 NA
HETATM    7  N6  UNL     1      25.676   4.570  49.885  1.00  0.00    -0.261 N 
HETATM    8  C15 UNL     1      26.653   3.520  49.924  1.00  0.00     0.190 A 
ENDROOT
BRANCH   1   9
HETATM    9  C4  UNL     1      25.839   1.587  51.612  1.00  0.00     0.310 C 
BRANCH   9  10
HETATM   10  N2  UNL     1      27.126   1.406  52.211  1.00  0.00     0.092 N 
HETATM   11  C3  UNL     1      27.413   0.021  52.529  1.00  0.00     0.275 C 
HETATM   12  C2  UNL     1      27.920  -0.187  53.924  1.00  0.00     0.065 C 
HETATM   13  C1  UNL     1      29.082   0.751  54.218  1.00  0.00     0.221 C 
HETATM   14  C17 UNL     1      28.808   2.162  53.771  1.00  0.00     0.065 C 
HETATM   15  C16 UNL     1      27.346   2.280  53.338  1.00  0.00     0.275 C 
BRANCH  13  16
HETATM   16  N1  UNL     1      30.257   0.246  53.528  1.00  0.00     0.083 N 
HETATM   17  H1  UNL     1      30.903  -0.208  54.192  1.00  0.00     0.313 HD
HETATM   18  H2  UNL     1      30.733   0.977  52.948  1.00  0.00     0.313 HD
ENDBRANCH  13  16
ENDBRANCH   9  10
ENDBRANCH   1   9
BRANCH   3  19
HETATM   19  N3  UNL     1      22.757   3.829  52.156  1.00  0.00    -0.339 N 
HETATM   20  H10 UNL     1      22.425   4.398  52.992  1.00  0.00     0.167 HD
BRANCH  19  21
HETATM   21  C8  UNL     1      22.306   2.488  52.066  1.00  0.00     0.033 A 
HETATM   22  C9  UNL     1      22.473   1.504  53.009  1.00  0.00     0.029 A 
HETATM   23  C10 UNL     1      22.018   0.207  52.894  1.00  0.00     0.002 A 
HETATM   24  C11 UNL     1      21.337  -0.159  51.751  1.00  0.00     0.000 A 
HETATM   25  C12 UNL     1      21.138   0.785  50.767  1.00  0.00     0.002 A 
HETATM   26  C13 UNL     1      21.618   2.066  50.939  1.00  0.00     0.029 A 
ENDBRANCH  19  21
ENDBRANCH   3  19
TORSDOF 5
ENDMDL
MODEL 9
REMARK VINA RESULT:      -7.2      2.226      7.147
REMARK  5 active torsions:
REMARK  status: ('A' for Active; 'I' for Inactive)
REMARK    1  A    between atoms: N1_1  and  C1_2 
REMARK    2  A    between atoms: N2_5  and  C4_6 
REMARK    3  A    between atoms: C4_6  and  C5_7 
REMARK    4  A    between atoms: C7_9  and  N3_10 
REMARK    5  A    between atoms: N3_10  and  C8_11 
ROOT
HETATM    1  C5  UNL     1      23.399   2.230  52.297  1.00  0.00     0.000 A 
HETATM    2  C6  UNL     1      22.319   2.763  51.753  1.00  0.00     0.105 A 
HETATM    3  C7  UNL     1      21.051   2.587  51.052  1.00  0.00     0.158 A 
HETATM    4  N4  UNL     1      20.330   3.592  50.736  1.00  0.00    -0.220 NA
HETATM    5  C14 UNL     1      20.779   4.893  51.077  1.00  0.00     0.257 A 
HETATM    6  N5  UNL     1      21.892   5.131  51.699  1.00  0.00    -0.165 NA
HETATM    7  N6  UNL     1      22.746   4.072  52.082  1.00  0.00    -0.261 N 
HETATM    8  C15 UNL     1      23.937   3.552  52.689  1.00  0.00     0.190 A 
ENDROOT
BRANCH   1   9
HETATM    9  C4  UNL     1      23.956   0.867  52.493  1.00  0.00     0.310 C 
BRANCH   9  10
HETATM   10  N2  UNL     1      25.170   0.880  53.250  1.00  0.00     0.092 N 
HETATM   11  C3  UNL     1      26.356   0.921  52.416  1.00  0.00     0.275 C 
HETATM   12  C2  UNL     1      27.392  -0.096  52.789  1.00  0.00     0.065 C 
HETATM   13  C1  UNL     1      27.700  -0.029  54.278  1.00  0.00     0.221 C 
HETATM   14  C17 UNL     1      26.454   0.049  55.119  1.00  0.00     0.065 C 
HETATM   15  C16 UNL     1      25.230  -0.176  54.231  1.00  0.00     0.275 C 
BRANCH  13  16
HETATM   16  N1  UNL     1      28.517   1.148  54.517  1.00  0.00     0.083 N 
HETATM   17  H1  UNL     1      28.221   1.629  55.381  1.00  0.00     0.313 HD
HETATM   18  H2  UNL     1      28.549   1.796  53.694  1.00  0.00     0.313 HD
ENDBRANCH  13  16
ENDBRANCH   9  10
ENDBRANCH   1   9
BRANCH   3  19
HETATM   19  N3  UNL     1      20.578   1.313  50.701  1.00  0.00    -0.339 N 
HETATM   20  H10 UNL     1      20.845   0.941  49.740  1.00  0.00     0.167 HD
BRANCH  19  21
HETATM   21  C8  UNL     1      19.777   0.476  51.519  1.00  0.00     0.033 A 
HETATM   22  C9  UNL     1      20.143  -0.093  52.714  1.00  0.00     0.029 A 
HETATM   23  C10 UNL     1      19.338  -0.899  53.490  1.00  0.00     0.002 A 
HETATM   24  C11 UNL     1      18.058  -1.176  53.055  1.00  0.00     0.000 A 
HETATM   25  C12 UNL     1      17.632  -0.635  51.861  1.00  0.00     0.002 A 
HETATM   26  C13 UNL     1      18.483   0.165  51.130  1.00  0.00     0.029 A 
ENDBRANCH  19  21
ENDBRANCH   3  19
TORSDOF 5
ENDMDL
