MODEL 1
REMARK VINA RESULT:      -7.3      0.000      0.000
REMARK  5 active torsions:
REMARK  status: ('A' for Active; 'I' for Inactive)
REMARK    1  A    between atoms: C2_2  and  C3_3 
REMARK       I    between atoms: C3_3  and  N1_5 
REMARK    2  A    between atoms: N1_5  and  C4_6 
REMARK    3  A    between atoms: C9_13  and  N4_14 
REMARK    4  A    between atoms: N4_14  and  C11_16 
REMARK    5  A    between atoms: C12_17  and  C13_18 
ROOT
HETATM    1  C4  UNL     1      25.155  -0.639  54.105  1.00  0.00     0.036 A 
HETATM    2  C5  UNL     1      24.404  -1.397  55.008  1.00  0.00     0.032 A 
HETATM    3  C6  UNL     1      23.039  -1.186  55.128  1.00  0.00     0.035 A 
HETATM    4  C7  UNL     1      22.441  -0.219  54.343  1.00  0.00     0.072 A 
HETATM    5  N2  UNL     1      21.100   0.012  54.438  1.00  0.00    -0.241 NA
HETATM    6  C8  UNL     1      20.562   0.963  53.655  1.00  0.00     0.236 A 
HETATM    7  N3  UNL     1      21.295   1.695  52.780  1.00  0.00    -0.223 NA
HETATM    8  C9  UNL     1      22.637   1.491  52.660  1.00  0.00     0.143 A 
HETATM    9  C15 UNL     1      23.203   0.517  53.458  1.00  0.00     0.041 A 
HETATM   10  C16 UNL     1      24.571   0.329  53.316  1.00  0.00     0.047 A 
ENDROOT
BRANCH   8  11
HETATM   11  N4  UNL     1      23.349   2.294  51.724  1.00  0.00    -0.345 N 
HETATM   12  C10 UNL     1      24.389   3.267  51.872  1.00  0.00     0.157 C 
BRANCH  11  13
HETATM   13  C11 UNL     1      22.911   2.050  50.370  1.00  0.00     0.093 C 
HETATM   14  C12 UNL     1      22.962   3.124  49.565  1.00  0.00     0.035 C 
BRANCH  14  15
HETATM   15  C13 UNL     1      22.556   3.077  48.145  1.00  0.00     0.003 C 
HETATM   16  C14 UNL     1      22.414   1.978  47.422  1.00  0.00     0.032 C 
HETATM   17 BR1  UNL     1      22.209   4.771  47.298  1.00  0.00    -0.052 Br
ENDBRANCH  14  15
ENDBRANCH  11  13
ENDBRANCH   8  11
BRANCH   1  18
HETATM   18  N1  UNL     1      26.574  -0.873  53.994  1.00  0.00    -0.324 N 
HETATM   19  C3  UNL     1      27.315   0.144  54.701  1.00  0.00     0.244 C 
HETATM   20  O1  UNL     1      26.473   0.956  55.217  1.00  0.00    -0.268 OA
HETATM   21  H4  UNL     1      27.044  -1.662  53.481  1.00  0.00     0.169 HD
BRANCH  19  22
HETATM   22  C2  UNL     1      28.766   0.102  54.719  1.00  0.00     0.064 C 
HETATM   23  C1  UNL     1      29.569  -0.552  53.896  1.00  0.00     0.017 C 
ENDBRANCH  19  22
ENDBRANCH   1  18
TORSDOF 5
ENDMDL
MODEL 2
REMARK VINA RESULT:      -7.2      2.147      2.530
REMARK  5 active torsions:
REMARK  status: ('A' for Active; 'I' for Inactive)
REMARK    1  A    between atoms: C2_2  and  C3_3 
REMARK       I    between atoms: C3_3  and  N1_5 
REMARK    2  A    between atoms: N1_5  and  C4_6 
REMARK    3  A    between atoms: C9_13  and  N4_14 
REMARK    4  A    between atoms: N4_14  and  C11_16 
REMARK    5  A    between atoms: C12_17  and  C13_18 
ROOT
HETATM    1  C4  UNL     1      25.328   0.716  53.780  1.00  0.00     0.036 A 
HETATM    2  C5  UNL     1      24.663  -0.507  53.901  1.00  0.00     0.032 A 
HETATM    3  C6  UNL     1      23.420  -0.685  53.312  1.00  0.00     0.035 A 
HETATM    4  C7  UNL     1      22.858   0.362  52.609  1.00  0.00     0.072 A 
HETATM    5  N2  UNL     1      21.637   0.218  52.019  1.00  0.00    -0.241 NA
HETATM    6  C8  UNL     1      21.128   1.264  51.345  1.00  0.00     0.236 A 
HETATM    7  N3  UNL     1      21.779   2.449  51.230  1.00  0.00    -0.223 NA
HETATM    8  C9  UNL     1      23.000   2.628  51.807  1.00  0.00     0.143 A 
HETATM    9  C15 UNL     1      23.534   1.561  52.502  1.00  0.00     0.041 A 
HETATM   10  C16 UNL     1      24.778   1.769  53.081  1.00  0.00     0.047 A 
ENDROOT
BRANCH   8  11
HETATM   11  N4  UNL     1      23.629   3.896  51.650  1.00  0.00    -0.345 N 
HETATM   12  C10 UNL     1      23.464   5.151  52.318  1.00  0.00     0.157 C 
BRANCH  11  13
HETATM   13  C11 UNL     1      24.623   3.872  50.603  1.00  0.00     0.093 C 
HETATM   14  C12 UNL     1      25.149   5.072  50.307  1.00  0.00     0.035 C 
BRANCH  14  15
HETATM   15  C13 UNL     1      26.181   5.254  49.264  1.00  0.00     0.003 C 
HETATM   16  C14 UNL     1      27.136   4.387  48.967  1.00  0.00     0.032 C 
HETATM   17 BR1  UNL     1      26.108   6.900  48.268  1.00  0.00    -0.052 Br
ENDBRANCH  14  15
ENDBRANCH  11  13
ENDBRANCH   8  11
BRANCH   1  18
HETATM   18  N1  UNL     1      26.620   0.883  54.399  1.00  0.00    -0.324 N 
HETATM   19  C3  UNL     1      27.667   0.406  53.529  1.00  0.00     0.244 C 
HETATM   20  O1  UNL     1      27.122  -0.027  52.457  1.00  0.00    -0.268 OA
HETATM   21  H4  UNL     1      26.815   1.291  55.349  1.00  0.00     0.169 HD
BRANCH  19  22
HETATM   22  C2  UNL     1      29.054   0.479  53.956  1.00  0.00     0.064 C 
HETATM   23  C1  UNL     1      30.057  -0.300  53.586  1.00  0.00     0.017 C 
ENDBRANCH  19  22
ENDBRANCH   1  18
TORSDOF 5
ENDMDL
MODEL 3
REMARK VINA RESULT:      -7.1      1.427      2.016
REMARK  5 active torsions:
REMARK  status: ('A' for Active; 'I' for Inactive)
REMARK    1  A    between atoms: C2_2  and  C3_3 
REMARK       I    between atoms: C3_3  and  N1_5 
REMARK    2  A    between atoms: N1_5  and  C4_6 
REMARK    3  A    between atoms: C9_13  and  N4_14 
REMARK    4  A    between atoms: N4_14  and  C11_16 
REMARK    5  A    between atoms: C12_17  and  C13_18 
ROOT
HETATM    1  C4  UNL     1      25.217  -0.565  53.759  1.00  0.00     0.036 A 
HETATM    2  C5  UNL     1      24.827  -1.257  54.910  1.00  0.00     0.032 A 
HETATM    3  C6  UNL     1      23.503  -1.232  55.322  1.00  0.00     0.035 A 
HETATM    4  C7  UNL     1      22.585  -0.517  54.579  1.00  0.00     0.072 A 
HETATM    5  N2  UNL     1      21.276  -0.474  54.959  1.00  0.00    -0.241 NA
HETATM    6  C8  UNL     1      20.418   0.236  54.205  1.00  0.00     0.236 A 
HETATM    7  N3  UNL     1      20.801   0.904  53.089  1.00  0.00    -0.223 NA
HETATM    8  C9  UNL     1      22.102   0.883  52.681  1.00  0.00     0.143 A 
HETATM    9  C15 UNL     1      22.993   0.158  53.446  1.00  0.00     0.041 A 
HETATM   10  C16 UNL     1      24.310   0.153  53.009  1.00  0.00     0.047 A 
ENDROOT
BRANCH   8  11
HETATM   11  N4  UNL     1      22.438   1.607  51.501  1.00  0.00    -0.345 N 
HETATM   12  C10 UNL     1      22.299   1.311  50.108  1.00  0.00     0.157 C 
BRANCH  11  13
HETATM   13  C11 UNL     1      23.032   2.886  51.812  1.00  0.00     0.093 C 
HETATM   14  C12 UNL     1      23.516   3.549  50.748  1.00  0.00     0.035 C 
BRANCH  14  15
HETATM   15  C13 UNL     1      24.161   4.874  50.861  1.00  0.00     0.003 C 
HETATM   16  C14 UNL     1      23.792   5.842  51.684  1.00  0.00     0.032 C 
HETATM   17 BR1  UNL     1      25.665   5.193  49.701  1.00  0.00    -0.052 Br
ENDBRANCH  14  15
ENDBRANCH  11  13
ENDBRANCH   8  11
BRANCH   1  18
HETATM   18  N1  UNL     1      26.598  -0.602  53.346  1.00  0.00    -0.324 N 
HETATM   19  C3  UNL     1      27.388   0.319  54.125  1.00  0.00     0.244 C 
HETATM   20  O1  UNL     1      26.610   0.897  54.959  1.00  0.00    -0.268 OA
HETATM   21  H4  UNL     1      27.012  -1.202  52.587  1.00  0.00     0.169 HD
BRANCH  19  22
HETATM   22  C2  UNL     1      28.813   0.445  53.875  1.00  0.00     0.064 C 
HETATM   23  C1  UNL     1      29.697  -0.527  53.716  1.00  0.00     0.017 C 
ENDBRANCH  19  22
ENDBRANCH   1  18
TORSDOF 5
ENDMDL
MODEL 4
REMARK VINA RESULT:      -7.0      1.951      2.316
REMARK  5 active torsions:
REMARK  status: ('A' for Active; 'I' for Inactive)
REMARK    1  A    between atoms: C2_2  and  C3_3 
REMARK       I    between atoms: C3_3  and  N1_5 
REMARK    2  A    between atoms: N1_5  and  C4_6 
REMARK    3  A    between atoms: C9_13  and  N4_14 
REMARK    4  A    between atoms: N4_14  and  C11_16 
REMARK    5  A    between atoms: C12_17  and  C13_18 
ROOT
HETATM    1  C4  UNL     1      25.421   0.060  53.189  1.00  0.00     0.036 A 
HETATM    2  C5  UNL     1      24.690  -0.808  54.005  1.00  0.00     0.032 A 
HETATM    3  C6  UNL     1      23.319  -0.648  54.140  1.00  0.00     0.035 A 
HETATM    4  C7  UNL     1      22.696   0.378  53.458  1.00  0.00     0.072 A 
HETATM    5  N2  UNL     1      21.349   0.560  53.571  1.00  0.00    -0.241 NA
HETATM    6  C8  UNL     1      20.785   1.573  52.888  1.00  0.00     0.236 A 
HETATM    7  N3  UNL     1      21.499   2.412  52.097  1.00  0.00    -0.223 NA
HETATM    8  C9  UNL     1      22.847   2.258  51.963  1.00  0.00     0.143 A 
HETATM    9  C15 UNL     1      23.438   1.223  52.658  1.00  0.00     0.041 A 
HETATM   10  C16 UNL     1      24.811   1.088  52.503  1.00  0.00     0.047 A 
ENDROOT
BRANCH   8  11
HETATM   11  N4  UNL     1      23.537   3.174  51.118  1.00  0.00    -0.345 N 
HETATM   12  C10 UNL     1      24.426   2.992  50.011  1.00  0.00     0.157 C 
BRANCH  11  13
HETATM   13  C11 UNL     1      23.261   4.545  51.478  1.00  0.00     0.093 C 
HETATM   14  C12 UNL     1      23.039   5.361  50.436  1.00  0.00     0.035 C 
BRANCH  14  15
HETATM   15  C13 UNL     1      22.739   6.800  50.600  1.00  0.00     0.003 C 
HETATM   16  C14 UNL     1      21.542   7.315  50.832  1.00  0.00     0.032 C 
HETATM   17 BR1  UNL     1      24.234   8.005  50.457  1.00  0.00    -0.052 Br
ENDBRANCH  14  15
ENDBRANCH  11  13
ENDBRANCH   8  11
BRANCH   1  18
HETATM   18  N1  UNL     1      26.846  -0.121  53.061  1.00  0.00    -0.324 N 
HETATM   19  C3  UNL     1      27.538   0.469  54.180  1.00  0.00     0.244 C 
HETATM   20  O1  UNL     1      26.662   0.983  54.957  1.00  0.00    -0.268 OA
HETATM   21  H4  UNL     1      27.350  -0.610  52.278  1.00  0.00     0.169 HD
BRANCH  19  22
HETATM   22  C2  UNL     1      28.987   0.403  54.254  1.00  0.00     0.064 C 
HETATM   23  C1  UNL     1      29.776  -0.568  53.824  1.00  0.00     0.017 C 
ENDBRANCH  19  22
ENDBRANCH   1  18
TORSDOF 5
ENDMDL
MODEL 5
REMARK VINA RESULT:      -6.9      2.491      4.414
REMARK  5 active torsions:
REMARK  status: ('A' for Active; 'I' for Inactive)
REMARK    1  A    between atoms: C2_2  and  C3_3 
REMARK       I    between atoms: C3_3  and  N1_5 
REMARK    2  A    between atoms: N1_5  and  C4_6 
REMARK    3  A    between atoms: C9_13  and  N4_14 
REMARK    4  A    between atoms: N4_14  and  C11_16 
REMARK    5  A    between atoms: C12_17  and  C13_18 
ROOT
HETATM    1  C4  UNL     1      26.144   1.066  52.097  1.00  0.00     0.036 A 
HETATM    2  C5  UNL     1      26.473   2.258  51.445  1.00  0.00     0.032 A 
HETATM    3  C6  UNL     1      25.491   3.201  51.180  1.00  0.00     0.035 A 
HETATM    4  C7  UNL     1      24.192   2.941  51.572  1.00  0.00     0.072 A 
HETATM    5  N2  UNL     1      23.205   3.848  51.325  1.00  0.00    -0.241 NA
HETATM    6  C8  UNL     1      21.955   3.552  51.724  1.00  0.00     0.236 A 
HETATM    7  N3  UNL     1      21.642   2.394  52.357  1.00  0.00    -0.223 NA
HETATM    8  C9  UNL     1      22.604   1.465  52.618  1.00  0.00     0.143 A 
HETATM    9  C15 UNL     1      23.892   1.757  52.214  1.00  0.00     0.041 A 
HETATM   10  C16 UNL     1      24.852   0.794  52.493  1.00  0.00     0.047 A 
ENDROOT
BRANCH   8  11
HETATM   11  N4  UNL     1      22.208   0.270  53.285  1.00  0.00    -0.345 N 
HETATM   12  C10 UNL     1      22.744  -0.438  54.408  1.00  0.00     0.157 C 
BRANCH  11  13
HETATM   13  C11 UNL     1      21.033  -0.312  52.683  1.00  0.00     0.093 C 
HETATM   14  C12 UNL     1      19.976  -0.411  53.507  1.00  0.00     0.035 C 
BRANCH  14  15
HETATM   15  C13 UNL     1      18.681  -0.980  53.077  1.00  0.00     0.003 C 
HETATM   16  C14 UNL     1      18.108  -2.060  53.584  1.00  0.00     0.032 C 
HETATM   17 BR1  UNL     1      17.770  -0.052  51.656  1.00  0.00    -0.052 Br
ENDBRANCH  14  15
ENDBRANCH  11  13
ENDBRANCH   8  11
BRANCH   1  18
HETATM   18  N1  UNL     1      27.179   0.097  52.364  1.00  0.00    -0.324 N 
HETATM   19  C3  UNL     1      27.852   0.398  53.603  1.00  0.00     0.244 C 
HETATM   20  O1  UNL     1      27.318   1.450  54.095  1.00  0.00    -0.268 OA
HETATM   21  H4  UNL     1      27.438  -0.728  51.765  1.00  0.00     0.169 HD
BRANCH  19  22
HETATM   22  C2  UNL     1      28.933  -0.453  54.067  1.00  0.00     0.064 C 
HETATM   23  C1  UNL     1      29.454  -1.506  53.458  1.00  0.00     0.017 C 
ENDBRANCH  19  22
ENDBRANCH   1  18
TORSDOF 5
ENDMDL
MODEL 6
REMARK VINA RESULT:      -6.8      3.340      6.203
REMARK  5 active torsions:
REMARK  status: ('A' for Active; 'I' for Inactive)
REMARK    1  A    between atoms: C2_2  and  C3_3 
REMARK       I    between atoms: C3_3  and  N1_5 
REMARK    2  A    between atoms: N1_5  and  C4_6 
REMARK    3  A    between atoms: C9_13  and  N4_14 
REMARK    4  A    between atoms: N4_14  and  C11_16 
REMARK    5  A    between atoms: C12_17  and  C13_18 
ROOT
HETATM    1  C4  UNL     1      22.101   1.540  50.165  1.00  0.00     0.036 A 
HETATM    2  C5  UNL     1      20.773   1.108  50.228  1.00  0.00     0.032 A 
HETATM    3  C6  UNL     1      20.327   0.384  51.324  1.00  0.00     0.035 A 
HETATM    4  C7  UNL     1      21.214   0.101  52.343  1.00  0.00     0.072 A 
HETATM    5  N2  UNL     1      20.806  -0.609  53.433  1.00  0.00    -0.241 NA
HETATM    6  C8  UNL     1      21.704  -0.861  54.401  1.00  0.00     0.236 A 
HETATM    7  N3  UNL     1      22.992  -0.440  54.336  1.00  0.00    -0.223 NA
HETATM    8  C9  UNL     1      23.434   0.271  53.260  1.00  0.00     0.143 A 
HETATM    9  C15 UNL     1      22.521   0.538  52.259  1.00  0.00     0.041 A 
HETATM   10  C16 UNL     1      22.997   1.264  51.176  1.00  0.00     0.047 A 
ENDROOT
BRANCH   8  11
HETATM   11  N4  UNL     1      24.797   0.683  53.252  1.00  0.00    -0.345 N 
HETATM   12  C10 UNL     1      25.431   1.946  53.484  1.00  0.00     0.157 C 
BRANCH  11  13
HETATM   13  C11 UNL     1      25.684  -0.414  52.949  1.00  0.00     0.093 C 
HETATM   14  C12 UNL     1      26.943  -0.252  53.390  1.00  0.00     0.035 C 
BRANCH  14  15
HETATM   15  C13 UNL     1      27.998  -1.265  53.177  1.00  0.00     0.003 C 
HETATM   16  C14 UNL     1      27.809  -2.486  52.704  1.00  0.00     0.032 C 
HETATM   17 BR1  UNL     1      29.793  -0.738  53.637  1.00  0.00    -0.052 Br
ENDBRANCH  14  15
ENDBRANCH  11  13
ENDBRANCH   8  11
BRANCH   1  18
HETATM   18  N1  UNL     1      22.547   2.291  49.018  1.00  0.00    -0.324 N 
HETATM   19  C3  UNL     1      22.583   3.702  49.315  1.00  0.00     0.244 C 
HETATM   20  O1  UNL     1      22.201   3.859  50.525  1.00  0.00    -0.268 OA
HETATM   21  H4  UNL     1      22.818   1.904  48.078  1.00  0.00     0.169 HD
BRANCH  19  22
HETATM   22  C2  UNL     1      23.005   4.648  48.297  1.00  0.00     0.064 C 
HETATM   23  C1  UNL     1      23.717   5.751  48.461  1.00  0.00     0.017 C 
ENDBRANCH  19  22
ENDBRANCH   1  18
TORSDOF 5
ENDMDL
MODEL 7
REMARK VINA RESULT:      -6.7      3.499      6.465
REMARK  5 active torsions:
REMARK  status: ('A' for Active; 'I' for Inactive)
REMARK    1  A    between atoms: C2_2  and  C3_3 
REMARK       I    between atoms: C3_3  and  N1_5 
REMARK    2  A    between atoms: N1_5  and  C4_6 
REMARK    3  A    between atoms: C9_13  and  N4_14 
REMARK    4  A    between atoms: N4_14  and  C11_16 
REMARK    5  A    between atoms: C12_17  and  C13_18 
ROOT
HETATM    1  C4  UNL     1      20.924   0.410  52.401  1.00  0.00     0.036 A 
HETATM    2  C5  UNL     1      20.120  -0.317  53.283  1.00  0.00     0.032 A 
HETATM    3  C6  UNL     1      20.693  -1.011  54.339  1.00  0.00     0.035 A 
HETATM    4  C7  UNL     1      22.064  -0.968  54.500  1.00  0.00     0.072 A 
HETATM    5  N2  UNL     1      22.657  -1.640  55.528  1.00  0.00    -0.241 NA
HETATM    6  C8  UNL     1      23.994  -1.570  55.645  1.00  0.00     0.236 A 
HETATM    7  N3  UNL     1      24.771  -0.863  54.787  1.00  0.00    -0.223 NA
HETATM    8  C9  UNL     1      24.211  -0.181  53.748  1.00  0.00     0.143 A 
HETATM    9  C15 UNL     1      22.838  -0.243  53.616  1.00  0.00     0.041 A 
HETATM   10  C16 UNL     1      22.294   0.460  52.551  1.00  0.00     0.047 A 
ENDROOT
BRANCH   8  11
HETATM   11  N4  UNL     1      25.082   0.541  52.883  1.00  0.00    -0.345 N 
HETATM   12  C10 UNL     1      24.843   1.475  51.823  1.00  0.00     0.157 C 
BRANCH  11  13
HETATM   13  C11 UNL     1      26.469   0.251  53.158  1.00  0.00     0.093 C 
HETATM   14  C12 UNL     1      27.214   1.326  53.463  1.00  0.00     0.035 C 
BRANCH  14  15
HETATM   15  C13 UNL     1      28.655   1.235  53.777  1.00  0.00     0.003 C 
HETATM   16  C14 UNL     1      29.429   2.244  54.142  1.00  0.00     0.032 C 
HETATM   17 BR1  UNL     1      29.451  -0.513  53.633  1.00  0.00    -0.052 Br
ENDBRANCH  14  15
ENDBRANCH  11  13
ENDBRANCH   8  11
BRANCH   1  18
HETATM   18  N1  UNL     1      20.311   1.124  51.309  1.00  0.00    -0.324 N 
HETATM   19  C3  UNL     1      19.860   2.425  51.741  1.00  0.00     0.244 C 
HETATM   20  O1  UNL     1      20.146   2.549  52.980  1.00  0.00    -0.268 OA
HETATM   21  H4  UNL     1      20.190   0.782  50.322  1.00  0.00     0.169 HD
BRANCH  19  22
HETATM   22  C2  UNL     1      19.209   3.317  50.797  1.00  0.00     0.064 C 
HETATM   23  C1  UNL     1      18.085   3.995  50.966  1.00  0.00     0.017 C 
ENDBRANCH  19  22
ENDBRANCH   1  18
TORSDOF 5
ENDMDL
MODEL 8
REMARK VINA RESULT:      -6.6      2.244      4.992
REMARK  5 active torsions:
REMARK  status: ('A' for Active; 'I' for Inactive)
REMARK    1  A    between atoms: C2_2  and  C3_3 
REMARK       I    between atoms: C3_3  and  N1_5 
REMARK    2  A    between atoms: N1_5  and  C4_6 
REMARK    3  A    between atoms: C9_13  and  N4_14 
REMARK    4  A    between atoms: N4_14  and  C11_16 
REMARK    5  A    between atoms: C12_17  and  C13_18 
ROOT
HETATM    1  C4  UNL     1      22.069   0.450  53.436  1.00  0.00     0.036 A 
HETATM    2  C5  UNL     1      22.743  -0.656  53.962  1.00  0.00     0.032 A 
HETATM    3  C6  UNL     1      24.130  -0.687  53.973  1.00  0.00     0.035 A 
HETATM    4  C7  UNL     1      24.825   0.389  53.457  1.00  0.00     0.072 A 
HETATM    5  N2  UNL     1      26.189   0.388  53.453  1.00  0.00    -0.241 NA
HETATM    6  C8  UNL     1      26.824   1.456  52.940  1.00  0.00     0.236 A 
HETATM    7  N3  UNL     1      26.165   2.527  52.431  1.00  0.00    -0.223 NA
HETATM    8  C9  UNL     1      24.803   2.560  52.418  1.00  0.00     0.143 A 
HETATM    9  C15 UNL     1      24.138   1.470  52.942  1.00  0.00     0.041 A 
HETATM   10  C16 UNL     1      22.752   1.529  52.917  1.00  0.00     0.047 A 
ENDROOT
BRANCH   8  11
HETATM   11  N4  UNL     1      24.173   3.714  51.868  1.00  0.00    -0.345 N 
HETATM   12  C10 UNL     1      23.595   4.881  52.463  1.00  0.00     0.157 C 
BRANCH  11  13
HETATM   13  C11 UNL     1      24.128   3.661  50.426  1.00  0.00     0.093 C 
HETATM   14  C12 UNL     1      22.920   3.911  49.896  1.00  0.00     0.035 C 
BRANCH  14  15
HETATM   15  C13 UNL     1      22.671   3.904  48.439  1.00  0.00     0.003 C 
HETATM   16  C14 UNL     1      22.667   4.969  47.654  1.00  0.00     0.032 C 
HETATM   17 BR1  UNL     1      22.328   2.186  47.640  1.00  0.00    -0.052 Br
ENDBRANCH  14  15
ENDBRANCH  11  13
ENDBRANCH   8  11
BRANCH   1  18
HETATM   18  N1  UNL     1      20.627   0.464  53.433  1.00  0.00    -0.324 N 
HETATM   19  C3  UNL     1      20.116   0.138  52.125  1.00  0.00     0.244 C 
HETATM   20  O1  UNL     1      21.114  -0.067  51.353  1.00  0.00    -0.268 OA
HETATM   21  H4  UNL     1      19.998   0.676  54.250  1.00  0.00     0.169 HD
BRANCH  19  22
HETATM   22  C2  UNL     1      18.683   0.095  51.895  1.00  0.00     0.064 C 
HETATM   23  C1  UNL     1      17.807  -0.759  52.399  1.00  0.00     0.017 C 
ENDBRANCH  19  22
ENDBRANCH   1  18
TORSDOF 5
ENDMDL
MODEL 9
REMARK VINA RESULT:      -6.6      2.747      4.030
REMARK  5 active torsions:
REMARK  status: ('A' for Active; 'I' for Inactive)
REMARK    1  A    between atoms: C2_2  and  C3_3 
REMARK       I    between atoms: C3_3  and  N1_5 
REMARK    2  A    between atoms: N1_5  and  C4_6 
REMARK    3  A    between atoms: C9_13  and  N4_14 
REMARK    4  A    between atoms: N4_14  and  C11_16 
REMARK    5  A    between atoms: C12_17  and  C13_18 
ROOT
HETATM    1  C4  UNL     1      26.125   2.424  51.553  1.00  0.00     0.036 A 
HETATM    2  C5  UNL     1      26.650   1.195  51.963  1.00  0.00     0.032 A 
HETATM    3  C6  UNL     1      25.822   0.239  52.532  1.00  0.00     0.035 A 
HETATM    4  C7  UNL     1      24.479   0.524  52.683  1.00  0.00     0.072 A 
HETATM    5  N2  UNL     1      23.639  -0.396  53.239  1.00  0.00    -0.241 NA
HETATM    6  C8  UNL     1      22.340  -0.076  53.367  1.00  0.00     0.236 A 
HETATM    7  N3  UNL     1      21.835   1.118  52.967  1.00  0.00    -0.223 NA
HETATM    8  C9  UNL     1      22.646   2.061  52.408  1.00  0.00     0.143 A 
HETATM    9  C15 UNL     1      23.983   1.744  52.271  1.00  0.00     0.041 A 
HETATM   10  C16 UNL     1      24.787   2.721  51.699  1.00  0.00     0.047 A 
ENDROOT
BRANCH   8  11
HETATM   11  N4  UNL     1      22.054   3.294  52.011  1.00  0.00    -0.345 N 
HETATM   12  C10 UNL     1      22.204   4.638  52.481  1.00  0.00     0.157 C 
BRANCH  11  13
HETATM   13  C11 UNL     1      21.129   3.114  50.918  1.00  0.00     0.093 C 
HETATM   14  C12 UNL     1      21.672   3.261  49.698  1.00  0.00     0.035 C 
BRANCH  14  15
HETATM   15  C13 UNL     1      20.887   3.115  48.454  1.00  0.00     0.003 C 
HETATM   16  C14 UNL     1      19.610   2.775  48.385  1.00  0.00     0.032 C 
HETATM   17 BR1  UNL     1      21.826   3.453  46.807  1.00  0.00    -0.052 Br
ENDBRANCH  14  15
ENDBRANCH  11  13
ENDBRANCH   8  11
BRANCH   1  18
HETATM   18  N1  UNL     1      27.001   3.407  50.964  1.00  0.00    -0.324 N 
HETATM   19  C3  UNL     1      26.625   3.672  49.598  1.00  0.00     0.244 C 
HETATM   20  O1  UNL     1      25.612   2.942  49.320  1.00  0.00    -0.268 OA
HETATM   21  H4  UNL     1      27.812   3.888  51.431  1.00  0.00     0.169 HD
BRANCH  19  22
HETATM   22  C2  UNL     1      27.377   4.633  48.811  1.00  0.00     0.064 C 
HETATM   23  C1  UNL     1      27.078   5.901  48.580  1.00  0.00     0.017 C 
ENDBRANCH  19  22
ENDBRANCH   1  18
TORSDOF 5
ENDMDL
