MODEL 1
REMARK VINA RESULT:      -9.8      0.000      0.000
REMARK  6 active torsions:
REMARK  status: ('A' for Active; 'I' for Inactive)
REMARK       I    between atoms: N1_1  and  C1_2 
REMARK    1  A    between atoms: C1_2  and  C2_4 
REMARK    2  A    between atoms: C2_4  and  N2_5 
REMARK    3  A    between atoms: C3_6  and  C4_7 
REMARK    4  A    between atoms: C6_9  and  C7_10 
REMARK    5  A    between atoms: C13_16  and  O2_17 
REMARK    6  A    between atoms: C14_18  and  C15_19 
ROOT
HETATM    1  C4  UNL     1      26.034   0.427  52.074  1.00  0.00    -0.032 A 
HETATM    2  C5  UNL     1      26.362   1.614  51.435  1.00  0.00     0.026 A 
HETATM    3  C6  UNL     1      25.397   2.546  51.120  1.00  0.00     0.009 A 
HETATM    4  C13 UNL     1      24.067   2.279  51.461  1.00  0.00     0.087 A 
HETATM    5  C14 UNL     1      23.743   1.106  52.093  1.00  0.00     0.009 A 
HETATM    6  C21 UNL     1      24.716   0.180  52.400  1.00  0.00     0.026 A 
ENDROOT
BRANCH   1   7
HETATM    7  C3  UNL     1      27.124  -0.474  52.381  1.00  0.00     0.046 C 
HETATM    8  C2  UNL     1      27.844  -0.730  53.441  1.00  0.00     0.095 C 
BRANCH   8   9
HETATM    9  C1  UNL     1      28.905  -1.719  53.450  1.00  0.00     0.265 C 
HETATM   10  N1  UNL     1      28.770  -3.083  53.208  1.00  0.00    -0.365 N 
HETATM   11  H1  UNL     1      29.155  -3.276  52.277  1.00  0.00     0.159 HD
HETATM   12  H2  UNL     1      28.423  -3.990  53.617  1.00  0.00     0.159 HD
HETATM   13  O1  UNL     1      30.089  -1.300  53.705  1.00  0.00    -0.266 OA
ENDBRANCH   8   9
BRANCH   8  14
HETATM   14  N2  UNL     1      27.647  -0.064  54.706  1.00  0.00    -0.395 N 
HETATM   15  H3  UNL     1      27.777  -0.902  55.306  1.00  0.00     0.156 HD
HETATM   16  H4  UNL     1      27.442   0.957  54.911  1.00  0.00     0.156 HD
ENDBRANCH   8  14
ENDBRANCH   1   7
BRANCH   3  17
HETATM   17  C7  UNL     1      25.647   3.800  50.429  1.00  0.00    -0.023 A 
HETATM   18  C8  UNL     1      25.058   5.041  50.355  1.00  0.00     0.012 A 
HETATM   19  C9  UNL     1      25.559   6.031  49.538  1.00  0.00     0.001 A 
HETATM   20  C10 UNL     1      26.660   5.789  48.784  1.00  0.00     0.000 A 
HETATM   21  C11 UNL     1      27.301   4.591  48.797  1.00  0.00     0.001 A 
HETATM   22  C12 UNL     1      26.786   3.590  49.631  1.00  0.00     0.012 A 
ENDBRANCH   3  17
BRANCH   5  23
HETATM   23  C15 UNL     1      22.436   0.644  52.540  1.00  0.00    -0.023 A 
HETATM   24  C16 UNL     1      22.436   0.250  53.874  1.00  0.00     0.012 A 
HETATM   25  C17 UNL     1      21.250  -0.210  54.404  1.00  0.00     0.001 A 
HETATM   26  C18 UNL     1      20.086  -0.295  53.676  1.00  0.00     0.000 A 
HETATM   27  C19 UNL     1      20.094   0.095  52.361  1.00  0.00     0.001 A 
HETATM   28  C20 UNL     1      21.270   0.558  51.817  1.00  0.00     0.012 A 
ENDBRANCH   5  23
BRANCH   4  29
HETATM   29  O2  UNL     1      22.975   3.099  51.222  1.00  0.00    -0.359 OA
HETATM   30  H12 UNL     1      23.040   3.783  50.458  1.00  0.00     0.217 HD
ENDBRANCH   4  29
TORSDOF 6
ENDMDL
MODEL 2
REMARK VINA RESULT:      -9.7      0.162      5.569
REMARK  6 active torsions:
REMARK  status: ('A' for Active; 'I' for Inactive)
REMARK       I    between atoms: N1_1  and  C1_2 
REMARK    1  A    between atoms: C1_2  and  C2_4 
REMARK    2  A    between atoms: C2_4  and  N2_5 
REMARK    3  A    between atoms: C3_6  and  C4_7 
REMARK    4  A    between atoms: C6_9  and  C7_10 
REMARK    5  A    between atoms: C13_16  and  O2_17 
REMARK    6  A    between atoms: C14_18  and  C15_19 
ROOT
HETATM    1  C4  UNL     1      26.140   0.527  52.038  1.00  0.00    -0.032 A 
HETATM    2  C5  UNL     1      24.861   0.111  52.380  1.00  0.00     0.026 A 
HETATM    3  C6  UNL     1      23.757   0.880  52.083  1.00  0.00     0.009 A 
HETATM    4  C13 UNL     1      23.942   2.098  51.420  1.00  0.00     0.087 A 
HETATM    5  C14 UNL     1      25.206   2.508  51.082  1.00  0.00     0.009 A 
HETATM    6  C21 UNL     1      26.304   1.733  51.387  1.00  0.00     0.026 A 
ENDROOT
BRANCH   1   7
HETATM    7  C3  UNL     1      27.230  -0.364  52.374  1.00  0.00     0.046 C 
HETATM    8  C2  UNL     1      27.864  -0.679  53.472  1.00  0.00     0.095 C 
BRANCH   8   9
HETATM    9  C1  UNL     1      28.953  -1.636  53.503  1.00  0.00     0.265 C 
HETATM   10  N1  UNL     1      28.863  -3.004  53.262  1.00  0.00    -0.365 N 
HETATM   11  H1  UNL     1      29.270  -3.187  52.339  1.00  0.00     0.159 HD
HETATM   12  H2  UNL     1      28.534  -3.920  53.666  1.00  0.00     0.159 HD
HETATM   13  O1  UNL     1      30.119  -1.182  53.780  1.00  0.00    -0.266 OA
ENDBRANCH   8   9
BRANCH   8  14
HETATM   14  N2  UNL     1      27.536  -0.115  54.759  1.00  0.00    -0.395 N 
HETATM   15  H3  UNL     1      26.810  -0.812  55.016  1.00  0.00     0.156 HD
HETATM   16  H4  UNL     1      27.937   0.738  55.249  1.00  0.00     0.156 HD
ENDBRANCH   8  14
ENDBRANCH   1   7
BRANCH   3  17
HETATM   17  C7  UNL     1      22.386   0.535  52.426  1.00  0.00    -0.023 A 
HETATM   18  C8  UNL     1      21.184   0.421  51.768  1.00  0.00     0.012 A 
HETATM   19  C9  UNL     1      20.024   0.095  52.436  1.00  0.00     0.001 A 
HETATM   20  C10 UNL     1      20.054  -0.123  53.773  1.00  0.00     0.000 A 
HETATM   21  C11 UNL     1      21.199  -0.029  54.499  1.00  0.00     0.001 A 
HETATM   22  C12 UNL     1      22.375   0.302  53.813  1.00  0.00     0.012 A 
ENDBRANCH   3  17
BRANCH   5  23
HETATM   23  C15 UNL     1      25.613   3.722  50.388  1.00  0.00    -0.023 A 
HETATM   24  C16 UNL     1      26.701   3.516  49.545  1.00  0.00     0.012 A 
HETATM   25  C17 UNL     1      27.175   4.600  48.838  1.00  0.00     0.001 A 
HETATM   26  C18 UNL     1      26.625   5.857  48.933  1.00  0.00     0.000 A 
HETATM   27  C19 UNL     1      25.552   6.052  49.767  1.00  0.00     0.001 A 
HETATM   28  C20 UNL     1      25.066   4.980  50.479  1.00  0.00     0.012 A 
ENDBRANCH   5  23
BRANCH   4  29
HETATM   29  O2  UNL     1      22.951   2.991  51.045  1.00  0.00    -0.359 OA
HETATM   30  H12 UNL     1      22.348   2.742  50.251  1.00  0.00     0.217 HD
ENDBRANCH   4  29
TORSDOF 6
ENDMDL
MODEL 3
REMARK VINA RESULT:      -9.5      2.865      6.892
REMARK  6 active torsions:
REMARK  status: ('A' for Active; 'I' for Inactive)
REMARK       I    between atoms: N1_1  and  C1_2 
REMARK    1  A    between atoms: C1_2  and  C2_4 
REMARK    2  A    between atoms: C2_4  and  N2_5 
REMARK    3  A    between atoms: C3_6  and  C4_7 
REMARK    4  A    between atoms: C6_9  and  C7_10 
REMARK    5  A    between atoms: C13_16  and  O2_17 
REMARK    6  A    between atoms: C14_18  and  C15_19 
ROOT
HETATM    1  C4  UNL     1      25.578   2.496  51.104  1.00  0.00    -0.032 A 
HETATM    2  C5  UNL     1      24.257   2.217  51.425  1.00  0.00     0.026 A 
HETATM    3  C6  UNL     1      23.929   1.152  52.235  1.00  0.00     0.009 A 
HETATM    4  C13 UNL     1      24.956   0.346  52.738  1.00  0.00     0.087 A 
HETATM    5  C14 UNL     1      26.261   0.623  52.420  1.00  0.00     0.009 A 
HETATM    6  C21 UNL     1      26.577   1.689  51.607  1.00  0.00     0.026 A 
ENDROOT
BRANCH   1   7
HETATM    7  C3  UNL     1      25.818   3.652  50.267  1.00  0.00     0.046 C 
HETATM    8  C2  UNL     1      25.468   4.910  50.301  1.00  0.00     0.095 C 
BRANCH   8   9
HETATM    9  C1  UNL     1      25.871   5.866  49.289  1.00  0.00     0.265 C 
HETATM   10  N1  UNL     1      27.083   6.549  49.226  1.00  0.00    -0.365 N 
HETATM   11  H1  UNL     1      27.639   6.132  48.472  1.00  0.00     0.159 HD
HETATM   12  H2  UNL     1      27.644   7.328  49.660  1.00  0.00     0.159 HD
HETATM   13  O1  UNL     1      25.031   6.110  48.352  1.00  0.00    -0.266 OA
ENDBRANCH   8   9
BRANCH   8  14
HETATM   14  N2  UNL     1      24.658   5.473  51.355  1.00  0.00    -0.395 N 
HETATM   15  H3  UNL     1      24.490   4.585  51.867  1.00  0.00     0.156 HD
HETATM   16  H4  UNL     1      24.359   6.478  51.518  1.00  0.00     0.156 HD
ENDBRANCH   8  14
ENDBRANCH   1   7
BRANCH   3  17
HETATM   17  C7  UNL     1      22.573   0.772  52.600  1.00  0.00    -0.023 A 
HETATM   18  C8  UNL     1      21.891   0.472  53.756  1.00  0.00     0.012 A 
HETATM   19  C9  UNL     1      20.564   0.102  53.736  1.00  0.00     0.001 A 
HETATM   20  C10 UNL     1      19.903   0.028  52.555  1.00  0.00     0.000 A 
HETATM   21  C11 UNL     1      20.503   0.306  51.368  1.00  0.00     0.001 A 
HETATM   22  C12 UNL     1      21.852   0.682  51.396  1.00  0.00     0.012 A 
ENDBRANCH   3  17
BRANCH   5  23
HETATM   23  C15 UNL     1      27.468  -0.075  52.843  1.00  0.00    -0.023 A 
HETATM   24  C16 UNL     1      28.429   0.786  53.363  1.00  0.00     0.012 A 
HETATM   25  C17 UNL     1      29.616   0.233  53.793  1.00  0.00     0.001 A 
HETATM   26  C18 UNL     1      29.884  -1.115  53.726  1.00  0.00     0.000 A 
HETATM   27  C19 UNL     1      28.931  -1.958  53.211  1.00  0.00     0.001 A 
HETATM   28  C20 UNL     1      27.739  -1.422  52.779  1.00  0.00     0.012 A 
ENDBRANCH   5  23
BRANCH   4  29
HETATM   29  O2  UNL     1      24.808  -0.759  53.561  1.00  0.00    -0.359 OA
HETATM   30  H12 UNL     1      23.923  -0.868  54.073  1.00  0.00     0.217 HD
ENDBRANCH   4  29
TORSDOF 6
ENDMDL
MODEL 4
REMARK VINA RESULT:      -9.4      2.920      5.772
REMARK  6 active torsions:
REMARK  status: ('A' for Active; 'I' for Inactive)
REMARK       I    between atoms: N1_1  and  C1_2 
REMARK    1  A    between atoms: C1_2  and  C2_4 
REMARK    2  A    between atoms: C2_4  and  N2_5 
REMARK    3  A    between atoms: C3_6  and  C4_7 
REMARK    4  A    between atoms: C6_9  and  C7_10 
REMARK    5  A    between atoms: C13_16  and  O2_17 
REMARK    6  A    between atoms: C14_18  and  C15_19 
ROOT
HETATM    1  C4  UNL     1      25.411   2.572  51.089  1.00  0.00    -0.032 A 
HETATM    2  C5  UNL     1      26.508   1.814  51.473  1.00  0.00     0.026 A 
HETATM    3  C6  UNL     1      26.356   0.658  52.206  1.00  0.00     0.009 A 
HETATM    4  C13 UNL     1      25.065   0.251  52.562  1.00  0.00     0.087 A 
HETATM    5  C14 UNL     1      23.982   1.001  52.183  1.00  0.00     0.009 A 
HETATM    6  C21 UNL     1      24.146   2.157  51.452  1.00  0.00     0.026 A 
ENDROOT
BRANCH   1   7
HETATM    7  C3  UNL     1      25.677   3.756  50.300  1.00  0.00     0.046 C 
HETATM    8  C2  UNL     1      25.302   5.006  50.350  1.00  0.00     0.095 C 
BRANCH   8   9
HETATM    9  C1  UNL     1      25.745   5.999  49.390  1.00  0.00     0.265 C 
HETATM   10  N1  UNL     1      26.958   6.681  49.402  1.00  0.00    -0.365 N 
HETATM   11  H1  UNL     1      27.545   6.293  48.657  1.00  0.00     0.159 HD
HETATM   12  H2  UNL     1      27.501   7.444  49.887  1.00  0.00     0.159 HD
HETATM   13  O1  UNL     1      24.944   6.278  48.429  1.00  0.00    -0.266 OA
ENDBRANCH   8   9
BRANCH   8  14
HETATM   14  N2  UNL     1      24.420   5.523  51.368  1.00  0.00    -0.395 N 
HETATM   15  H3  UNL     1      25.028   6.310  51.668  1.00  0.00     0.156 HD
HETATM   16  H4  UNL     1      23.464   5.180  51.677  1.00  0.00     0.156 HD
ENDBRANCH   8  14
ENDBRANCH   1   7
BRANCH   3  17
HETATM   17  C7  UNL     1      27.448  -0.182  52.672  1.00  0.00    -0.023 A 
HETATM   18  C8  UNL     1      27.705  -1.529  52.777  1.00  0.00     0.012 A 
HETATM   19  C9  UNL     1      28.880  -1.999  53.322  1.00  0.00     0.001 A 
HETATM   20  C10 UNL     1      29.814  -1.124  53.767  1.00  0.00     0.000 A 
HETATM   21  C11 UNL     1      29.639   0.221  53.701  1.00  0.00     0.001 A 
HETATM   22  C12 UNL     1      28.442   0.693  53.146  1.00  0.00     0.012 A 
ENDBRANCH   3  17
BRANCH   5  23
HETATM   23  C15 UNL     1      22.569   0.752  52.437  1.00  0.00    -0.023 A 
HETATM   24  C16 UNL     1      21.835   0.594  51.265  1.00  0.00     0.012 A 
HETATM   25  C17 UNL     1      20.483   0.357  51.387  1.00  0.00     0.001 A 
HETATM   26  C18 UNL     1      19.841   0.273  52.600  1.00  0.00     0.000 A 
HETATM   27  C19 UNL     1      20.572   0.429  53.751  1.00  0.00     0.001 A 
HETATM   28  C20 UNL     1      21.924   0.665  53.648  1.00  0.00     0.012 A 
ENDBRANCH   5  23
BRANCH   4  29
HETATM   29  O2  UNL     1      24.730  -0.878  53.293  1.00  0.00    -0.359 OA
HETATM   30  H12 UNL     1      24.906  -0.870  54.305  1.00  0.00     0.217 HD
ENDBRANCH   4  29
TORSDOF 6
ENDMDL
MODEL 5
REMARK VINA RESULT:      -9.3      2.948      6.213
REMARK  6 active torsions:
REMARK  status: ('A' for Active; 'I' for Inactive)
REMARK       I    between atoms: N1_1  and  C1_2 
REMARK    1  A    between atoms: C1_2  and  C2_4 
REMARK    2  A    between atoms: C2_4  and  N2_5 
REMARK    3  A    between atoms: C3_6  and  C4_7 
REMARK    4  A    between atoms: C6_9  and  C7_10 
REMARK    5  A    between atoms: C13_16  and  O2_17 
REMARK    6  A    between atoms: C14_18  and  C15_19 
ROOT
HETATM    1  C4  UNL     1      23.883   0.857  53.001  1.00  0.00    -0.032 A 
HETATM    2  C5  UNL     1      25.139   0.374  53.341  1.00  0.00     0.026 A 
HETATM    3  C6  UNL     1      26.286   0.992  52.894  1.00  0.00     0.009 A 
HETATM    4  C13 UNL     1      26.168   2.129  52.086  1.00  0.00     0.087 A 
HETATM    5  C14 UNL     1      24.927   2.605  51.751  1.00  0.00     0.009 A 
HETATM    6  C21 UNL     1      23.786   1.977  52.202  1.00  0.00     0.026 A 
ENDROOT
BRANCH   1   7
HETATM    7  C3  UNL     1      22.742   0.149  53.542  1.00  0.00     0.046 C 
HETATM    8  C2  UNL     1      21.589  -0.247  53.072  1.00  0.00     0.095 C 
BRANCH   8   9
HETATM    9  C1  UNL     1      20.614  -0.957  53.877  1.00  0.00     0.265 C 
HETATM   10  N1  UNL     1      19.229  -0.884  53.759  1.00  0.00    -0.365 N 
HETATM   11  H1  UNL     1      18.904  -1.756  53.329  1.00  0.00     0.159 HD
HETATM   12  H2  UNL     1      18.390  -0.274  53.944  1.00  0.00     0.159 HD
HETATM   13  O1  UNL     1      21.069  -1.735  54.789  1.00  0.00    -0.266 OA
ENDBRANCH   8   9
BRANCH   8  14
HETATM   14  N2  UNL     1      21.179  -0.027  51.706  1.00  0.00    -0.395 N 
HETATM   15  H3  UNL     1      21.178   1.011  51.745  1.00  0.00     0.156 HD
HETATM   16  H4  UNL     1      20.962  -0.730  50.940  1.00  0.00     0.156 HD
ENDBRANCH   8  14
ENDBRANCH   1   7
BRANCH   3  17
HETATM   17  C7  UNL     1      27.639   0.541  53.178  1.00  0.00    -0.023 A 
HETATM   18  C8  UNL     1      28.839   1.118  53.522  1.00  0.00     0.012 A 
HETATM   19  C9  UNL     1      29.981   0.365  53.688  1.00  0.00     0.001 A 
HETATM   20  C10 UNL     1      29.934  -0.977  53.510  1.00  0.00     0.000 A 
HETATM   21  C11 UNL     1      28.791  -1.626  53.169  1.00  0.00     0.001 A 
HETATM   22  C12 UNL     1      27.633  -0.854  53.003  1.00  0.00     0.012 A 
ENDBRANCH   3  17
BRANCH   5  23
HETATM   23  C15 UNL     1      24.586   3.766  50.941  1.00  0.00    -0.023 A 
HETATM   24  C16 UNL     1      23.911   4.744  51.665  1.00  0.00     0.012 A 
HETATM   25  C17 UNL     1      23.536   5.889  50.995  1.00  0.00     0.001 A 
HETATM   26  C18 UNL     1      23.796   6.098  49.661  1.00  0.00     0.000 A 
HETATM   27  C19 UNL     1      24.461   5.128  48.953  1.00  0.00     0.001 A 
HETATM   28  C20 UNL     1      24.845   3.980  49.607  1.00  0.00     0.012 A 
ENDBRANCH   5  23
BRANCH   4  29
HETATM   29  O2  UNL     1      27.209   2.871  51.552  1.00  0.00    -0.359 OA
HETATM   30  H12 UNL     1      27.405   2.779  50.547  1.00  0.00     0.217 HD
ENDBRANCH   4  29
TORSDOF 6
ENDMDL
MODEL 6
REMARK VINA RESULT:      -8.6      3.459      5.972
REMARK  6 active torsions:
REMARK  status: ('A' for Active; 'I' for Inactive)
REMARK       I    between atoms: N1_1  and  C1_2 
REMARK    1  A    between atoms: C1_2  and  C2_4 
REMARK    2  A    between atoms: C2_4  and  N2_5 
REMARK    3  A    between atoms: C3_6  and  C4_7 
REMARK    4  A    between atoms: C6_9  and  C7_10 
REMARK    5  A    between atoms: C13_16  and  O2_17 
REMARK    6  A    between atoms: C14_18  and  C15_19 
ROOT
HETATM    1  C4  UNL     1      25.618   3.702  49.998  1.00  0.00    -0.032 A 
HETATM    2  C5  UNL     1      26.560   3.001  50.738  1.00  0.00     0.026 A 
HETATM    3  C6  UNL     1      26.187   1.974  51.578  1.00  0.00     0.009 A 
HETATM    4  C13 UNL     1      24.832   1.641  51.674  1.00  0.00     0.087 A 
HETATM    5  C14 UNL     1      23.903   2.334  50.943  1.00  0.00     0.009 A 
HETATM    6  C21 UNL     1      24.286   3.361  50.109  1.00  0.00     0.026 A 
ENDROOT
BRANCH   1   7
HETATM    7  C3  UNL     1      26.115   4.747  49.129  1.00  0.00     0.046 C 
HETATM    8  C2  UNL     1      26.290   6.037  49.236  1.00  0.00     0.095 C 
BRANCH   8   9
HETATM    9  C1  UNL     1      26.824   6.850  48.160  1.00  0.00     0.265 C 
HETATM   10  N1  UNL     1      26.171   7.888  47.501  1.00  0.00    -0.365 N 
HETATM   11  H1  UNL     1      26.580   8.771  47.823  1.00  0.00     0.159 HD
HETATM   12  H2  UNL     1      25.417   8.109  46.799  1.00  0.00     0.159 HD
HETATM   13  O1  UNL     1      28.019   6.593  47.775  1.00  0.00    -0.266 OA
ENDBRANCH   8   9
BRANCH   8  14
HETATM   14  N2  UNL     1      25.980   6.776  50.436  1.00  0.00    -0.395 N 
HETATM   15  H3  UNL     1      26.359   6.081  51.109  1.00  0.00     0.156 HD
HETATM   16  H4  UNL     1      25.516   7.724  50.550  1.00  0.00     0.156 HD
ENDBRANCH   8  14
ENDBRANCH   1   7
BRANCH   3  17
HETATM   17  C7  UNL     1      27.101   1.205  52.407  1.00  0.00    -0.023 A 
HETATM   18  C8  UNL     1      27.318  -0.122  52.700  1.00  0.00     0.012 A 
HETATM   19  C9  UNL     1      28.289  -0.514  53.596  1.00  0.00     0.001 A 
HETATM   20  C10 UNL     1      29.056   0.420  54.209  1.00  0.00     0.000 A 
HETATM   21  C11 UNL     1      28.906   1.750  53.978  1.00  0.00     0.001 A 
HETATM   22  C12 UNL     1      27.917   2.142  53.066  1.00  0.00     0.012 A 
ENDBRANCH   3  17
BRANCH   5  23
HETATM   23  C15 UNL     1      22.460   2.142  50.890  1.00  0.00    -0.023 A 
HETATM   24  C16 UNL     1      22.067   1.333  49.828  1.00  0.00     0.012 A 
HETATM   25  C17 UNL     1      20.719   1.086  49.678  1.00  0.00     0.001 A 
HETATM   26  C18 UNL     1      19.763   1.601  50.522  1.00  0.00     0.000 A 
HETATM   27  C19 UNL     1      20.158   2.399  51.567  1.00  0.00     0.001 A 
HETATM   28  C20 UNL     1      21.501   2.654  51.732  1.00  0.00     0.012 A 
ENDBRANCH   5  23
BRANCH   4  29
HETATM   29  O2  UNL     1      24.284   0.642  52.464  1.00  0.00    -0.359 OA
HETATM   30  H12 UNL     1      24.848  -0.197  52.646  1.00  0.00     0.217 HD
ENDBRANCH   4  29
TORSDOF 6
ENDMDL
MODEL 7
REMARK VINA RESULT:      -8.6      3.776      5.942
REMARK  6 active torsions:
REMARK  status: ('A' for Active; 'I' for Inactive)
REMARK       I    between atoms: N1_1  and  C1_2 
REMARK    1  A    between atoms: C1_2  and  C2_4 
REMARK    2  A    between atoms: C2_4  and  N2_5 
REMARK    3  A    between atoms: C3_6  and  C4_7 
REMARK    4  A    between atoms: C6_9  and  C7_10 
REMARK    5  A    between atoms: C13_16  and  O2_17 
REMARK    6  A    between atoms: C14_18  and  C15_19 
ROOT
HETATM    1  C4  UNL     1      23.556   2.732  49.967  1.00  0.00    -0.032 A 
HETATM    2  C5  UNL     1      24.299   3.740  49.369  1.00  0.00     0.026 A 
HETATM    3  C6  UNL     1      25.610   3.967  49.724  1.00  0.00     0.009 A 
HETATM    4  C13 UNL     1      26.192   3.157  50.705  1.00  0.00     0.087 A 
HETATM    5  C14 UNL     1      25.458   2.161  51.295  1.00  0.00     0.009 A 
HETATM    6  C21 UNL     1      24.146   1.945  50.934  1.00  0.00     0.026 A 
ENDROOT
BRANCH   1   7
HETATM    7  C3  UNL     1      22.195   2.560  49.505  1.00  0.00     0.046 C 
HETATM    8  C2  UNL     1      21.020   2.953  49.918  1.00  0.00     0.095 C 
BRANCH   8   9
HETATM    9  C1  UNL     1      19.790   2.615  49.228  1.00  0.00     0.265 C 
HETATM   10  N1  UNL     1      19.097   1.411  49.310  1.00  0.00    -0.365 N 
HETATM   11  H1  UNL     1      18.256   1.571  49.874  1.00  0.00     0.159 HD
HETATM   12  H2  UNL     1      19.108   0.400  49.013  1.00  0.00     0.159 HD
HETATM   13  O1  UNL     1      19.285   3.513  48.465  1.00  0.00    -0.266 OA
ENDBRANCH   8   9
BRANCH   8  14
HETATM   14  N2  UNL     1      20.832   3.771  51.093  1.00  0.00    -0.395 N 
HETATM   15  H3  UNL     1      21.238   3.100  51.774  1.00  0.00     0.156 HD
HETATM   16  H4  UNL     1      20.411   4.741  51.184  1.00  0.00     0.156 HD
ENDBRANCH   8  14
ENDBRANCH   1   7
BRANCH   3  17
HETATM   17  C7  UNL     1      26.453   5.015  49.170  1.00  0.00    -0.023 A 
HETATM   18  C8  UNL     1      27.662   5.092  48.519  1.00  0.00     0.012 A 
HETATM   19  C9  UNL     1      28.207   6.303  48.150  1.00  0.00     0.001 A 
HETATM   20  C10 UNL     1      27.546   7.453  48.431  1.00  0.00     0.000 A 
HETATM   21  C11 UNL     1      26.348   7.465  49.072  1.00  0.00     0.001 A 
HETATM   22  C12 UNL     1      25.800   6.230  49.443  1.00  0.00     0.012 A 
ENDBRANCH   3  17
BRANCH   5  23
HETATM   23  C15 UNL     1      25.871   1.209  52.317  1.00  0.00    -0.023 A 
HETATM   24  C16 UNL     1      25.700   1.701  53.607  1.00  0.00     0.012 A 
HETATM   25  C17 UNL     1      26.063   0.884  54.656  1.00  0.00     0.001 A 
HETATM   26  C18 UNL     1      26.581  -0.378  54.480  1.00  0.00     0.000 A 
HETATM   27  C19 UNL     1      26.747  -0.857  53.205  1.00  0.00     0.001 A 
HETATM   28  C20 UNL     1      26.388  -0.054  52.146  1.00  0.00     0.012 A 
ENDBRANCH   5  23
BRANCH   4  29
HETATM   29  O2  UNL     1      27.491   3.244  51.182  1.00  0.00    -0.359 OA
HETATM   30  H12 UNL     1      27.629   3.438  52.181  1.00  0.00     0.217 HD
ENDBRANCH   4  29
TORSDOF 6
ENDMDL
MODEL 8
REMARK VINA RESULT:      -8.5      3.140      6.652
REMARK  6 active torsions:
REMARK  status: ('A' for Active; 'I' for Inactive)
REMARK       I    between atoms: N1_1  and  C1_2 
REMARK    1  A    between atoms: C1_2  and  C2_4 
REMARK    2  A    between atoms: C2_4  and  N2_5 
REMARK    3  A    between atoms: C3_6  and  C4_7 
REMARK    4  A    between atoms: C6_9  and  C7_10 
REMARK    5  A    between atoms: C13_16  and  O2_17 
REMARK    6  A    between atoms: C14_18  and  C15_19 
ROOT
HETATM    1  C4  UNL     1      22.233   1.071  52.025  1.00  0.00    -0.032 A 
HETATM    2  C5  UNL     1      23.380   0.429  52.470  1.00  0.00     0.026 A 
HETATM    3  C6  UNL     1      24.616   1.030  52.380  1.00  0.00     0.009 A 
HETATM    4  C13 UNL     1      24.702   2.314  51.829  1.00  0.00     0.087 A 
HETATM    5  C14 UNL     1      23.568   2.948  51.390  1.00  0.00     0.009 A 
HETATM    6  C21 UNL     1      22.338   2.335  51.483  1.00  0.00     0.026 A 
ENDROOT
BRANCH   1   7
HETATM    7  C3  UNL     1      20.981   0.362  52.187  1.00  0.00     0.046 C 
HETATM    8  C2  UNL     1      20.250  -0.006  53.205  1.00  0.00     0.095 C 
BRANCH   8   9
HETATM    9  C1  UNL     1      19.002  -0.729  53.055  1.00  0.00     0.265 C 
HETATM   10  N1  UNL     1      18.409  -1.564  53.998  1.00  0.00    -0.365 N 
HETATM   11  H1  UNL     1      17.602  -1.069  54.391  1.00  0.00     0.159 HD
HETATM   12  H2  UNL     1      18.475  -2.509  54.459  1.00  0.00     0.159 HD
HETATM   13  O1  UNL     1      18.377  -0.588  51.945  1.00  0.00    -0.266 OA
ENDBRANCH   8   9
BRANCH   8  14
HETATM   14  N2  UNL     1      20.605   0.282  54.574  1.00  0.00    -0.395 N 
HETATM   15  H3  UNL     1      20.706  -0.705  54.883  1.00  0.00     0.156 HD
HETATM   16  H4  UNL     1      20.719   1.217  55.064  1.00  0.00     0.156 HD
ENDBRANCH   8  14
ENDBRANCH   1   7
BRANCH   3  17
HETATM   17  C7  UNL     1      25.869   0.422  52.796  1.00  0.00    -0.023 A 
HETATM   18  C8  UNL     1      26.821  -0.401  52.239  1.00  0.00     0.012 A 
HETATM   19  C9  UNL     1      27.913  -0.831  52.960  1.00  0.00     0.001 A 
HETATM   20  C10 UNL     1      28.067  -0.442  54.249  1.00  0.00     0.000 A 
HETATM   21  C11 UNL     1      27.173   0.367  54.875  1.00  0.00     0.001 A 
HETATM   22  C12 UNL     1      26.064   0.802  54.136  1.00  0.00     0.012 A 
ENDBRANCH   3  17
BRANCH   5  23
HETATM   23  C15 UNL     1      23.438   4.274  50.803  1.00  0.00    -0.023 A 
HETATM   24  C16 UNL     1      23.496   4.252  49.413  1.00  0.00     0.012 A 
HETATM   25  C17 UNL     1      23.387   5.455  48.750  1.00  0.00     0.001 A 
HETATM   26  C18 UNL     1      23.226   6.657  49.397  1.00  0.00     0.000 A 
HETATM   27  C19 UNL     1      23.169   6.672  50.769  1.00  0.00     0.001 A 
HETATM   28  C20 UNL     1      23.275   5.478  51.446  1.00  0.00     0.012 A 
ENDBRANCH   5  23
BRANCH   4  29
HETATM   29  O2  UNL     1      25.856   3.063  51.663  1.00  0.00    -0.359 OA
HETATM   30  H12 UNL     1      26.397   3.313  52.500  1.00  0.00     0.217 HD
ENDBRANCH   4  29
TORSDOF 6
ENDMDL
MODEL 9
REMARK VINA RESULT:      -8.3      3.972      6.219
REMARK  6 active torsions:
REMARK  status: ('A' for Active; 'I' for Inactive)
REMARK       I    between atoms: N1_1  and  C1_2 
REMARK    1  A    between atoms: C1_2  and  C2_4 
REMARK    2  A    between atoms: C2_4  and  N2_5 
REMARK    3  A    between atoms: C3_6  and  C4_7 
REMARK    4  A    between atoms: C6_9  and  C7_10 
REMARK    5  A    between atoms: C13_16  and  O2_17 
REMARK    6  A    between atoms: C14_18  and  C15_19 
ROOT
HETATM    1  C4  UNL     1      26.228   3.846  49.504  1.00  0.00    -0.032 A 
HETATM    2  C5  UNL     1      26.646   3.081  50.584  1.00  0.00     0.026 A 
HETATM    3  C6  UNL     1      25.758   2.307  51.298  1.00  0.00     0.009 A 
HETATM    4  C13 UNL     1      24.412   2.300  50.915  1.00  0.00     0.087 A 
HETATM    5  C14 UNL     1      24.000   3.055  49.848  1.00  0.00     0.009 A 
HETATM    6  C21 UNL     1      24.897   3.828  49.142  1.00  0.00     0.026 A 
ENDROOT
BRANCH   1   7
HETATM    7  C3  UNL     1      27.244   4.605  48.806  1.00  0.00     0.046 C 
HETATM    8  C2  UNL     1      27.585   5.864  48.750  1.00  0.00     0.095 C 
BRANCH   8   9
HETATM    9  C1  UNL     1      28.683   6.346  47.935  1.00  0.00     0.265 C 
HETATM   10  N1  UNL     1      29.985   5.854  47.921  1.00  0.00    -0.365 N 
HETATM   11  H1  UNL     1      30.111   5.323  47.053  1.00  0.00     0.159 HD
HETATM   12  H2  UNL     1      30.888   5.819  48.464  1.00  0.00     0.159 HD
HETATM   13  O1  UNL     1      28.435   7.323  47.143  1.00  0.00    -0.266 OA
ENDBRANCH   8   9
BRANCH   8  14
HETATM   14  N2  UNL     1      26.911   6.896  49.502  1.00  0.00    -0.395 N 
HETATM   15  H3  UNL     1      27.194   7.692  48.898  1.00  0.00     0.156 HD
HETATM   16  H4  UNL     1      26.324   6.820  50.383  1.00  0.00     0.156 HD
ENDBRANCH   8  14
ENDBRANCH   1   7
BRANCH   3  17
HETATM   17  C7  UNL     1      26.104   1.498  52.455  1.00  0.00    -0.023 A 
HETATM   18  C8  UNL     1      26.089   1.643  53.823  1.00  0.00     0.012 A 
HETATM   19  C9  UNL     1      26.539   0.644  54.659  1.00  0.00     0.001 A 
HETATM   20  C10 UNL     1      27.009  -0.514  54.134  1.00  0.00     0.000 A 
HETATM   21  C11 UNL     1      27.059  -0.737  52.795  1.00  0.00     0.001 A 
HETATM   22  C12 UNL     1      26.600   0.282  51.951  1.00  0.00     0.012 A 
ENDBRANCH   3  17
BRANCH   5  23
HETATM   23  C15 UNL     1      22.663   3.179  49.283  1.00  0.00    -0.023 A 
HETATM   24  C16 UNL     1      21.976   4.286  49.772  1.00  0.00     0.012 A 
HETATM   25  C17 UNL     1      20.696   4.500  49.308  1.00  0.00     0.001 A 
HETATM   26  C18 UNL     1      20.080   3.674  48.397  1.00  0.00     0.000 A 
HETATM   27  C19 UNL     1      20.763   2.584  47.919  1.00  0.00     0.001 A 
HETATM   28  C20 UNL     1      22.043   2.357  48.372  1.00  0.00     0.012 A 
ENDBRANCH   5  23
BRANCH   4  29
HETATM   29  O2  UNL     1      23.389   1.584  51.516  1.00  0.00    -0.359 OA
HETATM   30  H12 UNL     1      22.762   1.036  50.914  1.00  0.00     0.217 HD
ENDBRANCH   4  29
TORSDOF 6
ENDMDL
