MODEL 1
REMARK VINA RESULT:      -8.5      0.000      0.000
REMARK  0 active torsions:
REMARK  status: ('A' for Active; 'I' for Inactive)
ROOT
HETATM    1  O1  UNL     1      23.619   0.320  52.438  1.00  0.00    -0.346 OA
HETATM    2  C1  UNL     1      23.235  -0.324  53.448  1.00  0.00     0.221 A 
HETATM    3  C2  UNL     1      22.042   0.120  52.779  1.00  0.00     0.246 A 
HETATM    4  C3  UNL     1      22.136   0.913  51.558  1.00  0.00    -0.024 A 
HETATM    5  C4  UNL     1      21.454   0.409  50.466  1.00  0.00     0.012 A 
HETATM    6  C5  UNL     1      21.350   0.951  49.199  1.00  0.00     0.024 A 
HETATM    7  C6  UNL     1      22.011   2.150  48.991  1.00  0.00     0.034 A 
HETATM    8 CL1  UNL     1      21.883   2.843  47.391  1.00  0.00    -0.084 Cl
HETATM    9  C7  UNL     1      22.714   2.687  50.088  1.00  0.00     0.033 A 
HETATM   10  C8  UNL     1      22.796   2.103  51.361  1.00  0.00    -0.030 A 
HETATM   11  C9  UNL     1      23.653   3.038  52.140  1.00  0.00     0.114 C 
HETATM   12 BR1  UNL     1      22.846   4.810  52.297  1.00  0.00    -0.082 Br
HETATM   13  C10 UNL     1      24.963   3.199  51.408  1.00  0.00    -0.006 C 
HETATM   14  C11 UNL     1      26.170   2.658  51.276  1.00  0.00    -0.002 C 
HETATM   15  C12 UNL     1      27.036   1.555  51.745  1.00  0.00     0.013 C 
HETATM   16  C13 UNL     1      27.091   0.485  52.563  1.00  0.00     0.131 C 
HETATM   17  S1  UNL     1      26.303  -0.529  53.728  1.00  0.00     0.251 S 
HETATM   18  O2  UNL     1      26.780  -1.967  53.500  1.00  0.00    -0.201 OA
HETATM   19  O3  UNL     1      26.784  -0.205  55.129  1.00  0.00    -0.201 OA
HETATM   20  N1  UNL     1      24.613  -0.437  53.607  1.00  0.00    -0.276 N 
HETATM   21  H11 UNL     1      24.229  -0.991  54.438  1.00  0.00     0.175 HD
ENDROOT
TORSDOF 0
ENDMDL
MODEL 2
REMARK VINA RESULT:      -7.7      3.970      6.052
REMARK  0 active torsions:
REMARK  status: ('A' for Active; 'I' for Inactive)
ROOT
HETATM    1  O1  UNL     1      23.066   3.260  51.908  1.00  0.00    -0.346 OA
HETATM    2  C1  UNL     1      22.864   4.443  52.283  1.00  0.00     0.221 A 
HETATM    3  C2  UNL     1      23.792   3.879  53.226  1.00  0.00     0.246 A 
HETATM    4  C3  UNL     1      24.236   2.497  53.082  1.00  0.00    -0.024 A 
HETATM    5  C4  UNL     1      25.604   2.313  53.025  1.00  0.00     0.012 A 
HETATM    6  C5  UNL     1      26.304   1.125  52.913  1.00  0.00     0.024 A 
HETATM    7  C6  UNL     1      25.541  -0.028  52.849  1.00  0.00     0.034 A 
HETATM    8 CL1  UNL     1      26.418  -1.535  52.708  1.00  0.00    -0.084 Cl
HETATM    9  C7  UNL     1      24.142   0.130  52.905  1.00  0.00     0.033 A 
HETATM   10  C8  UNL     1      23.471   1.357  53.018  1.00  0.00    -0.030 A 
HETATM   11  C9  UNL     1      22.028   0.987  53.020  1.00  0.00     0.114 C 
HETATM   12 BR1  UNL     1      21.565  -0.143  54.545  1.00  0.00    -0.082 Br
HETATM   13  C10 UNL     1      21.741   0.197  51.767  1.00  0.00    -0.006 C 
HETATM   14  C11 UNL     1      21.409   0.334  50.487  1.00  0.00    -0.002 C 
HETATM   15  C12 UNL     1      21.100   1.332  49.440  1.00  0.00     0.013 C 
HETATM   16  C13 UNL     1      20.981   2.652  49.193  1.00  0.00     0.131 C 
HETATM   17  S1  UNL     1      21.061   4.280  49.782  1.00  0.00     0.251 S 
HETATM   18  O2  UNL     1      21.606   5.163  48.654  1.00  0.00    -0.201 OA
HETATM   19  O3  UNL     1      19.668   4.826  50.029  1.00  0.00    -0.201 OA
HETATM   20  N1  UNL     1      22.041   4.407  51.161  1.00  0.00    -0.276 N 
HETATM   21  H11 UNL     1      21.922   5.410  51.514  1.00  0.00     0.175 HD
ENDROOT
TORSDOF 0
ENDMDL
MODEL 3
REMARK VINA RESULT:      -7.2      2.740      4.287
REMARK  0 active torsions:
REMARK  status: ('A' for Active; 'I' for Inactive)
ROOT
HETATM    1  O1  UNL     1      25.577   3.117  50.814  1.00  0.00    -0.346 OA
HETATM    2  C1  UNL     1      26.754   2.863  50.453  1.00  0.00     0.221 A 
HETATM    3  C2  UNL     1      26.345   4.016  49.697  1.00  0.00     0.246 A 
HETATM    4  C3  UNL     1      25.008   4.573  49.873  1.00  0.00    -0.024 A 
HETATM    5  C4  UNL     1      24.959   5.914  50.200  1.00  0.00     0.012 A 
HETATM    6  C5  UNL     1      23.844   6.705  50.406  1.00  0.00     0.024 A 
HETATM    7  C6  UNL     1      22.617   6.077  50.269  1.00  0.00     0.034 A 
HETATM    8 CL1  UNL     1      21.201   7.070  50.526  1.00  0.00    -0.084 Cl
HETATM    9  C7  UNL     1      22.637   4.708  49.936  1.00  0.00     0.033 A 
HETATM   10  C8  UNL     1      23.795   3.941  49.736  1.00  0.00    -0.030 A 
HETATM   11  C9  UNL     1      23.282   2.577  49.426  1.00  0.00     0.114 C 
HETATM   12 BR1  UNL     1      22.206   2.553  47.796  1.00  0.00    -0.082 Br
HETATM   13  C10 UNL     1      22.393   2.137  50.564  1.00  0.00    -0.006 C 
HETATM   14  C11 UNL     1      22.418   1.546  51.754  1.00  0.00    -0.002 C 
HETATM   15  C12 UNL     1      23.314   0.927  52.754  1.00  0.00     0.013 C 
HETATM   16  C13 UNL     1      24.598   0.615  53.023  1.00  0.00     0.131 C 
HETATM   17  S1  UNL     1      26.260   0.630  52.526  1.00  0.00     0.251 S 
HETATM   18  O2  UNL     1      27.123   0.840  53.775  1.00  0.00    -0.201 OA
HETATM   19  O3  UNL     1      26.677  -0.738  52.023  1.00  0.00    -0.201 OA
HETATM   20  N1  UNL     1      26.568   1.843  51.381  1.00  0.00    -0.276 N 
HETATM   21  H11 UNL     1      27.573   1.686  51.051  1.00  0.00     0.175 HD
ENDROOT
TORSDOF 0
ENDMDL
MODEL 4
REMARK VINA RESULT:      -7.2      3.810      5.466
REMARK  0 active torsions:
REMARK  status: ('A' for Active; 'I' for Inactive)
ROOT
HETATM    1  O1  UNL     1      25.916   4.048  50.437  1.00  0.00    -0.346 OA
HETATM    2  C1  UNL     1      26.588   2.994  50.298  1.00  0.00     0.221 A 
HETATM    3  C2  UNL     1      26.871   3.803  49.143  1.00  0.00     0.246 A 
HETATM    4  C3  UNL     1      26.237   5.108  48.987  1.00  0.00    -0.024 A 
HETATM    5  C4  UNL     1      27.099   6.171  48.801  1.00  0.00     0.012 A 
HETATM    6  C5  UNL     1      26.784   7.504  48.607  1.00  0.00     0.024 A 
HETATM    7  C6  UNL     1      25.435   7.817  48.598  1.00  0.00     0.034 A 
HETATM    8 CL1  UNL     1      25.028   9.500  48.352  1.00  0.00    -0.084 Cl
HETATM    9  C7  UNL     1      24.533   6.751  48.785  1.00  0.00     0.033 A 
HETATM   10  C8  UNL     1      24.895   5.410  48.980  1.00  0.00    -0.030 A 
HETATM   11  C9  UNL     1      23.597   4.698  49.141  1.00  0.00     0.114 C 
HETATM   12 BR1  UNL     1      22.484   4.838  47.542  1.00  0.00    -0.082 Br
HETATM   13  C10 UNL     1      22.842   5.345  50.277  1.00  0.00    -0.006 C 
HETATM   14  C11 UNL     1      22.694   5.314  51.598  1.00  0.00    -0.002 C 
HETATM   15  C12 UNL     1      23.158   4.640  52.829  1.00  0.00     0.013 C 
HETATM   16  C13 UNL     1      23.983   3.685  53.305  1.00  0.00     0.131 C 
HETATM   17  S1  UNL     1      25.167   2.459  52.986  1.00  0.00     0.251 S 
HETATM   18  O2  UNL     1      26.169   2.459  54.146  1.00  0.00    -0.201 OA
HETATM   19  O3  UNL     1      24.538   1.082  53.051  1.00  0.00    -0.201 OA
HETATM   20  N1  UNL     1      25.966   2.719  51.512  1.00  0.00    -0.276 N 
HETATM   21  H11 UNL     1      26.573   1.853  51.352  1.00  0.00     0.175 HD
ENDROOT
TORSDOF 0
ENDMDL
MODEL 5
REMARK VINA RESULT:      -7.1      4.342      5.666
REMARK  0 active torsions:
REMARK  status: ('A' for Active; 'I' for Inactive)
ROOT
HETATM    1  O1  UNL     1      22.111   2.639  49.851  1.00  0.00    -0.346 OA
HETATM    2  C1  UNL     1      22.089   2.501  48.601  1.00  0.00     0.221 A 
HETATM    3  C2  UNL     1      21.880   1.189  49.152  1.00  0.00     0.246 A 
HETATM    4  C3  UNL     1      21.858   0.994  50.597  1.00  0.00    -0.024 A 
HETATM    5  C4  UNL     1      20.727   0.379  51.099  1.00  0.00     0.012 A 
HETATM    6  C5  UNL     1      20.443   0.051  52.411  1.00  0.00     0.024 A 
HETATM    7  C6  UNL     1      21.411   0.378  53.346  1.00  0.00     0.034 A 
HETATM    8 CL1  UNL     1      21.060  -0.034  55.009  1.00  0.00    -0.084 Cl
HETATM    9  C7  UNL     1      22.575   1.007  52.862  1.00  0.00     0.033 A 
HETATM   10  C8  UNL     1      22.824   1.324  51.518  1.00  0.00    -0.030 A 
HETATM   11  C9  UNL     1      24.161   1.980  51.537  1.00  0.00     0.114 C 
HETATM   12 BR1  UNL     1      25.557   0.775  52.182  1.00  0.00    -0.082 Br
HETATM   13  C10 UNL     1      24.099   3.152  52.486  1.00  0.00    -0.006 C 
HETATM   14  C11 UNL     1      23.784   4.442  52.549  1.00  0.00    -0.002 C 
HETATM   15  C12 UNL     1      23.291   5.585  51.751  1.00  0.00     0.013 C 
HETATM   16  C13 UNL     1      22.887   5.963  50.521  1.00  0.00     0.131 C 
HETATM   17  S1  UNL     1      22.584   5.537  48.868  1.00  0.00     0.251 S 
HETATM   18  O2  UNL     1      21.365   6.335  48.392  1.00  0.00    -0.201 OA
HETATM   19  O3  UNL     1      23.708   6.026  47.977  1.00  0.00    -0.201 OA
HETATM   20  N1  UNL     1      22.312   3.872  48.682  1.00  0.00    -0.276 N 
HETATM   21  H11 UNL     1      22.263   3.700  47.628  1.00  0.00     0.175 HD
ENDROOT
TORSDOF 0
ENDMDL
MODEL 6
REMARK VINA RESULT:      -6.8      2.086      2.534
REMARK  0 active torsions:
REMARK  status: ('A' for Active; 'I' for Inactive)
ROOT
HETATM    1  O1  UNL     1      23.114   2.577  51.241  1.00  0.00    -0.346 OA
HETATM    2  C1  UNL     1      22.604   2.378  52.373  1.00  0.00     0.221 A 
HETATM    3  C2  UNL     1      21.527   2.797  51.518  1.00  0.00     0.246 A 
HETATM    4  C3  UNL     1      21.783   3.120  50.118  1.00  0.00    -0.024 A 
HETATM    5  C4  UNL     1      21.020   2.428  49.197  1.00  0.00     0.012 A 
HETATM    6  C5  UNL     1      21.032   2.540  47.819  1.00  0.00     0.024 A 
HETATM    7  C6  UNL     1      21.919   3.462  47.290  1.00  0.00     0.034 A 
HETATM    8 CL1  UNL     1      21.940   3.612  45.548  1.00  0.00    -0.084 Cl
HETATM    9  C7  UNL     1      22.711   4.182  48.206  1.00  0.00     0.033 A 
HETATM   10  C8  UNL     1      22.668   4.037  49.601  1.00  0.00    -0.030 A 
HETATM   11  C9  UNL     1      23.691   4.996  50.102  1.00  0.00     0.114 C 
HETATM   12 BR1  UNL     1      23.253   6.842  49.636  1.00  0.00    -0.082 Br
HETATM   13  C10 UNL     1      25.010   4.664  49.449  1.00  0.00    -0.006 C 
HETATM   14  C11 UNL     1      26.086   3.893  49.578  1.00  0.00    -0.002 C 
HETATM   15  C12 UNL     1      26.712   2.859  50.430  1.00  0.00     0.013 C 
HETATM   16  C13 UNL     1      26.549   2.121  51.546  1.00  0.00     0.131 C 
HETATM   17  S1  UNL     1      25.569   1.705  52.914  1.00  0.00     0.251 S 
HETATM   18  O2  UNL     1      25.750   0.207  53.185  1.00  0.00    -0.201 OA
HETATM   19  O3  UNL     1      26.098   2.368  54.170  1.00  0.00    -0.201 OA
HETATM   20  N1  UNL     1      23.931   2.066  52.654  1.00  0.00    -0.276 N 
HETATM   21  H11 UNL     1      23.441   1.894  53.589  1.00  0.00     0.175 HD
ENDROOT
TORSDOF 0
ENDMDL
MODEL 7
REMARK VINA RESULT:      -6.7      9.492     10.638
REMARK  0 active torsions:
REMARK  status: ('A' for Active; 'I' for Inactive)
ROOT
HETATM    1  O1  UNL     1      31.697   5.823  47.969  1.00  0.00    -0.346 OA
HETATM    2  C1  UNL     1      32.096   5.648  49.149  1.00  0.00     0.221 A 
HETATM    3  C2  UNL     1      31.172   6.749  49.199  1.00  0.00     0.246 A 
HETATM    4  C3  UNL     1      30.524   7.220  47.979  1.00  0.00    -0.024 A 
HETATM    5  C4  UNL     1      29.143   7.258  48.014  1.00  0.00     0.012 A 
HETATM    6  C5  UNL     1      28.274   7.674  47.023  1.00  0.00     0.024 A 
HETATM    7  C6  UNL     1      28.855   8.109  45.844  1.00  0.00     0.034 A 
HETATM    8 CL1  UNL     1      27.763   8.639  44.586  1.00  0.00    -0.084 Cl
HETATM    9  C7  UNL     1      30.263   8.081  45.781  1.00  0.00     0.033 A 
HETATM   10  C8  UNL     1      31.110   7.649  46.812  1.00  0.00    -0.030 A 
HETATM   11  C9  UNL     1      32.481   7.799  46.249  1.00  0.00     0.114 C 
HETATM   12 BR1  UNL     1      32.893   9.658  45.815  1.00  0.00    -0.082 Br
HETATM   13  C10 UNL     1      32.553   7.007  44.966  1.00  0.00    -0.006 C 
HETATM   14  C11 UNL     1      32.801   5.791  44.490  1.00  0.00    -0.002 C 
HETATM   15  C12 UNL     1      33.169   4.414  44.882  1.00  0.00     0.013 C 
HETATM   16  C13 UNL     1      33.457   3.620  45.933  1.00  0.00     0.131 C 
HETATM   17  S1  UNL     1      33.658   3.449  47.647  1.00  0.00     0.251 S 
HETATM   18  O2  UNL     1      33.160   2.055  48.043  1.00  0.00    -0.201 OA
HETATM   19  O3  UNL     1      35.130   3.425  48.011  1.00  0.00    -0.201 OA
HETATM   20  N1  UNL     1      32.816   4.645  48.506  1.00  0.00    -0.276 N 
HETATM   21  H11 UNL     1      33.105   4.529  49.529  1.00  0.00     0.175 HD
ENDROOT
TORSDOF 0
ENDMDL
MODEL 8
REMARK VINA RESULT:      -6.6      2.911      4.563
REMARK  0 active torsions:
REMARK  status: ('A' for Active; 'I' for Inactive)
ROOT
HETATM    1  O1  UNL     1      22.814   1.772  52.532  1.00  0.00    -0.346 OA
HETATM    2  C1  UNL     1      23.864   1.249  52.986  1.00  0.00     0.221 A 
HETATM    3  C2  UNL     1      24.278   2.445  52.302  1.00  0.00     0.246 A 
HETATM    4  C3  UNL     1      23.290   3.294  51.645  1.00  0.00    -0.024 A 
HETATM    5  C4  UNL     1      23.291   4.620  52.033  1.00  0.00     0.012 A 
HETATM    6  C5  UNL     1      22.489   5.647  51.571  1.00  0.00     0.024 A 
HETATM    7  C6  UNL     1      21.567   5.309  50.595  1.00  0.00     0.034 A 
HETATM    8 CL1  UNL     1      20.549   6.603  50.004  1.00  0.00    -0.084 Cl
HETATM    9  C7  UNL     1      21.544   3.963  50.180  1.00  0.00     0.033 A 
HETATM   10  C8  UNL     1      22.376   2.949  50.677  1.00  0.00    -0.030 A 
HETATM   11  C9  UNL     1      21.951   1.728  49.937  1.00  0.00     0.114 C 
HETATM   12 BR1  UNL     1      22.232   1.905  48.012  1.00  0.00    -0.082 Br
HETATM   13  C10 UNL     1      20.472   1.531  50.163  1.00  0.00    -0.006 C 
HETATM   14  C11 UNL     1      19.597   0.981  50.999  1.00  0.00    -0.002 C 
HETATM   15  C12 UNL     1      19.478   0.202  52.251  1.00  0.00     0.013 C 
HETATM   16  C13 UNL     1      20.180  -0.385  53.241  1.00  0.00     0.131 C 
HETATM   17  S1  UNL     1      21.722  -0.759  53.940  1.00  0.00     0.251 S 
HETATM   18  O2  UNL     1      21.570  -0.717  55.465  1.00  0.00    -0.201 OA
HETATM   19  O3  UNL     1      22.101  -2.199  53.653  1.00  0.00    -0.201 OA
HETATM   20  N1  UNL     1      22.926   0.323  53.433  1.00  0.00    -0.276 N 
HETATM   21  H11 UNL     1      23.848  -0.066  53.813  1.00  0.00     0.175 HD
ENDROOT
TORSDOF 0
ENDMDL
MODEL 9
REMARK VINA RESULT:      -6.4      5.219      6.720
REMARK  0 active torsions:
REMARK  status: ('A' for Active; 'I' for Inactive)
ROOT
HETATM    1  O1  UNL     1      22.156   4.213  48.465  1.00  0.00    -0.346 OA
HETATM    2  C1  UNL     1      21.873   4.250  47.240  1.00  0.00     0.221 A 
HETATM    3  C2  UNL     1      22.213   2.883  47.530  1.00  0.00     0.246 A 
HETATM    4  C3  UNL     1      22.604   2.495  48.881  1.00  0.00    -0.024 A 
HETATM    5  C4  UNL     1      21.871   1.466  49.441  1.00  0.00     0.012 A 
HETATM    6  C5  UNL     1      22.028   0.882  50.684  1.00  0.00     0.024 A 
HETATM    7  C6  UNL     1      23.047   1.389  51.473  1.00  0.00     0.034 A 
HETATM    8 CL1  UNL     1      23.254   0.655  53.047  1.00  0.00    -0.084 Cl
HETATM    9  C7  UNL     1      23.811   2.440  50.927  1.00  0.00     0.033 A 
HETATM   10  C8  UNL     1      23.617   3.006  49.657  1.00  0.00    -0.030 A 
HETATM   11  C9  UNL     1      24.654   4.071  49.568  1.00  0.00     0.114 C 
HETATM   12 BR1  UNL     1      26.463   3.341  49.677  1.00  0.00    -0.082 Br
HETATM   13  C10 UNL     1      24.472   5.007  50.737  1.00  0.00    -0.006 C 
HETATM   14  C11 UNL     1      23.805   6.089  51.128  1.00  0.00    -0.002 C 
HETATM   15  C12 UNL     1      22.809   7.092  50.693  1.00  0.00     0.013 C 
HETATM   16  C13 UNL     1      22.023   7.474  49.666  1.00  0.00     0.131 C 
HETATM   17  S1  UNL     1      21.471   7.203  48.045  1.00  0.00     0.251 S 
HETATM   18  O2  UNL     1      19.990   7.593  47.981  1.00  0.00    -0.201 OA
HETATM   19  O3  UNL     1      22.141   8.167  47.086  1.00  0.00    -0.201 OA
HETATM   20  N1  UNL     1      21.681   5.589  47.566  1.00  0.00    -0.276 N 
HETATM   21  H11 UNL     1      21.432   5.558  46.527  1.00  0.00     0.175 HD
ENDROOT
TORSDOF 0
ENDMDL
