MODEL 1
REMARK VINA RESULT:      -7.9      0.000      0.000
REMARK  5 active torsions:
REMARK  status: ('A' for Active; 'I' for Inactive)
REMARK    1  A    between atoms: N1_1  and  C1_2 
REMARK    2  A    between atoms: C4_8  and  P1_9 
REMARK    3  A    between atoms: P1_9  and  C5_10 
REMARK    4  A    between atoms: C12_17  and  C13_18 
REMARK    5  A    between atoms: C13_18  and  N5_19 
ROOT
HETATM    1  C1  UNL     1      20.963  -0.020  52.740  1.00  0.00     0.053 A 
HETATM    2  C2  UNL     1      20.932  -0.759  53.880  1.00  0.00     0.148 A 
HETATM    3  N2  UNL     1      22.177  -0.889  54.352  1.00  0.00    -0.239 N 
HETATM    4  N3  UNL     1      22.616  -1.520  55.420  1.00  0.00    -0.161 NA
HETATM    5  C3  UNL     1      23.924  -1.508  55.677  1.00  0.00     0.256 A 
HETATM    6  N4  UNL     1      24.791  -0.864  54.863  1.00  0.00    -0.237 NA
HETATM    7  C4  UNL     1      24.306  -0.234  53.786  1.00  0.00     0.092 A 
HETATM    8  C11 UNL     1      22.982  -0.229  53.501  1.00  0.00     0.097 A 
HETATM    9  C12 UNL     1      22.289   0.346  52.459  1.00  0.00     0.018 A 
ENDROOT
BRANCH   7  10
HETATM   10  P1  UNL     1      25.502   0.596  52.724  1.00  0.00    -0.038 P 
HETATM   11  H5  UNL     1      25.371   2.023  52.838  1.00  0.00     0.069 HD
BRANCH  10  12
HETATM   12  C5  UNL     1      27.229   0.059  53.089  1.00  0.00    -0.028 A 
HETATM   13  C6  UNL     1      27.566  -1.265  52.864  1.00  0.00     0.012 A 
HETATM   14  C7  UNL     1      28.871  -1.675  53.143  1.00  0.00     0.001 A 
HETATM   15  C8  UNL     1      29.802  -0.776  53.633  1.00  0.00     0.000 A 
HETATM   16  C9  UNL     1      29.425   0.548  53.846  1.00  0.00     0.001 A 
HETATM   17  C10 UNL     1      28.156   0.972  53.581  1.00  0.00     0.012 A 
ENDBRANCH  10  12
ENDBRANCH   7  10
BRANCH   9  18
HETATM   18  C13 UNL     1      22.703   1.146  51.298  1.00  0.00     0.160 C 
BRANCH  18  19
HETATM   19  N5  UNL     1      22.270   2.488  51.541  1.00  0.00    -0.408 N 
HETATM   20  C14 UNL     1      23.104   3.361  52.256  1.00  0.00     0.117 C 
HETATM   21  C15 UNL     1      22.262   4.649  52.251  1.00  0.00     0.021 C 
HETATM   22  C16 UNL     1      21.271   4.498  51.116  1.00  0.00     0.021 C 
HETATM   23  C17 UNL     1      21.588   3.147  50.486  1.00  0.00     0.117 C 
ENDBRANCH  18  19
ENDBRANCH   9  18
BRANCH   1  24
HETATM   24  N1  UNL     1      19.836   0.353  51.918  1.00  0.00    -0.397 N 
HETATM   25  H1  UNL     1      19.000  -0.263  51.933  1.00  0.00     0.156 HD
HETATM   26  H2  UNL     1      19.815   1.211  51.305  1.00  0.00     0.156 HD
ENDBRANCH   1  24
TORSDOF 5
ENDMDL
MODEL 2
REMARK VINA RESULT:      -7.5      2.445      6.060
REMARK  5 active torsions:
REMARK  status: ('A' for Active; 'I' for Inactive)
REMARK    1  A    between atoms: N1_1  and  C1_2 
REMARK    2  A    between atoms: C4_8  and  P1_9 
REMARK    3  A    between atoms: P1_9  and  C5_10 
REMARK    4  A    between atoms: C12_17  and  C13_18 
REMARK    5  A    between atoms: C13_18  and  N5_19 
ROOT
HETATM    1  C1  UNL     1      24.452  -0.759  54.796  1.00  0.00     0.053 A 
HETATM    2  C2  UNL     1      23.201  -0.838  54.269  1.00  0.00     0.148 A 
HETATM    3  N2  UNL     1      23.137  -0.066  53.178  1.00  0.00    -0.239 N 
HETATM    4  N3  UNL     1      22.131   0.161  52.360  1.00  0.00    -0.161 NA
HETATM    5  C3  UNL     1      22.317   0.987  51.331  1.00  0.00     0.256 A 
HETATM    6  N4  UNL     1      23.512   1.585  51.121  1.00  0.00    -0.237 NA
HETATM    7  C4  UNL     1      24.511   1.328  51.975  1.00  0.00     0.092 A 
HETATM    8  C11 UNL     1      24.350   0.493  53.029  1.00  0.00     0.097 A 
HETATM    9  C12 UNL     1      25.234   0.104  54.011  1.00  0.00     0.018 A 
ENDROOT
BRANCH   7  10
HETATM   10  P1  UNL     1      26.079   2.160  51.663  1.00  0.00    -0.038 P 
HETATM   11  H5  UNL     1      27.039   1.239  51.118  1.00  0.00     0.069 HD
BRANCH  10  12
HETATM   12  C5  UNL     1      25.869   3.625  50.562  1.00  0.00    -0.028 A 
HETATM   13  C6  UNL     1      24.773   4.448  50.766  1.00  0.00     0.012 A 
HETATM   14  C7  UNL     1      24.610   5.554  49.931  1.00  0.00     0.001 A 
HETATM   15  C8  UNL     1      25.523   5.819  48.925  1.00  0.00     0.000 A 
HETATM   16  C9  UNL     1      26.611   4.969  48.752  1.00  0.00     0.001 A 
HETATM   17  C10 UNL     1      26.793   3.881  49.554  1.00  0.00     0.012 A 
ENDBRANCH  10  12
ENDBRANCH   7  10
BRANCH   9  18
HETATM   18  C13 UNL     1      26.639   0.432  54.285  1.00  0.00     0.160 C 
BRANCH  18  19
HETATM   19  N5  UNL     1      27.420  -0.689  53.861  1.00  0.00    -0.408 N 
HETATM   20  C14 UNL     1      26.937  -1.515  52.836  1.00  0.00     0.117 C 
HETATM   21  C15 UNL     1      28.081  -2.536  52.712  1.00  0.00     0.021 C 
HETATM   22  C16 UNL     1      29.295  -1.886  53.341  1.00  0.00     0.021 C 
HETATM   23  C17 UNL     1      28.824  -0.505  53.782  1.00  0.00     0.117 C 
ENDBRANCH  18  19
ENDBRANCH   9  18
BRANCH   1  24
HETATM   24  N1  UNL     1      24.940  -1.436  55.974  1.00  0.00    -0.397 N 
HETATM   25  H1  UNL     1      25.877  -1.883  55.922  1.00  0.00     0.156 HD
HETATM   26  H2  UNL     1      24.402  -1.503  56.878  1.00  0.00     0.156 HD
ENDBRANCH   1  24
TORSDOF 5
ENDMDL
MODEL 3
REMARK VINA RESULT:      -7.2      1.709      2.388
REMARK  5 active torsions:
REMARK  status: ('A' for Active; 'I' for Inactive)
REMARK    1  A    between atoms: N1_1  and  C1_2 
REMARK    2  A    between atoms: C4_8  and  P1_9 
REMARK    3  A    between atoms: P1_9  and  C5_10 
REMARK    4  A    between atoms: C12_17  and  C13_18 
REMARK    5  A    between atoms: C13_18  and  N5_19 
ROOT
HETATM    1  C1  UNL     1      22.583   1.675  50.444  1.00  0.00     0.053 A 
HETATM    2  C2  UNL     1      21.706   0.807  51.014  1.00  0.00     0.148 A 
HETATM    3  N2  UNL     1      22.258   0.287  52.116  1.00  0.00    -0.239 N 
HETATM    4  N3  UNL     1      21.776  -0.590  52.971  1.00  0.00    -0.161 NA
HETATM    5  C3  UNL     1      22.533  -0.960  54.002  1.00  0.00     0.256 A 
HETATM    6  N4  UNL     1      23.775  -0.452  54.178  1.00  0.00    -0.237 NA
HETATM    7  C4  UNL     1      24.230   0.438  53.287  1.00  0.00     0.092 A 
HETATM    8  C11 UNL     1      23.481   0.832  52.229  1.00  0.00     0.097 A 
HETATM    9  C12 UNL     1      23.759   1.719  51.212  1.00  0.00     0.018 A 
ENDROOT
BRANCH   7  10
HETATM   10  P1  UNL     1      25.894   1.076  53.554  1.00  0.00    -0.038 P 
HETATM   11  H5  UNL     1      25.989   1.714  54.839  1.00  0.00     0.069 HD
BRANCH  10  12
HETATM   12  C5  UNL     1      27.169  -0.245  53.375  1.00  0.00    -0.028 A 
HETATM   13  C6  UNL     1      26.786  -1.457  52.827  1.00  0.00     0.012 A 
HETATM   14  C7  UNL     1      27.749  -2.460  52.695  1.00  0.00     0.001 A 
HETATM   15  C8  UNL     1      29.053  -2.242  53.103  1.00  0.00     0.000 A 
HETATM   16  C9  UNL     1      29.399  -1.010  53.650  1.00  0.00     0.001 A 
HETATM   17  C10 UNL     1      28.477  -0.015  53.791  1.00  0.00     0.012 A 
ENDBRANCH  10  12
ENDBRANCH   7  10
BRANCH   9  18
HETATM   18  C13 UNL     1      24.929   2.548  50.894  1.00  0.00     0.160 C 
BRANCH  18  19
HETATM   19  N5  UNL     1      24.494   3.910  50.912  1.00  0.00    -0.408 N 
HETATM   20  C14 UNL     1      23.979   4.452  52.098  1.00  0.00     0.117 C 
HETATM   21  C15 UNL     1      23.673   5.895  51.660  1.00  0.00     0.021 C 
HETATM   22  C16 UNL     1      24.502   6.140  50.417  1.00  0.00     0.021 C 
HETATM   23  C17 UNL     1      25.279   4.848  50.194  1.00  0.00     0.117 C 
ENDBRANCH  18  19
ENDBRANCH   9  18
BRANCH   1  24
HETATM   24  N1  UNL     1      22.381   2.449  49.242  1.00  0.00    -0.397 N 
HETATM   25  H1  UNL     1      22.682   2.030  48.340  1.00  0.00     0.156 HD
HETATM   26  H2  UNL     1      21.948   3.411  49.230  1.00  0.00     0.156 HD
ENDBRANCH   1  24
TORSDOF 5
ENDMDL
MODEL 4
REMARK VINA RESULT:      -7.1      3.596      6.275
REMARK  5 active torsions:
REMARK  status: ('A' for Active; 'I' for Inactive)
REMARK    1  A    between atoms: N1_1  and  C1_2 
REMARK    2  A    between atoms: C4_8  and  P1_9 
REMARK    3  A    between atoms: P1_9  and  C5_10 
REMARK    4  A    between atoms: C12_17  and  C13_18 
REMARK    5  A    between atoms: C13_18  and  N5_19 
ROOT
HETATM    1  C1  UNL     1      21.813   0.798  50.901  1.00  0.00     0.053 A 
HETATM    2  C2  UNL     1      21.262   0.922  49.665  1.00  0.00     0.148 A 
HETATM    3  N2  UNL     1      21.769   2.005  49.066  1.00  0.00    -0.239 N 
HETATM    4  N3  UNL     1      21.524   2.507  47.874  1.00  0.00    -0.161 NA
HETATM    5  C3  UNL     1      22.162   3.616  47.503  1.00  0.00     0.256 A 
HETATM    6  N4  UNL     1      23.048   4.222  48.326  1.00  0.00    -0.237 NA
HETATM    7  C4  UNL     1      23.271   3.682  49.531  1.00  0.00     0.092 A 
HETATM    8  C11 UNL     1      22.636   2.555  49.934  1.00  0.00     0.097 A 
HETATM    9  C12 UNL     1      22.718   1.850  51.114  1.00  0.00     0.018 A 
ENDROOT
BRANCH   7  10
HETATM   10  P1  UNL     1      24.447   4.534  50.597  1.00  0.00    -0.038 P 
HETATM   11  H5  UNL     1      24.888   3.667  51.656  1.00  0.00     0.069 HD
BRANCH  10  12
HETATM   12  C5  UNL     1      25.881   5.195  49.643  1.00  0.00    -0.028 A 
HETATM   13  C6  UNL     1      25.910   6.550  49.356  1.00  0.00     0.012 A 
HETATM   14  C7  UNL     1      26.992   7.051  48.630  1.00  0.00     0.001 A 
HETATM   15  C8  UNL     1      28.008   6.212  48.210  1.00  0.00     0.000 A 
HETATM   16  C9  UNL     1      27.944   4.856  48.519  1.00  0.00     0.001 A 
HETATM   17  C10 UNL     1      26.897   4.341  49.226  1.00  0.00     0.012 A 
ENDBRANCH  10  12
ENDBRANCH   7  10
BRANCH   9  18
HETATM   18  C13 UNL     1      23.498   2.041  52.345  1.00  0.00     0.160 C 
BRANCH  18  19
HETATM   19  N5  UNL     1      24.536   1.057  52.339  1.00  0.00    -0.408 N 
HETATM   20  C14 UNL     1      25.801   1.396  51.839  1.00  0.00     0.117 C 
HETATM   21  C15 UNL     1      26.568   0.078  52.046  1.00  0.00     0.021 C 
HETATM   22  C16 UNL     1      25.790  -0.700  53.086  1.00  0.00     0.021 C 
HETATM   23  C17 UNL     1      24.620   0.200  53.466  1.00  0.00     0.117 C 
ENDBRANCH  18  19
ENDBRANCH   9  18
BRANCH   1  24
HETATM   24  N1  UNL     1      21.539  -0.234  51.874  1.00  0.00    -0.397 N 
HETATM   25  H1  UNL     1      21.340  -1.191  51.521  1.00  0.00     0.156 HD
HETATM   26  H2  UNL     1      21.529  -0.071  52.915  1.00  0.00     0.156 HD
ENDBRANCH   1  24
TORSDOF 5
ENDMDL
MODEL 5
REMARK VINA RESULT:      -7.1      3.530      6.492
REMARK  5 active torsions:
REMARK  status: ('A' for Active; 'I' for Inactive)
REMARK    1  A    between atoms: N1_1  and  C1_2 
REMARK    2  A    between atoms: C4_8  and  P1_9 
REMARK    3  A    between atoms: P1_9  and  C5_10 
REMARK    4  A    between atoms: C12_17  and  C13_18 
REMARK    5  A    between atoms: C13_18  and  N5_19 
ROOT
HETATM    1  C1  UNL     1      24.463   0.478  53.100  1.00  0.00     0.053 A 
HETATM    2  C2  UNL     1      23.341   1.229  53.256  1.00  0.00     0.148 A 
HETATM    3  N2  UNL     1      23.401   2.281  52.430  1.00  0.00    -0.239 N 
HETATM    4  N3  UNL     1      22.544   3.263  52.248  1.00  0.00    -0.161 NA
HETATM    5  C3  UNL     1      22.837   4.210  51.357  1.00  0.00     0.256 A 
HETATM    6  N4  UNL     1      23.989   4.172  50.649  1.00  0.00    -0.237 NA
HETATM    7  C4  UNL     1      24.835   3.156  50.862  1.00  0.00     0.092 A 
HETATM    8  C11 UNL     1      24.562   2.181  51.761  1.00  0.00     0.097 A 
HETATM    9  C12 UNL     1      25.288   1.068  52.129  1.00  0.00     0.018 A 
ENDROOT
BRANCH   7  10
HETATM   10  P1  UNL     1      26.362   3.157  49.906  1.00  0.00    -0.038 P 
HETATM   11  H5  UNL     1      26.354   2.092  48.942  1.00  0.00     0.069 HD
BRANCH  10  12
HETATM   12  C5  UNL     1      26.657   4.786  49.091  1.00  0.00    -0.028 A 
HETATM   13  C6  UNL     1      27.939   5.080  48.658  1.00  0.00     0.012 A 
HETATM   14  C7  UNL     1      28.165   6.314  48.045  1.00  0.00     0.001 A 
HETATM   15  C8  UNL     1      27.131   7.218  47.877  1.00  0.00     0.000 A 
HETATM   16  C9  UNL     1      25.856   6.885  48.326  1.00  0.00     0.001 A 
HETATM   17  C10 UNL     1      25.609   5.686  48.929  1.00  0.00     0.012 A 
ENDBRANCH  10  12
ENDBRANCH   7  10
BRANCH   9  18
HETATM   18  C13 UNL     1      26.588   0.532  51.704  1.00  0.00     0.160 C 
BRANCH  18  19
HETATM   19  N5  UNL     1      27.452   0.582  52.842  1.00  0.00    -0.408 N 
HETATM   20  C14 UNL     1      28.235  -0.537  53.160  1.00  0.00     0.117 C 
HETATM   21  C15 UNL     1      28.990  -0.030  54.401  1.00  0.00     0.021 C 
HETATM   22  C16 UNL     1      28.912   1.481  54.352  1.00  0.00     0.021 C 
HETATM   23  C17 UNL     1      28.142   1.799  53.076  1.00  0.00     0.117 C 
ENDBRANCH  18  19
ENDBRANCH   9  18
BRANCH   1  24
HETATM   24  N1  UNL     1      24.795  -0.741  53.801  1.00  0.00    -0.397 N 
HETATM   25  H1  UNL     1      24.522  -0.814  54.800  1.00  0.00     0.156 HD
HETATM   26  H2  UNL     1      25.296  -1.555  53.356  1.00  0.00     0.156 HD
ENDBRANCH   1  24
TORSDOF 5
ENDMDL
MODEL 6
REMARK VINA RESULT:      -7.1      2.714      4.877
REMARK  5 active torsions:
REMARK  status: ('A' for Active; 'I' for Inactive)
REMARK    1  A    between atoms: N1_1  and  C1_2 
REMARK    2  A    between atoms: C4_8  and  P1_9 
REMARK    3  A    between atoms: P1_9  and  C5_10 
REMARK    4  A    between atoms: C12_17  and  C13_18 
REMARK    5  A    between atoms: C13_18  and  N5_19 
ROOT
HETATM    1  C1  UNL     1      23.205   5.322  51.211  1.00  0.00     0.053 A 
HETATM    2  C2  UNL     1      24.043   5.900  50.311  1.00  0.00     0.148 A 
HETATM    3  N2  UNL     1      25.066   5.071  50.070  1.00  0.00    -0.239 N 
HETATM    4  N3  UNL     1      26.105   5.218  49.277  1.00  0.00    -0.161 NA
HETATM    5  C3  UNL     1      27.004   4.236  49.213  1.00  0.00     0.256 A 
HETATM    6  N4  UNL     1      26.861   3.108  49.944  1.00  0.00    -0.237 NA
HETATM    7  C4  UNL     1      25.790   2.995  50.740  1.00  0.00     0.092 A 
HETATM    8  C11 UNL     1      24.861   3.977  50.824  1.00  0.00     0.097 A 
HETATM    9  C12 UNL     1      23.706   4.061  51.571  1.00  0.00     0.018 A 
ENDROOT
BRANCH   7  10
HETATM   10  P1  UNL     1      25.651   1.481  51.706  1.00  0.00    -0.038 P 
HETATM   11  H5  UNL     1      25.344   0.365  50.852  1.00  0.00     0.069 HD
BRANCH  10  12
HETATM   12  C5  UNL     1      27.175   1.158  52.694  1.00  0.00    -0.028 A 
HETATM   13  C6  UNL     1      27.579  -0.155  52.868  1.00  0.00     0.012 A 
HETATM   14  C7  UNL     1      28.729  -0.402  53.620  1.00  0.00     0.001 A 
HETATM   15  C8  UNL     1      29.445   0.644  54.175  1.00  0.00     0.000 A 
HETATM   16  C9  UNL     1      29.007   1.951  53.978  1.00  0.00     0.001 A 
HETATM   17  C10 UNL     1      27.886   2.218  53.248  1.00  0.00     0.012 A 
ENDBRANCH  10  12
ENDBRANCH   7  10
BRANCH   9  18
HETATM   18  C13 UNL     1      23.062   3.152  52.529  1.00  0.00     0.160 C 
BRANCH  18  19
HETATM   19  N5  UNL     1      21.950   2.556  51.855  1.00  0.00    -0.408 N 
HETATM   20  C14 UNL     1      22.111   1.311  51.230  1.00  0.00     0.117 C 
HETATM   21  C15 UNL     1      20.696   1.069  50.678  1.00  0.00     0.021 C 
HETATM   22  C16 UNL     1      19.775   1.972  51.472  1.00  0.00     0.021 C 
HETATM   23  C17 UNL     1      20.679   2.683  52.472  1.00  0.00     0.117 C 
ENDBRANCH  18  19
ENDBRANCH   9  18
BRANCH   1  24
HETATM   24  N1  UNL     1      21.982   5.881  51.740  1.00  0.00    -0.397 N 
HETATM   25  H1  UNL     1      22.061   6.682  52.396  1.00  0.00     0.156 HD
HETATM   26  H2  UNL     1      21.021   5.520  51.500  1.00  0.00     0.156 HD
ENDBRANCH   1  24
TORSDOF 5
ENDMDL
MODEL 7
REMARK VINA RESULT:      -7.0      1.582      2.116
REMARK  5 active torsions:
REMARK  status: ('A' for Active; 'I' for Inactive)
REMARK    1  A    between atoms: N1_1  and  C1_2 
REMARK    2  A    between atoms: C4_8  and  P1_9 
REMARK    3  A    between atoms: P1_9  and  C5_10 
REMARK    4  A    between atoms: C12_17  and  C13_18 
REMARK    5  A    between atoms: C13_18  and  N5_19 
ROOT
HETATM    1  C1  UNL     1      20.465   2.116  52.496  1.00  0.00     0.053 A 
HETATM    2  C2  UNL     1      20.145   1.099  53.339  1.00  0.00     0.148 A 
HETATM    3  N2  UNL     1      21.261   0.446  53.681  1.00  0.00    -0.239 N 
HETATM    4  N3  UNL     1      21.425  -0.596  54.468  1.00  0.00    -0.161 NA
HETATM    5  C3  UNL     1      22.656  -1.074  54.650  1.00  0.00     0.256 A 
HETATM    6  N4  UNL     1      23.723  -0.506  54.043  1.00  0.00    -0.237 NA
HETATM    7  C4  UNL     1      23.516   0.553  53.251  1.00  0.00     0.092 A 
HETATM    8  C11 UNL     1      22.276   1.059  53.048  1.00  0.00     0.097 A 
HETATM    9  C12 UNL     1      21.853   2.122  52.281  1.00  0.00     0.018 A 
ENDROOT
BRANCH   7  10
HETATM   10  P1  UNL     1      24.966   1.265  52.453  1.00  0.00    -0.038 P 
HETATM   11  H5  UNL     1      25.008   2.687  52.659  1.00  0.00     0.069 HD
BRANCH  10  12
HETATM   12  C5  UNL     1      26.526   0.467  53.030  1.00  0.00    -0.028 A 
HETATM   13  C6  UNL     1      26.886  -0.749  52.473  1.00  0.00     0.012 A 
HETATM   14  C7  UNL     1      28.064  -1.357  52.912  1.00  0.00     0.001 A 
HETATM   15  C8  UNL     1      28.848  -0.756  53.880  1.00  0.00     0.000 A 
HETATM   16  C9  UNL     1      28.453   0.467  54.416  1.00  0.00     0.001 A 
HETATM   17  C10 UNL     1      27.306   1.081  54.005  1.00  0.00     0.012 A 
ENDBRANCH  10  12
ENDBRANCH   7  10
BRANCH   9  18
HETATM   18  C13 UNL     1      22.557   3.081  51.419  1.00  0.00     0.160 C 
BRANCH  18  19
HETATM   19  N5  UNL     1      22.218   2.755  50.068  1.00  0.00    -0.408 N 
HETATM   20  C14 UNL     1      22.696   3.562  49.025  1.00  0.00     0.117 C 
HETATM   21  C15 UNL     1      22.115   2.838  47.798  1.00  0.00     0.021 C 
HETATM   22  C16 UNL     1      21.787   1.433  48.256  1.00  0.00     0.021 C 
HETATM   23  C17 UNL     1      22.211   1.380  49.718  1.00  0.00     0.117 C 
ENDBRANCH  18  19
ENDBRANCH   9  18
BRANCH   1  24
HETATM   24  N1  UNL     1      19.555   3.062  51.893  1.00  0.00    -0.397 N 
HETATM   25  H1  UNL     1      18.970   2.733  51.101  1.00  0.00     0.156 HD
HETATM   26  H2  UNL     1      19.454   4.062  52.211  1.00  0.00     0.156 HD
ENDBRANCH   1  24
TORSDOF 5
ENDMDL
MODEL 8
REMARK VINA RESULT:      -6.9      2.601      5.637
REMARK  5 active torsions:
REMARK  status: ('A' for Active; 'I' for Inactive)
REMARK    1  A    between atoms: N1_1  and  C1_2 
REMARK    2  A    between atoms: C4_8  and  P1_9 
REMARK    3  A    between atoms: P1_9  and  C5_10 
REMARK    4  A    between atoms: C12_17  and  C13_18 
REMARK    5  A    between atoms: C13_18  and  N5_19 
ROOT
HETATM    1  C1  UNL     1      25.501   1.906  53.559  1.00  0.00     0.053 A 
HETATM    2  C2  UNL     1      25.350   0.588  53.854  1.00  0.00     0.148 A 
HETATM    3  N2  UNL     1      24.121   0.198  53.496  1.00  0.00    -0.239 N 
HETATM    4  N3  UNL     1      23.544  -0.980  53.596  1.00  0.00    -0.161 NA
HETATM    5  C3  UNL     1      22.290  -1.118  53.166  1.00  0.00     0.256 A 
HETATM    6  N4  UNL     1      21.615  -0.073  52.635  1.00  0.00    -0.237 NA
HETATM    7  C4  UNL     1      22.236   1.110  52.549  1.00  0.00     0.092 A 
HETATM    8  C11 UNL     1      23.509   1.277  52.978  1.00  0.00     0.097 A 
HETATM    9  C12 UNL     1      24.317   2.393  52.984  1.00  0.00     0.018 A 
ENDROOT
BRANCH   7  10
HETATM   10  P1  UNL     1      21.290   2.474  51.848  1.00  0.00    -0.038 P 
HETATM   11  H5  UNL     1      21.549   3.690  52.570  1.00  0.00     0.069 HD
BRANCH  10  12
HETATM   12  C5  UNL     1      21.630   2.688  50.048  1.00  0.00    -0.028 A 
HETATM   13  C6  UNL     1      21.923   1.562  49.297  1.00  0.00     0.012 A 
HETATM   14  C7  UNL     1      22.184   1.722  47.935  1.00  0.00     0.001 A 
HETATM   15  C8  UNL     1      22.152   2.978  47.354  1.00  0.00     0.000 A 
HETATM   16  C9  UNL     1      21.853   4.086  48.142  1.00  0.00     0.001 A 
HETATM   17  C10 UNL     1      21.594   3.956  49.475  1.00  0.00     0.012 A 
ENDBRANCH  10  12
ENDBRANCH   7  10
BRANCH   9  18
HETATM   18  C13 UNL     1      24.115   3.780  52.543  1.00  0.00     0.160 C 
BRANCH  18  19
HETATM   19  N5  UNL     1      24.886   3.956  51.351  1.00  0.00    -0.408 N 
HETATM   20  C14 UNL     1      25.089   2.862  50.496  1.00  0.00     0.117 C 
HETATM   21  C15 UNL     1      25.925   3.509  49.378  1.00  0.00     0.021 C 
HETATM   22  C16 UNL     1      25.684   5.000  49.483  1.00  0.00     0.021 C 
HETATM   23  C17 UNL     1      24.700   5.165  50.634  1.00  0.00     0.117 C 
ENDBRANCH  18  19
ENDBRANCH   9  18
BRANCH   1  24
HETATM   24  N1  UNL     1      26.676   2.716  53.785  1.00  0.00    -0.397 N 
HETATM   25  H1  UNL     1      27.292   2.911  52.972  1.00  0.00     0.156 HD
HETATM   26  H2  UNL     1      26.941   3.116  54.724  1.00  0.00     0.156 HD
ENDBRANCH   1  24
TORSDOF 5
ENDMDL
MODEL 9
REMARK VINA RESULT:      -6.8      2.989      6.358
REMARK  5 active torsions:
REMARK  status: ('A' for Active; 'I' for Inactive)
REMARK    1  A    between atoms: N1_1  and  C1_2 
REMARK    2  A    between atoms: C4_8  and  P1_9 
REMARK    3  A    between atoms: P1_9  and  C5_10 
REMARK    4  A    between atoms: C12_17  and  C13_18 
REMARK    5  A    between atoms: C13_18  and  N5_19 
ROOT
HETATM    1  C1  UNL     1      24.276   4.901  50.532  1.00  0.00     0.053 A 
HETATM    2  C2  UNL     1      23.242   5.783  50.559  1.00  0.00     0.148 A 
HETATM    3  N2  UNL     1      22.089   5.106  50.604  1.00  0.00    -0.239 N 
HETATM    4  N3  UNL     1      20.850   5.546  50.638  1.00  0.00    -0.161 NA
HETATM    5  C3  UNL     1      19.856   4.659  50.674  1.00  0.00     0.256 A 
HETATM    6  N4  UNL     1      20.105   3.330  50.676  1.00  0.00    -0.237 NA
HETATM    7  C4  UNL     1      21.380   2.920  50.640  1.00  0.00     0.092 A 
HETATM    8  C11 UNL     1      22.408   3.800  50.603  1.00  0.00     0.097 A 
HETATM    9  C12 UNL     1      23.770   3.591  50.560  1.00  0.00     0.018 A 
ENDROOT
BRANCH   7  10
HETATM   10  P1  UNL     1      21.661   1.140  50.628  1.00  0.00    -0.038 P 
HETATM   11  H5  UNL     1      22.901   0.831  49.971  1.00  0.00     0.069 HD
BRANCH  10  12
HETATM   12  C5  UNL     1      21.618   0.430  52.331  1.00  0.00    -0.028 A 
HETATM   13  C6  UNL     1      22.456  -0.634  52.619  1.00  0.00     0.012 A 
HETATM   14  C7  UNL     1      22.421  -1.176  53.905  1.00  0.00     0.001 A 
HETATM   15  C8  UNL     1      21.570  -0.658  54.865  1.00  0.00     0.000 A 
HETATM   16  C9  UNL     1      20.743   0.412  54.537  1.00  0.00     0.001 A 
HETATM   17  C10 UNL     1      20.757   0.959  53.287  1.00  0.00     0.012 A 
ENDBRANCH  10  12
ENDBRANCH   7  10
BRANCH   9  18
HETATM   18  C13 UNL     1      24.599   2.378  50.538  1.00  0.00     0.160 C 
BRANCH  18  19
HETATM   19  N5  UNL     1      25.399   2.398  51.724  1.00  0.00    -0.408 N 
HETATM   20  C14 UNL     1      24.811   2.076  52.955  1.00  0.00     0.117 C 
HETATM   21  C15 UNL     1      26.015   2.206  53.904  1.00  0.00     0.021 C 
HETATM   22  C16 UNL     1      27.249   2.109  53.032  1.00  0.00     0.021 C 
HETATM   23  C17 UNL     1      26.722   1.899  51.618  1.00  0.00     0.117 C 
ENDBRANCH  18  19
ENDBRANCH   9  18
BRANCH   1  24
HETATM   24  N1  UNL     1      25.684   5.216  50.483  1.00  0.00    -0.397 N 
HETATM   25  H1  UNL     1      26.227   5.145  51.365  1.00  0.00     0.156 HD
HETATM   26  H2  UNL     1      26.188   5.514  49.605  1.00  0.00     0.156 HD
ENDBRANCH   1  24
TORSDOF 5
ENDMDL
