MODEL 1
REMARK VINA RESULT:      -7.7      0.000      0.000
REMARK  4 active torsions:
REMARK  status: ('A' for Active; 'I' for Inactive)
REMARK    1  A    between atoms: C2_2  and  N1_3 
REMARK    2  A    between atoms: C6_7  and  O1_8 
REMARK    3  A    between atoms: O1_8  and  N2_9 
REMARK    4  A    between atoms: C7_10  and  O2_11 
ROOT
HETATM    1  N1  UNL     1      25.290   4.790  49.565  1.00  0.00    -0.375 N 
HETATM    2  C3  UNL     1      25.465   3.325  49.577  1.00  0.00     0.162 C 
HETATM    3  C4  UNL     1      25.469   2.823  50.979  1.00  0.00    -0.029 A 
HETATM    4  C5  UNL     1      26.784   2.600  51.309  1.00  0.00     0.051 A 
HETATM    5  C6  UNL     1      27.235   2.133  52.512  1.00  0.00     0.125 A 
HETATM    6  C7  UNL     1      26.253   1.866  53.475  1.00  0.00     0.104 A 
HETATM    7  C9  UNL     1      24.918   2.075  53.188  1.00  0.00     0.049 A 
HETATM    8  C10 UNL     1      24.502   2.555  51.940  1.00  0.00    -0.030 A 
HETATM    9  C11 UNL     1      23.032   2.669  51.949  1.00  0.00     0.159 C 
HETATM   10  N3  UNL     1      22.665   4.001  51.593  1.00  0.00    -0.384 N 
HETATM   11  C12 UNL     1      23.026   5.197  50.912  1.00  0.00     0.055 A 
HETATM   12  C13 UNL     1      22.088   6.169  51.171  1.00  0.00     0.031 A 
HETATM   13  C14 UNL     1      22.196   7.434  50.625  1.00  0.00     0.002 A 
HETATM   14  C15 UNL     1      23.257   7.705  49.817  1.00  0.00     0.002 A 
HETATM   15  C16 UNL     1      24.189   6.724  49.565  1.00  0.00     0.031 A 
HETATM   16  C17 UNL     1      24.119   5.430  50.098  1.00  0.00     0.057 A 
HETATM   17  H17 UNL     1      21.718   4.142  52.027  1.00  0.00     0.160 HD
ENDROOT
BRANCH   5  18
HETATM   18  O1  UNL     1      28.532   1.887  52.912  1.00  0.00    -0.264 OA
BRANCH  18  19
HETATM   19  N2  UNL     1      29.044   2.569  53.981  1.00  0.00    -0.209 NA
HETATM   20  H9  UNL     1      29.388   1.874  54.681  1.00  0.00     0.150 HD
HETATM   21  H10 UNL     1      28.190   3.031  54.432  1.00  0.00     0.150 HD
ENDBRANCH  18  19
ENDBRANCH   5  18
BRANCH   6  22
HETATM   22  O2  UNL     1      26.609   1.389  54.728  1.00  0.00    -0.353 OA
HETATM   23  C8  UNL     1      26.350   0.056  55.060  1.00  0.00     0.210 C 
ENDBRANCH   6  22
BRANCH   1  24
HETATM   24  C2  UNL     1      26.313   5.636  49.000  1.00  0.00     0.119 C 
HETATM   25  C1  UNL     1      27.600   5.018  48.641  1.00  0.00     0.026 C 
ENDBRANCH   1  24
TORSDOF 4
ENDMDL
MODEL 2
REMARK VINA RESULT:      -7.4      2.891      6.737
REMARK  4 active torsions:
REMARK  status: ('A' for Active; 'I' for Inactive)
REMARK    1  A    between atoms: C2_2  and  N1_3 
REMARK    2  A    between atoms: C6_7  and  O1_8 
REMARK    3  A    between atoms: O1_8  and  N2_9 
REMARK    4  A    between atoms: C7_10  and  O2_11 
ROOT
HETATM    1  N1  UNL     1      24.995   0.362  53.133  1.00  0.00    -0.375 N 
HETATM    2  C3  UNL     1      24.134   0.560  51.952  1.00  0.00     0.162 C 
HETATM    3  C4  UNL     1      23.781   2.000  51.813  1.00  0.00    -0.029 A 
HETATM    4  C5  UNL     1      22.501   2.136  52.294  1.00  0.00     0.051 A 
HETATM    5  C6  UNL     1      21.790   3.302  52.350  1.00  0.00     0.125 A 
HETATM    6  C7  UNL     1      22.445   4.444  51.868  1.00  0.00     0.104 A 
HETATM    7  C9  UNL     1      23.732   4.355  51.374  1.00  0.00     0.049 A 
HETATM    8  C10 UNL     1      24.421   3.138  51.337  1.00  0.00    -0.030 A 
HETATM    9  C11 UNL     1      25.758   3.374  50.761  1.00  0.00     0.159 C 
HETATM   10  N3  UNL     1      26.749   2.892  51.667  1.00  0.00    -0.384 N 
HETATM   11  C12 UNL     1      27.064   1.993  52.724  1.00  0.00     0.055 A 
HETATM   12  C13 UNL     1      28.332   2.259  53.185  1.00  0.00     0.031 A 
HETATM   13  C14 UNL     1      28.891   1.522  54.213  1.00  0.00     0.002 A 
HETATM   14  C15 UNL     1      28.158   0.518  54.766  1.00  0.00     0.002 A 
HETATM   15  C16 UNL     1      26.890   0.262  54.295  1.00  0.00     0.031 A 
HETATM   16  C17 UNL     1      26.286   0.983  53.258  1.00  0.00     0.057 A 
HETATM   17  H17 UNL     1      27.610   3.453  51.443  1.00  0.00     0.160 HD
ENDROOT
BRANCH   5  18
HETATM   18  O1  UNL     1      20.510   3.512  52.818  1.00  0.00    -0.264 OA
BRANCH  18  19
HETATM   19  N2  UNL     1      19.472   3.567  51.929  1.00  0.00    -0.209 NA
HETATM   20  H9  UNL     1      18.854   2.741  52.092  1.00  0.00     0.150 HD
HETATM   21  H10 UNL     1      19.932   3.398  50.977  1.00  0.00     0.150 HD
ENDBRANCH  18  19
ENDBRANCH   5  18
BRANCH   6  22
HETATM   22  O2  UNL     1      21.809   5.676  51.882  1.00  0.00    -0.353 OA
HETATM   23  C8  UNL     1      21.821   6.475  50.733  1.00  0.00     0.210 C 
ENDBRANCH   6  22
BRANCH   1  24
HETATM   24  C2  UNL     1      24.555  -0.483  54.216  1.00  0.00     0.119 C 
HETATM   25  C1  UNL     1      23.134  -0.865  54.260  1.00  0.00     0.026 C 
ENDBRANCH   1  24
TORSDOF 4
ENDMDL
MODEL 3
REMARK VINA RESULT:      -7.3      2.938      4.665
REMARK  4 active torsions:
REMARK  status: ('A' for Active; 'I' for Inactive)
REMARK    1  A    between atoms: C2_2  and  N1_3 
REMARK    2  A    between atoms: C6_7  and  O1_8 
REMARK    3  A    between atoms: O1_8  and  N2_9 
REMARK    4  A    between atoms: C7_10  and  O2_11 
ROOT
HETATM    1  N1  UNL     1      22.311   1.071  51.687  1.00  0.00    -0.375 N 
HETATM    2  C3  UNL     1      23.054   1.476  52.896  1.00  0.00     0.162 C 
HETATM    3  C4  UNL     1      24.518   1.328  52.668  1.00  0.00    -0.029 A 
HETATM    4  C5  UNL     1      24.894   0.163  53.292  1.00  0.00     0.051 A 
HETATM    5  C6  UNL     1      26.160  -0.350  53.328  1.00  0.00     0.125 A 
HETATM    6  C7  UNL     1      27.144   0.397  52.664  1.00  0.00     0.104 A 
HETATM    7  C9  UNL     1      26.813   1.575  52.024  1.00  0.00     0.049 A 
HETATM    8  C10 UNL     1      25.501   2.061  52.014  1.00  0.00    -0.030 A 
HETATM    9  C11 UNL     1      25.475   3.325  51.254  1.00  0.00     0.159 C 
HETATM   10  N3  UNL     1      24.505   3.226  50.213  1.00  0.00    -0.384 N 
HETATM   11  C12 UNL     1      23.310   2.608  49.751  1.00  0.00     0.055 A 
HETATM   12  C13 UNL     1      23.061   3.007  48.458  1.00  0.00     0.031 A 
HETATM   13  C14 UNL     1      21.952   2.556  47.768  1.00  0.00     0.002 A 
HETATM   14  C15 UNL     1      21.099   1.701  48.396  1.00  0.00     0.002 A 
HETATM   15  C16 UNL     1      21.359   1.308  49.690  1.00  0.00     0.031 A 
HETATM   16  C17 UNL     1      22.471   1.740  50.425  1.00  0.00     0.057 A 
HETATM   17  H17 UNL     1      24.826   3.911  49.483  1.00  0.00     0.160 HD
ENDROOT
BRANCH   5  18
HETATM   18  O1  UNL     1      26.608  -1.506  53.930  1.00  0.00    -0.264 OA
BRANCH  18  19
HETATM   19  N2  UNL     1      27.184  -2.482  53.163  1.00  0.00    -0.209 NA
HETATM   20  H9  UNL     1      28.038  -2.826  53.656  1.00  0.00     0.150 HD
HETATM   21  H10 UNL     1      27.544  -1.959  52.300  1.00  0.00     0.150 HD
ENDBRANCH  18  19
ENDBRANCH   5  18
BRANCH   6  22
HETATM   22  O2  UNL     1      28.460  -0.039  52.643  1.00  0.00    -0.353 OA
HETATM   23  C8  UNL     1      29.379   0.486  53.558  1.00  0.00     0.210 C 
ENDBRANCH   6  22
BRANCH   1  24
HETATM   24  C2  UNL     1      21.381  -0.029  51.745  1.00  0.00     0.119 C 
HETATM   25  C1  UNL     1      20.751  -0.334  53.040  1.00  0.00     0.026 C 
ENDBRANCH   1  24
TORSDOF 4
ENDMDL
MODEL 4
REMARK VINA RESULT:      -7.0      2.800      5.643
REMARK  4 active torsions:
REMARK  status: ('A' for Active; 'I' for Inactive)
REMARK    1  A    between atoms: C2_2  and  N1_3 
REMARK    2  A    between atoms: C6_7  and  O1_8 
REMARK    3  A    between atoms: O1_8  and  N2_9 
REMARK    4  A    between atoms: C7_10  and  O2_11 
ROOT
HETATM    1  N1  UNL     1      24.709   0.881  53.102  1.00  0.00    -0.375 N 
HETATM    2  C3  UNL     1      25.366   2.192  53.260  1.00  0.00     0.162 C 
HETATM    3  C4  UNL     1      25.018   3.079  52.116  1.00  0.00    -0.029 A 
HETATM    4  C5  UNL     1      26.101   3.066  51.270  1.00  0.00     0.051 A 
HETATM    5  C6  UNL     1      26.200   3.751  50.091  1.00  0.00     0.125 A 
HETATM    6  C7  UNL     1      25.088   4.528  49.737  1.00  0.00     0.104 A 
HETATM    7  C9  UNL     1      23.977   4.572  50.556  1.00  0.00     0.049 A 
HETATM    8  C10 UNL     1      23.921   3.852  51.756  1.00  0.00    -0.030 A 
HETATM    9  C11 UNL     1      22.616   4.105  52.393  1.00  0.00     0.159 C 
HETATM   10  N3  UNL     1      21.968   2.859  52.646  1.00  0.00    -0.384 N 
HETATM   11  C12 UNL     1      22.117   1.463  52.877  1.00  0.00     0.055 A 
HETATM   12  C13 UNL     1      20.874   0.873  52.909  1.00  0.00     0.031 A 
HETATM   13  C14 UNL     1      20.731  -0.485  53.125  1.00  0.00     0.002 A 
HETATM   14  C15 UNL     1      21.850  -1.237  53.307  1.00  0.00     0.002 A 
HETATM   15  C16 UNL     1      23.088  -0.634  53.272  1.00  0.00     0.031 A 
HETATM   16  C17 UNL     1      23.279   0.737  53.056  1.00  0.00     0.057 A 
HETATM   17  H17 UNL     1      20.943   3.090  52.670  1.00  0.00     0.160 HD
ENDROOT
BRANCH   5  18
HETATM   18  O1  UNL     1      27.248   3.785  49.196  1.00  0.00    -0.264 OA
BRANCH  18  19
HETATM   19  N2  UNL     1      28.033   4.902  49.125  1.00  0.00    -0.209 NA
HETATM   20  H9  UNL     1      28.667   4.914  49.955  1.00  0.00     0.150 HD
HETATM   21  H10 UNL     1      27.350   5.713  49.275  1.00  0.00     0.150 HD
ENDBRANCH  18  19
ENDBRANCH   5  18
BRANCH   6  22
HETATM   22  O2  UNL     1      25.090   5.260  48.559  1.00  0.00    -0.353 OA
HETATM   23  C8  UNL     1      24.753   6.617  48.588  1.00  0.00     0.210 C 
ENDBRANCH   6  22
BRANCH   1  24
HETATM   24  C2  UNL     1      25.503  -0.317  52.992  1.00  0.00     0.119 C 
HETATM   25  C1  UNL     1      26.679  -0.288  52.106  1.00  0.00     0.026 C 
ENDBRANCH   1  24
TORSDOF 4
ENDMDL
MODEL 5
REMARK VINA RESULT:      -6.8      4.332      7.073
REMARK  4 active torsions:
REMARK  status: ('A' for Active; 'I' for Inactive)
REMARK    1  A    between atoms: C2_2  and  N1_3 
REMARK    2  A    between atoms: C6_7  and  O1_8 
REMARK    3  A    between atoms: O1_8  and  N2_9 
REMARK    4  A    between atoms: C7_10  and  O2_11 
ROOT
HETATM    1  N1  UNL     1      23.757   2.073  52.100  1.00  0.00    -0.375 N 
HETATM    2  C3  UNL     1      22.573   2.559  52.833  1.00  0.00     0.162 C 
HETATM    3  C4  UNL     1      21.508   1.519  52.827  1.00  0.00    -0.029 A 
HETATM    4  C5  UNL     1      20.597   1.898  51.870  1.00  0.00     0.051 A 
HETATM    5  C6  UNL     1      19.458   1.219  51.540  1.00  0.00     0.125 A 
HETATM    6  C7  UNL     1      19.219   0.036  52.253  1.00  0.00     0.104 A 
HETATM    7  C9  UNL     1      20.107  -0.385  53.224  1.00  0.00     0.049 A 
HETATM    8  C10 UNL     1      21.262   0.345  53.529  1.00  0.00    -0.030 A 
HETATM    9  C11 UNL     1      21.992  -0.360  54.598  1.00  0.00     0.159 C 
HETATM   10  N3  UNL     1      23.331  -0.605  54.167  1.00  0.00    -0.384 N 
HETATM   11  C12 UNL     1      24.404  -0.206  53.323  1.00  0.00     0.055 A 
HETATM   12  C13 UNL     1      25.422  -1.126  53.415  1.00  0.00     0.031 A 
HETATM   13  C14 UNL     1      26.593  -0.975  52.697  1.00  0.00     0.002 A 
HETATM   14  C15 UNL     1      26.724   0.111  51.887  1.00  0.00     0.002 A 
HETATM   15  C16 UNL     1      25.697   1.025  51.803  1.00  0.00     0.031 A 
HETATM   16  C17 UNL     1      24.495   0.910  52.512  1.00  0.00     0.057 A 
HETATM   17  H17 UNL     1      23.642  -1.440  54.724  1.00  0.00     0.160 HD
ENDROOT
BRANCH   5  18
HETATM   18  O1  UNL     1      18.505   1.537  50.595  1.00  0.00    -0.264 OA
BRANCH  18  19
HETATM   19  N2  UNL     1      18.286   0.684  49.549  1.00  0.00    -0.209 NA
HETATM   20  H9  UNL     1      19.163   0.143  49.375  1.00  0.00     0.150 HD
HETATM   21  H10 UNL     1      18.176   1.330  48.702  1.00  0.00     0.150 HD
ENDBRANCH  18  19
ENDBRANCH   5  18
BRANCH   6  22
HETATM   22  O2  UNL     1      18.091  -0.726  51.991  1.00  0.00    -0.353 OA
HETATM   23  C8  UNL     1      17.497  -1.460  53.023  1.00  0.00     0.210 C 
ENDBRANCH   6  22
BRANCH   1  24
HETATM   24  C2  UNL     1      24.218   2.773  50.926  1.00  0.00     0.119 C 
HETATM   25  C1  UNL     1      23.277   2.939  49.806  1.00  0.00     0.026 C 
ENDBRANCH   1  24
TORSDOF 4
ENDMDL
MODEL 6
REMARK VINA RESULT:      -6.8      3.820      5.238
REMARK  4 active torsions:
REMARK  status: ('A' for Active; 'I' for Inactive)
REMARK    1  A    between atoms: C2_2  and  N1_3 
REMARK    2  A    between atoms: C6_7  and  O1_8 
REMARK    3  A    between atoms: O1_8  and  N2_9 
REMARK    4  A    between atoms: C7_10  and  O2_11 
ROOT
HETATM    1  N1  UNL     1      23.570   2.532  52.193  1.00  0.00    -0.375 N 
HETATM    2  C3  UNL     1      23.541   1.111  51.798  1.00  0.00     0.162 C 
HETATM    3  C4  UNL     1      22.225   0.510  52.149  1.00  0.00    -0.029 A 
HETATM    4  C5  UNL     1      22.421  -0.209  53.304  1.00  0.00     0.051 A 
HETATM    5  C6  UNL     1      21.465  -0.922  53.971  1.00  0.00     0.125 A 
HETATM    6  C7  UNL     1      20.180  -0.902  53.409  1.00  0.00     0.104 A 
HETATM    7  C9  UNL     1      19.936  -0.193  52.249  1.00  0.00     0.049 A 
HETATM    8  C10 UNL     1      20.949   0.523  51.600  1.00  0.00    -0.030 A 
HETATM    9  C11 UNL     1      20.374   1.166  50.404  1.00  0.00     0.159 C 
HETATM   10  N3  UNL     1      20.636   2.568  50.455  1.00  0.00    -0.384 N 
HETATM   11  C12 UNL     1      21.473   3.608  50.946  1.00  0.00     0.055 A 
HETATM   12  C13 UNL     1      20.926   4.826  50.616  1.00  0.00     0.031 A 
HETATM   13  C14 UNL     1      21.545   6.010  50.971  1.00  0.00     0.002 A 
HETATM   14  C15 UNL     1      22.717   5.950  51.659  1.00  0.00     0.002 A 
HETATM   15  C16 UNL     1      23.254   4.725  51.985  1.00  0.00     0.031 A 
HETATM   16  C17 UNL     1      22.661   3.502  51.646  1.00  0.00     0.057 A 
HETATM   17  H17 UNL     1      19.876   3.002  49.873  1.00  0.00     0.160 HD
ENDROOT
BRANCH   5  18
HETATM   18  O1  UNL     1      21.588  -1.662  55.128  1.00  0.00    -0.264 OA
BRANCH  18  19
HETATM   19  N2  UNL     1      22.821  -1.814  55.699  1.00  0.00    -0.209 NA
HETATM   20  H9  UNL     1      22.700  -1.871  56.735  1.00  0.00     0.150 HD
HETATM   21  H10 UNL     1      23.311  -0.879  55.518  1.00  0.00     0.150 HD
ENDBRANCH  18  19
ENDBRANCH   5  18
BRANCH   6  22
HETATM   22  O2  UNL     1      19.140  -1.594  54.011  1.00  0.00    -0.353 OA
HETATM   23  C8  UNL     1      17.915  -1.717  53.348  1.00  0.00     0.210 C 
ENDBRANCH   6  22
BRANCH   1  24
HETATM   24  C2  UNL     1      24.537   2.996  53.156  1.00  0.00     0.119 C 
HETATM   25  C1  UNL     1      25.574   2.050  53.604  1.00  0.00     0.026 C 
ENDBRANCH   1  24
TORSDOF 4
ENDMDL
MODEL 7
REMARK VINA RESULT:      -6.7      2.964      6.598
REMARK  4 active torsions:
REMARK  status: ('A' for Active; 'I' for Inactive)
REMARK    1  A    between atoms: C2_2  and  N1_3 
REMARK    2  A    between atoms: C6_7  and  O1_8 
REMARK    3  A    between atoms: O1_8  and  N2_9 
REMARK    4  A    between atoms: C7_10  and  O2_11 
ROOT
HETATM    1  N1  UNL     1      23.494   1.372  51.572  1.00  0.00    -0.375 N 
HETATM    2  C3  UNL     1      23.159   2.125  50.349  1.00  0.00     0.162 C 
HETATM    3  C4  UNL     1      23.680   3.516  50.448  1.00  0.00    -0.029 A 
HETATM    4  C5  UNL     1      22.608   4.312  50.773  1.00  0.00     0.051 A 
HETATM    5  C6  UNL     1      22.647   5.665  50.960  1.00  0.00     0.125 A 
HETATM    6  C7  UNL     1      23.901   6.271  50.801  1.00  0.00     0.104 A 
HETATM    7  C9  UNL     1      25.007   5.512  50.474  1.00  0.00     0.049 A 
HETATM    8  C10 UNL     1      24.918   4.127  50.292  1.00  0.00    -0.030 A 
HETATM    9  C11 UNL     1      26.259   3.612  49.955  1.00  0.00     0.159 C 
HETATM   10  N3  UNL     1      26.607   2.576  50.873  1.00  0.00    -0.384 N 
HETATM   11  C12 UNL     1      26.146   1.569  51.766  1.00  0.00     0.055 A 
HETATM   12  C13 UNL     1      27.219   1.027  52.434  1.00  0.00     0.031 A 
HETATM   13  C14 UNL     1      27.051   0.018  53.363  1.00  0.00     0.002 A 
HETATM   14  C15 UNL     1      25.792  -0.437  53.608  1.00  0.00     0.002 A 
HETATM   15  C16 UNL     1      24.726   0.113  52.933  1.00  0.00     0.031 A 
HETATM   16  C17 UNL     1      24.851   1.137  51.985  1.00  0.00     0.057 A 
HETATM   17  H17 UNL     1      27.658   2.567  50.878  1.00  0.00     0.160 HD
ENDROOT
BRANCH   5  18
HETATM   18  O1  UNL     1      21.618   6.522  51.287  1.00  0.00    -0.264 OA
BRANCH  18  19
HETATM   19  N2  UNL     1      21.096   7.341  50.324  1.00  0.00    -0.209 NA
HETATM   20  H9  UNL     1      21.393   6.982  49.389  1.00  0.00     0.150 HD
HETATM   21  H10 UNL     1      21.619   8.267  50.454  1.00  0.00     0.150 HD
ENDBRANCH  18  19
ENDBRANCH   5  18
BRANCH   6  22
HETATM   22  O2  UNL     1      24.045   7.640  50.971  1.00  0.00    -0.353 OA
HETATM   23  C8  UNL     1      24.578   8.413  49.934  1.00  0.00     0.210 C 
ENDBRANCH   6  22
BRANCH   1  24
HETATM   24  C2  UNL     1      22.444   0.835  52.402  1.00  0.00     0.119 C 
HETATM   25  C1  UNL     1      21.228   0.335  51.739  1.00  0.00     0.026 C 
ENDBRANCH   1  24
TORSDOF 4
ENDMDL
MODEL 8
REMARK VINA RESULT:      -6.6      3.123      5.426
REMARK  4 active torsions:
REMARK  status: ('A' for Active; 'I' for Inactive)
REMARK    1  A    between atoms: C2_2  and  N1_3 
REMARK    2  A    between atoms: C6_7  and  O1_8 
REMARK    3  A    between atoms: O1_8  and  N2_9 
REMARK    4  A    between atoms: C7_10  and  O2_11 
ROOT
HETATM    1  N1  UNL     1      23.831   5.431  51.408  1.00  0.00    -0.375 N 
HETATM    2  C3  UNL     1      23.235   4.940  52.665  1.00  0.00     0.162 C 
HETATM    3  C4  UNL     1      22.604   3.610  52.446  1.00  0.00    -0.029 A 
HETATM    4  C5  UNL     1      21.253   3.833  52.337  1.00  0.00     0.051 A 
HETATM    5  C6  UNL     1      20.301   2.874  52.130  1.00  0.00     0.125 A 
HETATM    6  C7  UNL     1      20.768   1.557  52.022  1.00  0.00     0.104 A 
HETATM    7  C9  UNL     1      22.119   1.285  52.125  1.00  0.00     0.049 A 
HETATM    8  C10 UNL     1      23.058   2.301  52.338  1.00  0.00    -0.030 A 
HETATM    9  C11 UNL     1      24.400   1.693  52.399  1.00  0.00     0.159 C 
HETATM   10  N3  UNL     1      25.246   2.328  51.442  1.00  0.00    -0.384 N 
HETATM   11  C12 UNL     1      25.512   3.496  50.674  1.00  0.00     0.055 A 
HETATM   12  C13 UNL     1      26.550   3.243  49.807  1.00  0.00     0.031 A 
HETATM   13  C14 UNL     1      27.017   4.217  48.944  1.00  0.00     0.002 A 
HETATM   14  C15 UNL     1      26.427   5.443  48.967  1.00  0.00     0.002 A 
HETATM   15  C16 UNL     1      25.389   5.683  49.840  1.00  0.00     0.031 A 
HETATM   16  C17 UNL     1      24.885   4.726  50.729  1.00  0.00     0.057 A 
HETATM   17  H17 UNL     1      25.984   1.612  51.222  1.00  0.00     0.160 HD
ENDROOT
BRANCH   5  18
HETATM   18  O1  UNL     1      18.935   3.023  52.011  1.00  0.00    -0.264 OA
BRANCH  18  19
HETATM   19  N2  UNL     1      18.348   2.871  50.785  1.00  0.00    -0.209 NA
HETATM   20  H9  UNL     1      18.831   3.502  50.107  1.00  0.00     0.150 HD
HETATM   21  H10 UNL     1      17.367   3.283  50.911  1.00  0.00     0.150 HD
ENDBRANCH  18  19
ENDBRANCH   5  18
BRANCH   6  22
HETATM   22  O2  UNL     1      19.882   0.512  51.811  1.00  0.00    -0.353 OA
HETATM   23  C8  UNL     1      19.473  -0.279  52.890  1.00  0.00     0.210 C 
ENDBRANCH   6  22
BRANCH   1  24
HETATM   24  C2  UNL     1      23.365   6.661  50.818  1.00  0.00     0.119 C 
HETATM   25  C1  UNL     1      21.914   6.910  50.797  1.00  0.00     0.026 C 
ENDBRANCH   1  24
TORSDOF 4
ENDMDL
MODEL 9
REMARK VINA RESULT:      -6.6      4.086      6.323
REMARK  4 active torsions:
REMARK  status: ('A' for Active; 'I' for Inactive)
REMARK    1  A    between atoms: C2_2  and  N1_3 
REMARK    2  A    between atoms: C6_7  and  O1_8 
REMARK    3  A    between atoms: O1_8  and  N2_9 
REMARK    4  A    between atoms: C7_10  and  O2_11 
ROOT
HETATM    1  N1  UNL     1      30.093   7.471  48.319  1.00  0.00    -0.375 N 
HETATM    2  C3  UNL     1      29.388   6.517  47.444  1.00  0.00     0.162 C 
HETATM    3  C4  UNL     1      28.011   6.276  47.956  1.00  0.00    -0.029 A 
HETATM    4  C5  UNL     1      28.043   5.066  48.608  1.00  0.00     0.051 A 
HETATM    5  C6  UNL     1      26.984   4.466  49.228  1.00  0.00     0.125 A 
HETATM    6  C7  UNL     1      25.769   5.164  49.182  1.00  0.00     0.104 A 
HETATM    7  C9  UNL     1      25.688   6.383  48.538  1.00  0.00     0.049 A 
HETATM    8  C10 UNL     1      26.802   6.960  47.915  1.00  0.00    -0.030 A 
HETATM    9  C11 UNL     1      26.394   8.248  47.325  1.00  0.00     0.159 C 
HETATM   10  N3  UNL     1      27.246   9.280  47.819  1.00  0.00    -0.384 N 
HETATM   11  C12 UNL     1      28.516   9.620  48.361  1.00  0.00     0.055 A 
HETATM   12  C13 UNL     1      28.514  10.947  48.728  1.00  0.00     0.031 A 
HETATM   13  C14 UNL     1      29.633  11.540  49.281  1.00  0.00     0.002 A 
HETATM   14  C15 UNL     1      30.750  10.783  49.458  1.00  0.00     0.002 A 
HETATM   15  C16 UNL     1      30.740   9.457  49.088  1.00  0.00     0.031 A 
HETATM   16  C17 UNL     1      29.628   8.816  48.525  1.00  0.00     0.057 A 
HETATM   17  H17 UNL     1      26.675  10.159  47.739  1.00  0.00     0.160 HD
ENDROOT
BRANCH   5  18
HETATM   18  O1  UNL     1      26.943   3.262  49.899  1.00  0.00    -0.264 OA
BRANCH  18  19
HETATM   19  N2  UNL     1      27.067   3.248  51.261  1.00  0.00    -0.209 NA
HETATM   20  H9  UNL     1      27.245   2.265  51.565  1.00  0.00     0.150 HD
HETATM   21  H10 UNL     1      26.085   3.484  51.616  1.00  0.00     0.150 HD
ENDBRANCH  18  19
ENDBRANCH   5  18
BRANCH   6  22
HETATM   22  O2  UNL     1      24.634   4.640  49.783  1.00  0.00    -0.353 OA
HETATM   23  C8  UNL     1      24.050   5.311  50.862  1.00  0.00     0.210 C 
ENDBRANCH   6  22
BRANCH   1  24
HETATM   24  C2  UNL     1      31.298   7.071  49.003  1.00  0.00     0.119 C 
HETATM   25  C1  UNL     1      31.803   5.708  48.772  1.00  0.00     0.026 C 
ENDBRANCH   1  24
TORSDOF 4
ENDMDL
