MODEL 1
REMARK VINA RESULT:      -7.8      0.000      0.000
REMARK  8 active torsions:
REMARK  status: ('A' for Active; 'I' for Inactive)
REMARK    1  A    between atoms: O1_1  and  C1_2 
REMARK    2  A    between atoms: C5_8  and  C6_9 
REMARK    3  A    between atoms: C6_9  and  N3_10 
REMARK    4  A    between atoms: N3_10  and  C7_11 
REMARK    5  A    between atoms: C15_20  and  O2_21 
REMARK    6  A    between atoms: O2_21  and  C16_22 
REMARK    7  A    between atoms: C16_22  and  C17_23 
REMARK    8  A    between atoms: C17_23  and  C18_24 
ROOT
HETATM    1  C1  UNL     1      26.153  -0.029  53.832  1.00  0.00     0.100 C 
HETATM    2  C2  UNL     1      26.389  -0.618  52.606  1.00  0.00     0.058 C 
HETATM    3  C3  UNL     1      26.492   0.189  51.512  1.00  0.00     0.121 C 
HETATM    4  N1  UNL     1      26.942   1.442  51.601  1.00  0.00    -0.254 NA
HETATM    5  C4  UNL     1      26.453   2.423  50.796  1.00  0.00     0.232 C 
HETATM    6  N2  UNL     1      25.358   3.128  51.195  1.00  0.00    -0.245 NA
HETATM    7  C5  UNL     1      24.453   2.435  51.934  1.00  0.00     0.053 C 
HETATM    8  C13 UNL     1      24.695   2.721  53.242  1.00  0.00     0.032 C 
HETATM    9  C14 UNL     1      25.559   2.393  54.227  1.00  0.00     0.041 C 
HETATM   10  C15 UNL     1      26.355   1.275  54.231  1.00  0.00     0.101 C 
ENDROOT
BRANCH   7  11
HETATM   11  C6  UNL     1      23.531   1.620  51.129  1.00  0.00     0.179 C 
BRANCH  11  12
HETATM   12  N3  UNL     1      22.215   1.471  51.710  1.00  0.00    -0.384 N 
HETATM   13  H7  UNL     1      21.542   2.252  51.452  1.00  0.00     0.160 HD
BRANCH  12  14
HETATM   14  C7  UNL     1      21.694   0.463  52.555  1.00  0.00     0.029 A 
HETATM   15  C8  UNL     1      22.523  -0.237  53.437  1.00  0.00     0.029 A 
HETATM   16  C9  UNL     1      21.992  -1.204  54.259  1.00  0.00     0.004 A 
HETATM   17  C10 UNL     1      20.654  -1.524  54.258  1.00  0.00     0.024 A 
HETATM   18  C11 UNL     1      19.809  -0.857  53.406  1.00  0.00     0.036 A 
HETATM   19 CL1  UNL     1      18.100  -1.242  53.382  1.00  0.00    -0.084 Cl
HETATM   20  C12 UNL     1      20.365   0.106  52.593  1.00  0.00     0.052 A 
ENDBRANCH  12  14
ENDBRANCH  11  12
ENDBRANCH   7  11
BRANCH  10  21
HETATM   21  O2  UNL     1      27.653   1.332  54.712  1.00  0.00    -0.348 OA
BRANCH  21  22
HETATM   22  C16 UNL     1      28.521   0.253  54.846  1.00  0.00     0.178 C 
BRANCH  22  23
HETATM   23  C17 UNL     1      29.670   0.293  53.883  1.00  0.00     0.058 C 
BRANCH  23  24
HETATM   24  C18 UNL     1      29.885  -1.164  53.451  1.00  0.00     0.224 C 
HETATM   25  F1  UNL     1      30.887  -1.718  54.220  1.00  0.00    -0.255 F 
ENDBRANCH  23  24
ENDBRANCH  22  23
ENDBRANCH  21  22
ENDBRANCH  10  21
BRANCH   1  26
HETATM   26  O1  UNL     1      25.642  -0.640  54.971  1.00  0.00    -0.358 OA
HETATM   27  H1  UNL     1      26.237  -1.341  55.391  1.00  0.00     0.217 HD
ENDBRANCH   1  26
TORSDOF 8
ENDMDL
MODEL 2
REMARK VINA RESULT:      -7.4      8.925     10.087
REMARK  8 active torsions:
REMARK  status: ('A' for Active; 'I' for Inactive)
REMARK    1  A    between atoms: O1_1  and  C1_2 
REMARK    2  A    between atoms: C5_8  and  C6_9 
REMARK    3  A    between atoms: C6_9  and  N3_10 
REMARK    4  A    between atoms: N3_10  and  C7_11 
REMARK    5  A    between atoms: C15_20  and  O2_21 
REMARK    6  A    between atoms: O2_21  and  C16_22 
REMARK    7  A    between atoms: C16_22  and  C17_23 
REMARK    8  A    between atoms: C17_23  and  C18_24 
ROOT
HETATM    1  C1  UNL     1      29.241   6.065  48.258  1.00  0.00     0.100 C 
HETATM    2  C2  UNL     1      28.721   6.962  47.347  1.00  0.00     0.058 C 
HETATM    3  C3  UNL     1      29.553   7.907  46.823  1.00  0.00     0.121 C 
HETATM    4  N1  UNL     1      30.861   7.688  46.675  1.00  0.00    -0.254 NA
HETATM    5  C4  UNL     1      31.762   8.695  46.828  1.00  0.00     0.232 C 
HETATM    6  N2  UNL     1      32.272   8.951  48.066  1.00  0.00    -0.245 NA
HETATM    7  C5  UNL     1      31.427   8.724  49.104  1.00  0.00     0.053 C 
HETATM    8  C13 UNL     1      31.725   7.495  49.606  1.00  0.00     0.032 C 
HETATM    9  C14 UNL     1      31.526   6.190  49.326  1.00  0.00     0.041 C 
HETATM   10  C15 UNL     1      30.553   5.708  48.484  1.00  0.00     0.101 C 
ENDROOT
BRANCH   7  11
HETATM   11  C6  UNL     1      30.486   9.826  49.355  1.00  0.00     0.179 C 
BRANCH  11  12
HETATM   12  N3  UNL     1      29.283   9.427  50.051  1.00  0.00    -0.384 N 
HETATM   13  H7  UNL     1      29.463   8.978  50.997  1.00  0.00     0.160 HD
BRANCH  12  14
HETATM   14  C7  UNL     1      27.924   9.541  49.672  1.00  0.00     0.029 A 
HETATM   15  C8  UNL     1      27.523  10.454  48.692  1.00  0.00     0.029 A 
HETATM   16  C9  UNL     1      26.199  10.537  48.331  1.00  0.00     0.004 A 
HETATM   17  C10 UNL     1      25.225   9.748  48.898  1.00  0.00     0.024 A 
HETATM   18  C11 UNL     1      25.581   8.839  49.864  1.00  0.00     0.036 A 
HETATM   19 CL1  UNL     1      24.364   7.819  50.603  1.00  0.00    -0.084 Cl
HETATM   20  C12 UNL     1      26.913   8.775  50.208  1.00  0.00     0.052 A 
ENDBRANCH  12  14
ENDBRANCH  11  12
ENDBRANCH   7  11
BRANCH  10  21
HETATM   21  O2  UNL     1      30.814   4.644  47.637  1.00  0.00    -0.348 OA
BRANCH  21  22
HETATM   22  C16 UNL     1      32.063   4.081  47.395  1.00  0.00     0.178 C 
BRANCH  22  23
HETATM   23  C17 UNL     1      32.012   2.900  46.472  1.00  0.00     0.058 C 
BRANCH  23  24
HETATM   24  C18 UNL     1      32.829   1.806  47.174  1.00  0.00     0.224 C 
HETATM   25  F1  UNL     1      32.426   0.573  46.706  1.00  0.00    -0.255 F 
ENDBRANCH  23  24
ENDBRANCH  22  23
ENDBRANCH  21  22
ENDBRANCH  10  21
BRANCH   1  26
HETATM   26  O1  UNL     1      28.535   5.300  49.178  1.00  0.00    -0.358 OA
HETATM   27  H1  UNL     1      28.744   4.311  49.172  1.00  0.00     0.217 HD
ENDBRANCH   1  26
TORSDOF 8
ENDMDL
MODEL 3
REMARK VINA RESULT:      -7.3      4.877      6.599
REMARK  8 active torsions:
REMARK  status: ('A' for Active; 'I' for Inactive)
REMARK    1  A    between atoms: O1_1  and  C1_2 
REMARK    2  A    between atoms: C5_8  and  C6_9 
REMARK    3  A    between atoms: C6_9  and  N3_10 
REMARK    4  A    between atoms: N3_10  and  C7_11 
REMARK    5  A    between atoms: C15_20  and  O2_21 
REMARK    6  A    between atoms: O2_21  and  C16_22 
REMARK    7  A    between atoms: C16_22  and  C17_23 
REMARK    8  A    between atoms: C17_23  and  C18_24 
ROOT
HETATM    1  C1  UNL     1      26.069   4.578  49.517  1.00  0.00     0.100 C 
HETATM    2  C2  UNL     1      25.238   3.500  49.289  1.00  0.00     0.058 C 
HETATM    3  C3  UNL     1      23.890   3.700  49.349  1.00  0.00     0.121 C 
HETATM    4  N1  UNL     1      23.339   4.877  49.047  1.00  0.00    -0.254 NA
HETATM    5  C4  UNL     1      22.230   5.321  49.697  1.00  0.00     0.232 C 
HETATM    6  N2  UNL     1      22.375   6.046  50.842  1.00  0.00    -0.245 NA
HETATM    7  C5  UNL     1      23.446   5.718  51.611  1.00  0.00     0.053 C 
HETATM    8  C13 UNL     1      24.436   6.605  51.324  1.00  0.00     0.032 C 
HETATM    9  C14 UNL     1      25.359   6.847  50.369  1.00  0.00     0.041 C 
HETATM   10  C15 UNL     1      25.794   5.928  49.446  1.00  0.00     0.101 C 
ENDROOT
BRANCH   7  11
HETATM   11  C6  UNL     1      23.217   4.552  52.477  1.00  0.00     0.179 C 
BRANCH  11  12
HETATM   12  N3  UNL     1      24.428   3.877  52.890  1.00  0.00    -0.384 N 
HETATM   13  H7  UNL     1      25.259   4.527  53.014  1.00  0.00     0.160 HD
BRANCH  12  14
HETATM   14  C7  UNL     1      24.672   2.508  53.151  1.00  0.00     0.029 A 
HETATM   15  C8  UNL     1      23.744   1.528  52.781  1.00  0.00     0.029 A 
HETATM   16  C9  UNL     1      24.009   0.202  53.032  1.00  0.00     0.004 A 
HETATM   17  C10 UNL     1      25.167  -0.220  53.642  1.00  0.00     0.024 A 
HETATM   18  C11 UNL     1      26.101   0.713  54.020  1.00  0.00     0.036 A 
HETATM   19 CL1  UNL     1      27.587   0.207  54.798  1.00  0.00    -0.084 Cl
HETATM   20  C12 UNL     1      25.813   2.035  53.758  1.00  0.00     0.052 A 
ENDBRANCH  12  14
ENDBRANCH  11  12
ENDBRANCH   7  11
BRANCH  10  21
HETATM   21  O2  UNL     1      26.047   6.303  48.138  1.00  0.00    -0.348 OA
BRANCH  21  22
HETATM   22  C16 UNL     1      26.693   7.468  47.734  1.00  0.00     0.178 C 
BRANCH  22  23
HETATM   23  C17 UNL     1      28.136   7.255  47.383  1.00  0.00     0.058 C 
BRANCH  23  24
HETATM   24  C18 UNL     1      28.926   7.825  48.569  1.00  0.00     0.224 C 
HETATM   25  F1  UNL     1      28.062   8.503  49.403  1.00  0.00    -0.255 F 
ENDBRANCH  23  24
ENDBRANCH  22  23
ENDBRANCH  21  22
ENDBRANCH  10  21
BRANCH   1  26
HETATM   26  O1  UNL     1      27.410   4.541  49.881  1.00  0.00    -0.358 OA
HETATM   27  H1  UNL     1      27.795   5.416  50.210  1.00  0.00     0.217 HD
ENDBRANCH   1  26
TORSDOF 8
ENDMDL
MODEL 4
REMARK VINA RESULT:      -7.2      4.643      7.174
REMARK  8 active torsions:
REMARK  status: ('A' for Active; 'I' for Inactive)
REMARK    1  A    between atoms: O1_1  and  C1_2 
REMARK    2  A    between atoms: C5_8  and  C6_9 
REMARK    3  A    between atoms: C6_9  and  N3_10 
REMARK    4  A    between atoms: N3_10  and  C7_11 
REMARK    5  A    between atoms: C15_20  and  O2_21 
REMARK    6  A    between atoms: O2_21  and  C16_22 
REMARK    7  A    between atoms: C16_22  and  C17_23 
REMARK    8  A    between atoms: C17_23  and  C18_24 
ROOT
HETATM    1  C1  UNL     1      25.677   2.432  53.221  1.00  0.00     0.100 C 
HETATM    2  C2  UNL     1      24.423   2.963  53.444  1.00  0.00     0.058 C 
HETATM    3  C3  UNL     1      23.587   3.113  52.377  1.00  0.00     0.121 C 
HETATM    4  N1  UNL     1      23.648   2.307  51.316  1.00  0.00    -0.254 NA
HETATM    5  C4  UNL     1      23.388   2.772  50.065  1.00  0.00     0.232 C 
HETATM    6  N2  UNL     1      24.405   3.295  49.324  1.00  0.00    -0.245 NA
HETATM    7  C5  UNL     1      25.370   3.941  50.028  1.00  0.00     0.053 C 
HETATM    8  C13 UNL     1      26.397   3.066  50.202  1.00  0.00     0.032 C 
HETATM    9  C14 UNL     1      26.730   2.004  50.966  1.00  0.00     0.041 C 
HETATM   10  C15 UNL     1      26.135   1.679  52.160  1.00  0.00     0.101 C 
ENDROOT
BRANCH   7  11
HETATM   11  C6  UNL     1      25.022   5.327  50.377  1.00  0.00     0.179 C 
BRANCH  11  12
HETATM   12  N3  UNL     1      26.088   6.277  50.148  1.00  0.00    -0.384 N 
HETATM   13  H7  UNL     1      26.606   6.562  51.031  1.00  0.00     0.160 HD
BRANCH  12  14
HETATM   14  C7  UNL     1      26.539   6.879  48.948  1.00  0.00     0.029 A 
HETATM   15  C8  UNL     1      25.662   7.599  48.130  1.00  0.00     0.029 A 
HETATM   16  C9  UNL     1      26.126   8.185  46.976  1.00  0.00     0.004 A 
HETATM   17  C10 UNL     1      27.439   8.098  46.576  1.00  0.00     0.024 A 
HETATM   18  C11 UNL     1      28.329   7.400  47.354  1.00  0.00     0.036 A 
HETATM   19 CL1  UNL     1      30.008   7.272  46.872  1.00  0.00    -0.084 Cl
HETATM   20  C12 UNL     1      27.841   6.821  48.505  1.00  0.00     0.052 A 
ENDBRANCH  12  14
ENDBRANCH  11  12
ENDBRANCH   7  11
BRANCH  10  21
HETATM   21  O2  UNL     1      25.887   0.358  52.492  1.00  0.00    -0.348 OA
BRANCH  21  22
HETATM   22  C16 UNL     1      26.795  -0.692  52.391  1.00  0.00     0.178 C 
BRANCH  22  23
HETATM   23  C17 UNL     1      27.583  -0.918  53.646  1.00  0.00     0.058 C 
BRANCH  23  24
HETATM   24  C18 UNL     1      28.970  -0.324  53.363  1.00  0.00     0.224 C 
HETATM   25  F1  UNL     1      29.827  -1.339  52.993  1.00  0.00    -0.255 F 
ENDBRANCH  23  24
ENDBRANCH  22  23
ENDBRANCH  21  22
ENDBRANCH  10  21
BRANCH   1  26
HETATM   26  O1  UNL     1      26.793   2.542  54.043  1.00  0.00    -0.358 OA
HETATM   27  H1  UNL     1      26.600   2.568  55.035  1.00  0.00     0.217 HD
ENDBRANCH   1  26
TORSDOF 8
ENDMDL
MODEL 5
REMARK VINA RESULT:      -7.2      4.217      7.077
REMARK  8 active torsions:
REMARK  status: ('A' for Active; 'I' for Inactive)
REMARK    1  A    between atoms: O1_1  and  C1_2 
REMARK    2  A    between atoms: C5_8  and  C6_9 
REMARK    3  A    between atoms: C6_9  and  N3_10 
REMARK    4  A    between atoms: N3_10  and  C7_11 
REMARK    5  A    between atoms: C15_20  and  O2_21 
REMARK    6  A    between atoms: O2_21  and  C16_22 
REMARK    7  A    between atoms: C16_22  and  C17_23 
REMARK    8  A    between atoms: C17_23  and  C18_24 
ROOT
HETATM    1  C1  UNL     1      21.139   3.502  52.013  1.00  0.00     0.100 C 
HETATM    2  C2  UNL     1      21.813   4.687  52.223  1.00  0.00     0.058 C 
HETATM    3  C3  UNL     1      23.060   4.825  51.687  1.00  0.00     0.121 C 
HETATM    4  N1  UNL     1      23.418   4.194  50.568  1.00  0.00    -0.254 NA
HETATM    5  C4  UNL     1      24.691   3.751  50.389  1.00  0.00     0.232 C 
HETATM    6  N2  UNL     1      25.028   2.502  50.818  1.00  0.00    -0.245 NA
HETATM    7  C5  UNL     1      24.381   2.072  51.933  1.00  0.00     0.053 C 
HETATM    8  C13 UNL     1      23.350   1.286  51.523  1.00  0.00     0.032 C 
HETATM    9  C14 UNL     1      22.109   1.400  51.003  1.00  0.00     0.041 C 
HETATM   10  C15 UNL     1      21.341   2.537  51.048  1.00  0.00     0.101 C 
ENDROOT
BRANCH   7  11
HETATM   11  C6  UNL     1      24.967   2.571  53.186  1.00  0.00     0.179 C 
BRANCH  11  12
HETATM   12  N3  UNL     1      26.413   2.555  53.209  1.00  0.00    -0.384 N 
HETATM   13  H7  UNL     1      26.854   3.519  53.139  1.00  0.00     0.160 HD
BRANCH  12  14
HETATM   14  C7  UNL     1      27.316   1.470  53.308  1.00  0.00     0.029 A 
HETATM   15  C8  UNL     1      28.616   1.656  53.790  1.00  0.00     0.029 A 
HETATM   16  C9  UNL     1      29.472   0.584  53.889  1.00  0.00     0.004 A 
HETATM   17  C10 UNL     1      29.105  -0.693  53.532  1.00  0.00     0.024 A 
HETATM   18  C11 UNL     1      27.837  -0.915  53.055  1.00  0.00     0.036 A 
HETATM   19 CL1  UNL     1      27.340  -2.529  52.593  1.00  0.00    -0.084 Cl
HETATM   20  C12 UNL     1      26.999   0.175  52.964  1.00  0.00     0.052 A 
ENDBRANCH  12  14
ENDBRANCH  11  12
ENDBRANCH   7  11
BRANCH  10  21
HETATM   21  O2  UNL     1      20.559   2.906  49.966  1.00  0.00    -0.348 OA
BRANCH  21  22
HETATM   22  C16 UNL     1      20.466   2.225  48.756  1.00  0.00     0.178 C 
BRANCH  22  23
HETATM   23  C17 UNL     1      20.557   3.125  47.560  1.00  0.00     0.058 C 
BRANCH  23  24
HETATM   24  C18 UNL     1      22.006   2.999  47.071  1.00  0.00     0.224 C 
HETATM   25  F1  UNL     1      22.656   2.046  47.827  1.00  0.00    -0.255 F 
ENDBRANCH  23  24
ENDBRANCH  22  23
ENDBRANCH  21  22
ENDBRANCH  10  21
BRANCH   1  26
HETATM   26  O1  UNL     1      20.073   3.001  52.751  1.00  0.00    -0.358 OA
HETATM   27  H1  UNL     1      19.997   3.350  53.696  1.00  0.00     0.217 HD
ENDBRANCH   1  26
TORSDOF 8
ENDMDL
MODEL 6
REMARK VINA RESULT:      -7.2      4.229      6.865
REMARK  8 active torsions:
REMARK  status: ('A' for Active; 'I' for Inactive)
REMARK    1  A    between atoms: O1_1  and  C1_2 
REMARK    2  A    between atoms: C5_8  and  C6_9 
REMARK    3  A    between atoms: C6_9  and  N3_10 
REMARK    4  A    between atoms: N3_10  and  C7_11 
REMARK    5  A    between atoms: C15_20  and  O2_21 
REMARK    6  A    between atoms: O2_21  and  C16_22 
REMARK    7  A    between atoms: C16_22  and  C17_23 
REMARK    8  A    between atoms: C17_23  and  C18_24 
ROOT
HETATM    1  C1  UNL     1      24.118   3.361  52.640  1.00  0.00     0.100 C 
HETATM    2  C2  UNL     1      23.475   4.531  52.991  1.00  0.00     0.058 C 
HETATM    3  C3  UNL     1      22.246   4.778  52.454  1.00  0.00     0.121 C 
HETATM    4  N1  UNL     1      21.416   3.792  52.111  1.00  0.00    -0.254 NA
HETATM    5  C4  UNL     1      20.589   3.910  51.039  1.00  0.00     0.232 C 
HETATM    6  N2  UNL     1      21.035   3.529  49.808  1.00  0.00    -0.245 NA
HETATM    7  C5  UNL     1      22.361   3.717  49.583  1.00  0.00     0.053 C 
HETATM    8  C13 UNL     1      22.981   2.527  49.803  1.00  0.00     0.032 C 
HETATM    9  C14 UNL     1      23.397   1.755  50.830  1.00  0.00     0.041 C 
HETATM   10  C15 UNL     1      23.596   2.198  52.114  1.00  0.00     0.101 C 
ENDROOT
BRANCH   7  11
HETATM   11  C6  UNL     1      22.705   5.092  49.190  1.00  0.00     0.179 C 
BRANCH  11  12
HETATM   12  N3  UNL     1      23.925   5.589  49.790  1.00  0.00    -0.384 N 
HETATM   13  H7  UNL     1      23.778   6.068  50.726  1.00  0.00     0.160 HD
BRANCH  12  14
HETATM   14  C7  UNL     1      25.261   5.536  49.327  1.00  0.00     0.029 A 
HETATM   15  C8  UNL     1      26.038   4.385  49.495  1.00  0.00     0.029 A 
HETATM   16  C9  UNL     1      27.330   4.354  49.026  1.00  0.00     0.004 A 
HETATM   17  C10 UNL     1      27.911   5.421  48.383  1.00  0.00     0.024 A 
HETATM   18  C11 UNL     1      27.180   6.569  48.198  1.00  0.00     0.036 A 
HETATM   19 CL1  UNL     1      27.892   7.945  47.382  1.00  0.00    -0.084 Cl
HETATM   20  C12 UNL     1      25.888   6.576  48.678  1.00  0.00     0.052 A 
ENDBRANCH  12  14
ENDBRANCH  11  12
ENDBRANCH   7  11
BRANCH  10  21
HETATM   21  O2  UNL     1      23.245   1.410  53.197  1.00  0.00    -0.348 OA
BRANCH  21  22
HETATM   22  C16 UNL     1      23.585   0.073  53.378  1.00  0.00     0.178 C 
BRANCH  22  23
HETATM   23  C17 UNL     1      24.964  -0.118  53.936  1.00  0.00     0.058 C 
BRANCH  23  24
HETATM   24  C18 UNL     1      25.754  -0.824  52.826  1.00  0.00     0.224 C 
HETATM   25  F1  UNL     1      26.396   0.124  52.057  1.00  0.00    -0.255 F 
ENDBRANCH  23  24
ENDBRANCH  22  23
ENDBRANCH  21  22
ENDBRANCH  10  21
BRANCH   1  26
HETATM   26  O1  UNL     1      25.477   3.087  52.743  1.00  0.00    -0.358 OA
HETATM   27  H1  UNL     1      26.058   3.869  53.012  1.00  0.00     0.217 HD
ENDBRANCH   1  26
TORSDOF 8
ENDMDL
MODEL 7
REMARK VINA RESULT:      -7.1      4.796      7.350
REMARK  8 active torsions:
REMARK  status: ('A' for Active; 'I' for Inactive)
REMARK    1  A    between atoms: O1_1  and  C1_2 
REMARK    2  A    between atoms: C5_8  and  C6_9 
REMARK    3  A    between atoms: C6_9  and  N3_10 
REMARK    4  A    between atoms: N3_10  and  C7_11 
REMARK    5  A    between atoms: C15_20  and  O2_21 
REMARK    6  A    between atoms: O2_21  and  C16_22 
REMARK    7  A    between atoms: C16_22  and  C17_23 
REMARK    8  A    between atoms: C17_23  and  C18_24 
ROOT
HETATM    1  C1  UNL     1      24.022   3.307  52.635  1.00  0.00     0.100 C 
HETATM    2  C2  UNL     1      23.430   4.499  53.001  1.00  0.00     0.058 C 
HETATM    3  C3  UNL     1      22.214   4.807  52.465  1.00  0.00     0.121 C 
HETATM    4  N1  UNL     1      21.342   3.863  52.108  1.00  0.00    -0.254 NA
HETATM    5  C4  UNL     1      20.523   4.032  51.036  1.00  0.00     0.232 C 
HETATM    6  N2  UNL     1      20.954   3.649  49.801  1.00  0.00    -0.245 NA
HETATM    7  C5  UNL     1      22.288   3.782  49.580  1.00  0.00     0.053 C 
HETATM    8  C13 UNL     1      22.855   2.563  49.785  1.00  0.00     0.032 C 
HETATM    9  C14 UNL     1      23.235   1.759  50.802  1.00  0.00     0.041 C 
HETATM   10  C15 UNL     1      23.450   2.176  52.092  1.00  0.00     0.101 C 
ENDROOT
BRANCH   7  11
HETATM   11  C6  UNL     1      22.693   5.145  49.207  1.00  0.00     0.179 C 
BRANCH  11  12
HETATM   12  N3  UNL     1      23.929   5.582  49.819  1.00  0.00    -0.384 N 
HETATM   13  H7  UNL     1      23.797   6.051  50.763  1.00  0.00     0.160 HD
BRANCH  12  14
HETATM   14  C7  UNL     1      25.264   5.483  49.360  1.00  0.00     0.029 A 
HETATM   15  C8  UNL     1      25.999   4.305  49.532  1.00  0.00     0.029 A 
HETATM   16  C9  UNL     1      27.290   4.227  49.066  1.00  0.00     0.004 A 
HETATM   17  C10 UNL     1      27.911   5.274  48.424  1.00  0.00     0.024 A 
HETATM   18  C11 UNL     1      27.221   6.446  48.237  1.00  0.00     0.036 A 
HETATM   19 CL1  UNL     1      27.984   7.796  47.423  1.00  0.00    -0.084 Cl
HETATM   20  C12 UNL     1      25.929   6.499  48.713  1.00  0.00     0.052 A 
ENDBRANCH  12  14
ENDBRANCH  11  12
ENDBRANCH   7  11
BRANCH  10  21
HETATM   21  O2  UNL     1      23.063   1.389  53.164  1.00  0.00    -0.348 OA
BRANCH  21  22
HETATM   22  C16 UNL     1      23.421   0.060  53.372  1.00  0.00     0.178 C 
BRANCH  22  23
HETATM   23  C17 UNL     1      22.512  -0.657  54.326  1.00  0.00     0.058 C 
BRANCH  23  24
HETATM   24  C18 UNL     1      21.105  -0.130  54.013  1.00  0.00     0.224 C 
HETATM   25  F1  UNL     1      20.644   0.592  55.093  1.00  0.00    -0.255 F 
ENDBRANCH  23  24
ENDBRANCH  22  23
ENDBRANCH  21  22
ENDBRANCH  10  21
BRANCH   1  26
HETATM   26  O1  UNL     1      25.367   2.973  52.736  1.00  0.00    -0.358 OA
HETATM   27  H1  UNL     1      25.806   3.203  53.617  1.00  0.00     0.217 HD
ENDBRANCH   1  26
TORSDOF 8
ENDMDL
MODEL 8
REMARK VINA RESULT:      -7.0      5.241      7.092
REMARK  8 active torsions:
REMARK  status: ('A' for Active; 'I' for Inactive)
REMARK    1  A    between atoms: O1_1  and  C1_2 
REMARK    2  A    between atoms: C5_8  and  C6_9 
REMARK    3  A    between atoms: C6_9  and  N3_10 
REMARK    4  A    between atoms: N3_10  and  C7_11 
REMARK    5  A    between atoms: C15_20  and  O2_21 
REMARK    6  A    between atoms: O2_21  and  C16_22 
REMARK    7  A    between atoms: C16_22  and  C17_23 
REMARK    8  A    between atoms: C17_23  and  C18_24 
ROOT
HETATM    1  C1  UNL     1      26.009   4.566  49.517  1.00  0.00     0.100 C 
HETATM    2  C2  UNL     1      25.138   3.521  49.284  1.00  0.00     0.058 C 
HETATM    3  C3  UNL     1      23.799   3.772  49.337  1.00  0.00     0.121 C 
HETATM    4  N1  UNL     1      23.295   4.969  49.031  1.00  0.00    -0.254 NA
HETATM    5  C4  UNL     1      22.200   5.455  49.675  1.00  0.00     0.232 C 
HETATM    6  N2  UNL     1      22.366   6.174  50.821  1.00  0.00    -0.245 NA
HETATM    7  C5  UNL     1      23.419   5.805  51.596  1.00  0.00     0.053 C 
HETATM    8  C13 UNL     1      24.445   6.653  51.315  1.00  0.00     0.032 C 
HETATM    9  C14 UNL     1      25.382   6.860  50.365  1.00  0.00     0.041 C 
HETATM   10  C15 UNL     1      25.786   5.925  49.445  1.00  0.00     0.101 C 
ENDROOT
BRANCH   7  11
HETATM   11  C6  UNL     1      23.141   4.648  52.461  1.00  0.00     0.179 C 
BRANCH  11  12
HETATM   12  N3  UNL     1      24.327   3.994  52.970  1.00  0.00    -0.384 N 
HETATM   13  H7  UNL     1      25.106   4.666  53.236  1.00  0.00     0.160 HD
BRANCH  12  14
HETATM   14  C7  UNL     1      24.604   2.620  53.166  1.00  0.00     0.029 A 
HETATM   15  C8  UNL     1      23.707   1.636  52.737  1.00  0.00     0.029 A 
HETATM   16  C9  UNL     1      24.004   0.307  52.926  1.00  0.00     0.004 A 
HETATM   17  C10 UNL     1      25.166  -0.114  53.529  1.00  0.00     0.024 A 
HETATM   18  C11 UNL     1      26.071   0.823  53.962  1.00  0.00     0.036 A 
HETATM   19 CL1  UNL     1      27.561   0.317  54.733  1.00  0.00    -0.084 Cl
HETATM   20  C12 UNL     1      25.751   2.147  53.762  1.00  0.00     0.052 A 
ENDBRANCH  12  14
ENDBRANCH  11  12
ENDBRANCH   7  11
BRANCH  10  21
HETATM   21  O2  UNL     1      26.060   6.291  48.138  1.00  0.00    -0.348 OA
BRANCH  21  22
HETATM   22  C16 UNL     1      26.256   7.589  47.678  1.00  0.00     0.178 C 
BRANCH  22  23
HETATM   23  C17 UNL     1      25.280   7.996  46.615  1.00  0.00     0.058 C 
BRANCH  23  24
HETATM   24  C18 UNL     1      24.281   8.924  47.319  1.00  0.00     0.224 C 
HETATM   25  F1  UNL     1      23.436   8.165  48.102  1.00  0.00    -0.255 F 
ENDBRANCH  23  24
ENDBRANCH  22  23
ENDBRANCH  21  22
ENDBRANCH  10  21
BRANCH   1  26
HETATM   26  O1  UNL     1      27.345   4.478  49.887  1.00  0.00    -0.358 OA
HETATM   27  H1  UNL     1      27.893   5.314  49.738  1.00  0.00     0.217 HD
ENDBRANCH   1  26
TORSDOF 8
ENDMDL
MODEL 9
REMARK VINA RESULT:      -7.0      5.064      7.574
REMARK  8 active torsions:
REMARK  status: ('A' for Active; 'I' for Inactive)
REMARK    1  A    between atoms: O1_1  and  C1_2 
REMARK    2  A    between atoms: C5_8  and  C6_9 
REMARK    3  A    between atoms: C6_9  and  N3_10 
REMARK    4  A    between atoms: N3_10  and  C7_11 
REMARK    5  A    between atoms: C15_20  and  O2_21 
REMARK    6  A    between atoms: O2_21  and  C16_22 
REMARK    7  A    between atoms: C16_22  and  C17_23 
REMARK    8  A    between atoms: C17_23  and  C18_24 
ROOT
HETATM    1  C1  UNL     1      24.658   4.564  50.273  1.00  0.00     0.100 C 
HETATM    2  C2  UNL     1      24.397   3.587  49.334  1.00  0.00     0.058 C 
HETATM    3  C3  UNL     1      23.392   2.700  49.587  1.00  0.00     0.121 C 
HETATM    4  N1  UNL     1      22.333   3.029  50.328  1.00  0.00    -0.254 NA
HETATM    5  C4  UNL     1      21.728   2.115  51.132  1.00  0.00     0.232 C 
HETATM    6  N2  UNL     1      22.170   1.958  52.412  1.00  0.00    -0.245 NA
HETATM    7  C5  UNL     1      23.502   2.151  52.598  1.00  0.00     0.053 C 
HETATM    8  C13 UNL     1      23.666   3.421  53.056  1.00  0.00     0.032 C 
HETATM    9  C14 UNL     1      23.677   4.690  52.596  1.00  0.00     0.041 C 
HETATM   10  C15 UNL     1      23.852   5.047  51.282  1.00  0.00     0.101 C 
ENDROOT
BRANCH   7  11
HETATM   11  C6  UNL     1      24.323   0.979  52.257  1.00  0.00     0.179 C 
BRANCH  11  12
HETATM   12  N3  UNL     1      25.681   1.302  51.875  1.00  0.00    -0.384 N 
HETATM   13  H7  UNL     1      25.755   1.807  50.944  1.00  0.00     0.160 HD
BRANCH  12  14
HETATM   14  C7  UNL     1      26.904   1.051  52.540  1.00  0.00     0.029 A 
HETATM   15  C8  UNL     1      27.614   2.086  53.158  1.00  0.00     0.029 A 
HETATM   16  C9  UNL     1      28.795   1.815  53.810  1.00  0.00     0.004 A 
HETATM   17  C10 UNL     1      29.325   0.548  53.888  1.00  0.00     0.024 A 
HETATM   18  C11 UNL     1      28.656  -0.493  53.294  1.00  0.00     0.036 A 
HETATM   19 CL1  UNL     1      29.305  -2.118  53.376  1.00  0.00    -0.084 Cl
HETATM   20  C12 UNL     1      27.477  -0.197  52.647  1.00  0.00     0.052 A 
ENDBRANCH  12  14
ENDBRANCH  11  12
ENDBRANCH   7  11
BRANCH  10  21
HETATM   21  O2  UNL     1      23.133   6.094  50.731  1.00  0.00    -0.348 OA
BRANCH  21  22
HETATM   22  C16 UNL     1      21.883   6.537  51.153  1.00  0.00     0.178 C 
BRANCH  22  23
HETATM   23  C17 UNL     1      20.924   6.772  50.024  1.00  0.00     0.058 C 
BRANCH  23  24
HETATM   24  C18 UNL     1      20.950   8.288  49.784  1.00  0.00     0.224 C 
HETATM   25  F1  UNL     1      19.815   8.850  50.330  1.00  0.00    -0.255 F 
ENDBRANCH  23  24
ENDBRANCH  22  23
ENDBRANCH  21  22
ENDBRANCH  10  21
BRANCH   1  26
HETATM   26  O1  UNL     1      25.828   5.300  50.415  1.00  0.00    -0.358 OA
HETATM   27  H1  UNL     1      25.812   6.225  50.007  1.00  0.00     0.217 HD
ENDBRANCH   1  26
TORSDOF 8
ENDMDL
