MODEL 1
REMARK VINA RESULT:      -8.8      0.000      0.000
REMARK  2 active torsions:
REMARK  status: ('A' for Active; 'I' for Inactive)
REMARK    1  A    between atoms: C2_2  and  C3_3 
REMARK       I    between atoms: C3_3  and  N1_5 
REMARK    2  A    between atoms: N1_5  and  C4_6 
ROOT
HETATM    1  C4  UNL     1      25.245  -0.421  54.319  1.00  0.00     0.035 A 
HETATM    2  C5  UNL     1      24.709  -1.159  55.386  1.00  0.00     0.030 A 
HETATM    3  C6  UNL     1      23.418  -1.537  55.669  1.00  0.00     0.041 A 
HETATM    4  C7  UNL     1      22.473  -1.097  54.706  1.00  0.00     0.293 A 
HETATM    5  N2  UNL     1      21.154  -1.366  54.797  1.00  0.00    -0.020 NA
HETATM    6  C8  UNL     1      20.204  -1.031  53.994  1.00  0.00     0.243 A 
HETATM    7  N3  UNL     1      21.333  -0.670  53.705  1.00  0.00     0.109 N 
HETATM    8  C9  UNL     1      22.015  -0.041  52.856  1.00  0.00     0.158 A 
HETATM    9  C10 UNL     1      23.069  -0.359  53.657  1.00  0.00     0.037 A 
HETATM   10  C11 UNL     1      24.369   0.042  53.336  1.00  0.00     0.043 A 
HETATM   11  C12 UNL     1      22.420   0.741  51.682  1.00  0.00     0.097 C 
HETATM   12  C13 UNL     1      21.166   0.845  50.811  1.00  0.00    -0.002 C 
HETATM   13  C14 UNL     1      19.872   0.634  51.042  1.00  0.00     0.007 C 
HETATM   14 BR1  UNL     1      18.714   1.429  49.810  1.00  0.00    -0.051 Br
HETATM   15  C15 UNL     1      18.962  -0.037  51.964  1.00  0.00     0.022 C 
HETATM   16  C16 UNL     1      19.192  -0.666  53.128  1.00  0.00     0.056 C 
ENDROOT
BRANCH   1  17
HETATM   17  N1  UNL     1      26.570  -0.082  54.104  1.00  0.00    -0.324 N 
HETATM   18  C3  UNL     1      27.552  -0.890  53.467  1.00  0.00     0.244 C 
HETATM   19  O1  UNL     1      27.438  -2.035  52.984  1.00  0.00    -0.268 OA
HETATM   20  H4  UNL     1      26.817   0.866  54.463  1.00  0.00     0.169 HD
BRANCH  18  21
HETATM   21  C2  UNL     1      28.882  -0.338  53.348  1.00  0.00     0.064 C 
HETATM   22  C1  UNL     1      29.976  -0.977  53.677  1.00  0.00     0.017 C 
ENDBRANCH  18  21
ENDBRANCH   1  17
TORSDOF 2
ENDMDL
MODEL 2
REMARK VINA RESULT:      -8.3      3.629      4.482
REMARK  2 active torsions:
REMARK  status: ('A' for Active; 'I' for Inactive)
REMARK    1  A    between atoms: C2_2  and  C3_3 
REMARK       I    between atoms: C3_3  and  N1_5 
REMARK    2  A    between atoms: N1_5  and  C4_6 
ROOT
HETATM    1  C4  UNL     1      26.281   2.210  51.343  1.00  0.00     0.035 A 
HETATM    2  C5  UNL     1      27.106   1.651  52.331  1.00  0.00     0.030 A 
HETATM    3  C6  UNL     1      26.825   0.795  53.369  1.00  0.00     0.041 A 
HETATM    4  C7  UNL     1      25.458   0.420  53.443  1.00  0.00     0.293 A 
HETATM    5  N2  UNL     1      24.976  -0.415  54.387  1.00  0.00    -0.020 NA
HETATM    6  C8  UNL     1      23.769  -0.832  54.556  1.00  0.00     0.243 A 
HETATM    7  N3  UNL     1      23.971  -0.071  53.625  1.00  0.00     0.109 N 
HETATM    8  C9  UNL     1      23.426   0.533  52.666  1.00  0.00     0.158 A 
HETATM    9  C10 UNL     1      24.676   1.014  52.425  1.00  0.00     0.037 A 
HETATM   10  C11 UNL     1      24.924   1.882  51.358  1.00  0.00     0.043 A 
HETATM   11  C12 UNL     1      22.438   1.034  51.703  1.00  0.00     0.097 C 
HETATM   12  C13 UNL     1      21.152   0.260  52.000  1.00  0.00    -0.002 C 
HETATM   13  C14 UNL     1      20.745  -0.475  53.033  1.00  0.00     0.007 C 
HETATM   14 BR1  UNL     1      18.897  -0.738  53.131  1.00  0.00    -0.051 Br
HETATM   15  C15 UNL     1      21.243  -1.203  54.195  1.00  0.00     0.022 C 
HETATM   16  C16 UNL     1      22.473  -1.273  54.731  1.00  0.00     0.056 C 
ENDROOT
BRANCH   1  17
HETATM   17  N1  UNL     1      26.645   3.070  50.321  1.00  0.00    -0.324 N 
HETATM   18  C3  UNL     1      26.046   4.326  50.026  1.00  0.00     0.244 C 
HETATM   19  O1  UNL     1      25.100   4.902  50.600  1.00  0.00    -0.268 OA
HETATM   20  H4  UNL     1      27.438   2.714  49.744  1.00  0.00     0.169 HD
BRANCH  18  21
HETATM   21  C2  UNL     1      26.585   5.065  48.907  1.00  0.00     0.064 C 
HETATM   22  C1  UNL     1      27.848   5.056  48.559  1.00  0.00     0.017 C 
ENDBRANCH  18  21
ENDBRANCH   1  17
TORSDOF 2
ENDMDL
MODEL 3
REMARK VINA RESULT:      -8.1      2.367      3.382
REMARK  2 active torsions:
REMARK  status: ('A' for Active; 'I' for Inactive)
REMARK    1  A    between atoms: C2_2  and  C3_3 
REMARK       I    between atoms: C3_3  and  N1_5 
REMARK    2  A    between atoms: N1_5  and  C4_6 
ROOT
HETATM    1  C4  UNL     1      26.344   0.877  52.318  1.00  0.00     0.035 A 
HETATM    2  C5  UNL     1      26.292   2.117  51.664  1.00  0.00     0.030 A 
HETATM    3  C6  UNL     1      25.226   2.887  51.263  1.00  0.00     0.041 A 
HETATM    4  C7  UNL     1      23.964   2.315  51.572  1.00  0.00     0.293 A 
HETATM    5  N2  UNL     1      22.794   2.912  51.268  1.00  0.00    -0.020 NA
HETATM    6  C8  UNL     1      21.594   2.503  51.497  1.00  0.00     0.243 A 
HETATM    7  N3  UNL     1      22.508   1.785  51.865  1.00  0.00     0.109 N 
HETATM    8  C9  UNL     1      22.785   0.699  52.436  1.00  0.00     0.158 A 
HETATM    9  C10 UNL     1      24.079   1.067  52.229  1.00  0.00     0.037 A 
HETATM   10  C11 UNL     1      25.138   0.258  52.651  1.00  0.00     0.043 A 
HETATM   11  C12 UNL     1      22.674  -0.594  53.120  1.00  0.00     0.097 C 
HETATM   12  C13 UNL     1      21.185  -0.760  53.436  1.00  0.00    -0.002 C 
HETATM   13  C14 UNL     1      20.084  -0.156  52.994  1.00  0.00     0.007 C 
HETATM   14 BR1  UNL     1      18.499  -1.101  53.287  1.00  0.00    -0.051 Br
HETATM   15  C15 UNL     1      19.626   1.055  52.322  1.00  0.00     0.022 C 
HETATM   16  C16 UNL     1      20.311   2.056  51.745  1.00  0.00     0.056 C 
ENDROOT
BRANCH   1  17
HETATM   17  N1  UNL     1      27.470   0.161  52.691  1.00  0.00    -0.324 N 
HETATM   18  C3  UNL     1      28.132   0.232  53.948  1.00  0.00     0.244 C 
HETATM   19  O1  UNL     1      27.854   0.925  54.948  1.00  0.00    -0.268 OA
HETATM   20  H4  UNL     1      27.823  -0.473  51.942  1.00  0.00     0.169 HD
BRANCH  18  21
HETATM   21  C2  UNL     1      29.296  -0.605  54.126  1.00  0.00     0.064 C 
HETATM   22  C1  UNL     1      29.537  -1.688  53.430  1.00  0.00     0.017 C 
ENDBRANCH  18  21
ENDBRANCH   1  17
TORSDOF 2
ENDMDL
MODEL 4
REMARK VINA RESULT:      -8.1      3.294      6.595
REMARK  2 active torsions:
REMARK  status: ('A' for Active; 'I' for Inactive)
REMARK    1  A    between atoms: C2_2  and  C3_3 
REMARK       I    between atoms: C3_3  and  N1_5 
REMARK    2  A    between atoms: N1_5  and  C4_6 
ROOT
HETATM    1  C4  UNL     1      20.401  -0.415  53.280  1.00  0.00     0.035 A 
HETATM    2  C5  UNL     1      21.043  -1.179  54.267  1.00  0.00     0.030 A 
HETATM    3  C6  UNL     1      22.369  -1.282  54.614  1.00  0.00     0.041 A 
HETATM    4  C7  UNL     1      23.227  -0.468  53.828  1.00  0.00     0.293 A 
HETATM    5  N2  UNL     1      24.563  -0.421  54.011  1.00  0.00    -0.020 NA
HETATM    6  C8  UNL     1      25.441   0.274  53.374  1.00  0.00     0.243 A 
HETATM    7  N3  UNL     1      24.277   0.393  53.029  1.00  0.00     0.109 N 
HETATM    8  C9  UNL     1      23.509   0.978  52.224  1.00  0.00     0.158 A 
HETATM    9  C10 UNL     1      22.526   0.276  52.852  1.00  0.00     0.037 A 
HETATM   10  C11 UNL     1      21.187   0.407  52.471  1.00  0.00     0.043 A 
HETATM   11  C12 UNL     1      22.988   1.835  51.152  1.00  0.00     0.097 C 
HETATM   12  C13 UNL     1      24.179   2.676  50.690  1.00  0.00    -0.002 C 
HETATM   13  C14 UNL     1      25.495   2.572  50.862  1.00  0.00     0.007 C 
HETATM   14 BR1  UNL     1      26.527   3.539  49.641  1.00  0.00    -0.051 Br
HETATM   15  C15 UNL     1      26.497   1.939  51.713  1.00  0.00     0.022 C 
HETATM   16  C16 UNL     1      26.376   1.021  52.686  1.00  0.00     0.056 C 
ENDROOT
BRANCH   1  17
HETATM   17  N1  UNL     1      19.048  -0.367  52.992  1.00  0.00    -0.324 N 
HETATM   18  C3  UNL     1      18.098  -1.397  53.238  1.00  0.00     0.244 C 
HETATM   19  O1  UNL     1      18.272  -2.523  53.747  1.00  0.00    -0.268 OA
HETATM   20  H4  UNL     1      18.750   0.533  52.554  1.00  0.00     0.169 HD
BRANCH  18  21
HETATM   21  C2  UNL     1      16.729  -1.135  52.857  1.00  0.00     0.064 C 
HETATM   22  C1  UNL     1      16.355  -0.795  51.649  1.00  0.00     0.017 C 
ENDBRANCH  18  21
ENDBRANCH   1  17
TORSDOF 2
ENDMDL
MODEL 5
REMARK VINA RESULT:      -8.0      2.612      3.082
REMARK  2 active torsions:
REMARK  status: ('A' for Active; 'I' for Inactive)
REMARK    1  A    between atoms: C2_2  and  C3_3 
REMARK       I    between atoms: C3_3  and  N1_5 
REMARK    2  A    between atoms: N1_5  and  C4_6 
ROOT
HETATM    1  C4  UNL     1      25.616   0.055  53.038  1.00  0.00     0.035 A 
HETATM    2  C5  UNL     1      24.625  -0.782  53.574  1.00  0.00     0.030 A 
HETATM    3  C6  UNL     1      23.263  -0.628  53.671  1.00  0.00     0.041 A 
HETATM    4  C7  UNL     1      22.790   0.597  53.133  1.00  0.00     0.293 A 
HETATM    5  N2  UNL     1      21.485   0.940  53.126  1.00  0.00    -0.020 NA
HETATM    6  C8  UNL     1      20.934   2.010  52.667  1.00  0.00     0.243 A 
HETATM    7  N3  UNL     1      22.145   1.918  52.563  1.00  0.00     0.109 N 
HETATM    8  C9  UNL     1      23.179   2.501  52.147  1.00  0.00     0.158 A 
HETATM    9  C10 UNL     1      23.831   1.399  52.609  1.00  0.00     0.037 A 
HETATM   10  C11 UNL     1      25.218   1.277  52.492  1.00  0.00     0.043 A 
HETATM   11  C12 UNL     1      24.092   3.482  51.550  1.00  0.00     0.097 C 
HETATM   12  C13 UNL     1      23.190   4.549  50.926  1.00  0.00    -0.002 C 
HETATM   13  C14 UNL     1      21.902   4.855  51.068  1.00  0.00     0.007 C 
HETATM   14 BR1  UNL     1      21.435   6.573  50.499  1.00  0.00    -0.051 Br
HETATM   15  C15 UNL     1      20.633   4.306  51.533  1.00  0.00     0.022 C 
HETATM   16  C16 UNL     1      20.350   3.160  52.173  1.00  0.00     0.056 C 
ENDROOT
BRANCH   1  17
HETATM   17  N1  UNL     1      26.980  -0.176  52.976  1.00  0.00    -0.324 N 
HETATM   18  C3  UNL     1      27.946   0.227  53.939  1.00  0.00     0.244 C 
HETATM   19  O1  UNL     1      27.781   0.852  55.007  1.00  0.00    -0.268 OA
HETATM   20  H4  UNL     1      27.272  -0.699  52.121  1.00  0.00     0.169 HD
BRANCH  18  21
HETATM   21  C2  UNL     1      29.323  -0.119  53.675  1.00  0.00     0.064 C 
HETATM   22  C1  UNL     1      29.758  -1.346  53.528  1.00  0.00     0.017 C 
ENDBRANCH  18  21
ENDBRANCH   1  17
TORSDOF 2
ENDMDL
MODEL 6
REMARK VINA RESULT:      -7.7      2.109      2.917
REMARK  2 active torsions:
REMARK  status: ('A' for Active; 'I' for Inactive)
REMARK    1  A    between atoms: C2_2  and  C3_3 
REMARK       I    between atoms: C3_3  and  N1_5 
REMARK    2  A    between atoms: N1_5  and  C4_6 
ROOT
HETATM    1  C4  UNL     1      24.842   0.480  53.309  1.00  0.00     0.035 A 
HETATM    2  C5  UNL     1      23.810  -0.327  53.813  1.00  0.00     0.030 A 
HETATM    3  C6  UNL     1      22.520  -0.524  53.382  1.00  0.00     0.041 A 
HETATM    4  C7  UNL     1      22.187   0.225  52.223  1.00  0.00     0.293 A 
HETATM    5  N2  UNL     1      20.973   0.170  51.638  1.00  0.00    -0.020 NA
HETATM    6  C8  UNL     1      20.553   0.791  50.590  1.00  0.00     0.243 A 
HETATM    7  N3  UNL     1      21.702   1.000  50.939  1.00  0.00     0.109 N 
HETATM    8  C9  UNL     1      22.750   1.639  50.664  1.00  0.00     0.158 A 
HETATM    9  C10 UNL     1      23.263   1.018  51.761  1.00  0.00     0.037 A 
HETATM   10  C11 UNL     1      24.581   1.243  52.170  1.00  0.00     0.043 A 
HETATM   11  C12 UNL     1      23.723   2.529  50.018  1.00  0.00     0.097 C 
HETATM   12  C13 UNL     1      23.053   2.988  48.721  1.00  0.00    -0.002 C 
HETATM   13  C14 UNL     1      21.797   2.962  48.281  1.00  0.00     0.007 C 
HETATM   14 BR1  UNL     1      21.432   4.137  46.875  1.00  0.00    -0.051 Br
HETATM   15  C15 UNL     1      20.512   2.308  48.505  1.00  0.00     0.022 C 
HETATM   16  C16 UNL     1      20.110   1.461  49.467  1.00  0.00     0.056 C 
ENDROOT
BRANCH   1  17
HETATM   17  N1  UNL     1      26.126   0.623  53.806  1.00  0.00    -0.324 N 
HETATM   18  C3  UNL     1      27.141  -0.374  53.812  1.00  0.00     0.244 C 
HETATM   19  O1  UNL     1      27.097  -1.546  53.387  1.00  0.00    -0.268 OA
HETATM   20  H4  UNL     1      26.313   1.570  54.202  1.00  0.00     0.169 HD
BRANCH  18  21
HETATM   21  C2  UNL     1      28.417  -0.010  54.384  1.00  0.00     0.064 C 
HETATM   22  C1  UNL     1      29.557  -0.076  53.742  1.00  0.00     0.017 C 
ENDBRANCH  18  21
ENDBRANCH   1  17
TORSDOF 2
ENDMDL
MODEL 7
REMARK VINA RESULT:      -7.3      4.087      6.855
REMARK  2 active torsions:
REMARK  status: ('A' for Active; 'I' for Inactive)
REMARK    1  A    between atoms: C2_2  and  C3_3 
REMARK       I    between atoms: C3_3  and  N1_5 
REMARK    2  A    between atoms: N1_5  and  C4_6 
ROOT
HETATM    1  C4  UNL     1      22.110   2.087  50.291  1.00  0.00     0.035 A 
HETATM    2  C5  UNL     1      21.245   1.244  51.005  1.00  0.00     0.030 A 
HETATM    3  C6  UNL     1      21.474   0.393  52.061  1.00  0.00     0.041 A 
HETATM    4  C7  UNL     1      22.826   0.374  52.492  1.00  0.00     0.293 A 
HETATM    5  N2  UNL     1      23.258  -0.391  53.516  1.00  0.00    -0.020 NA
HETATM    6  C8  UNL     1      24.446  -0.492  54.003  1.00  0.00     0.243 A 
HETATM    7  N3  UNL     1      24.291   0.271  53.064  1.00  0.00     0.109 N 
HETATM    8  C9  UNL     1      24.878   1.081  52.302  1.00  0.00     0.158 A 
HETATM    9  C10 UNL     1      23.650   1.241  51.737  1.00  0.00     0.037 A 
HETATM   10  C11 UNL     1      23.455   2.116  50.665  1.00  0.00     0.043 A 
HETATM   11  C12 UNL     1      25.903   1.909  51.656  1.00  0.00     0.097 C 
HETATM   12  C13 UNL     1      27.156   1.752  52.521  1.00  0.00    -0.002 C 
HETATM   13  C14 UNL     1      27.515   0.880  53.461  1.00  0.00     0.007 C 
HETATM   14 BR1  UNL     1      29.350   0.808  53.806  1.00  0.00    -0.051 Br
HETATM   15  C15 UNL     1      26.967  -0.104  54.387  1.00  0.00     0.022 C 
HETATM   16  C16 UNL     1      25.724  -0.596  54.518  1.00  0.00     0.056 C 
ENDROOT
BRANCH   1  17
HETATM   17  N1  UNL     1      21.798   2.922  49.232  1.00  0.00    -0.324 N 
HETATM   18  C3  UNL     1      21.902   2.601  47.850  1.00  0.00     0.244 C 
HETATM   19  O1  UNL     1      22.282   1.540  47.313  1.00  0.00    -0.268 OA
HETATM   20  H4  UNL     1      21.460   3.862  49.532  1.00  0.00     0.169 HD
BRANCH  18  21
HETATM   21  C2  UNL     1      21.522   3.627  46.906  1.00  0.00     0.064 C 
HETATM   22  C1  UNL     1      21.952   3.685  45.670  1.00  0.00     0.017 C 
ENDBRANCH  18  21
ENDBRANCH   1  17
TORSDOF 2
ENDMDL
MODEL 8
REMARK VINA RESULT:      -7.2      6.217      7.415
REMARK  2 active torsions:
REMARK  status: ('A' for Active; 'I' for Inactive)
REMARK    1  A    between atoms: C2_2  and  C3_3 
REMARK       I    between atoms: C3_3  and  N1_5 
REMARK    2  A    between atoms: N1_5  and  C4_6 
ROOT
HETATM    1  C4  UNL     1      27.310   5.168  48.687  1.00  0.00     0.035 A 
HETATM    2  C5  UNL     1      26.294   6.121  48.519  1.00  0.00     0.030 A 
HETATM    3  C6  UNL     1      25.016   6.183  49.023  1.00  0.00     0.041 A 
HETATM    4  C7  UNL     1      24.680   5.084  49.856  1.00  0.00     0.293 A 
HETATM    5  N2  UNL     1      23.476   4.957  50.451  1.00  0.00    -0.020 NA
HETATM    6  C8  UNL     1      23.054   4.019  51.227  1.00  0.00     0.243 A 
HETATM    7  N3  UNL     1      24.192   3.920  50.800  1.00  0.00     0.109 N 
HETATM    8  C9  UNL     1      25.226   3.204  50.811  1.00  0.00     0.158 A 
HETATM    9  C10 UNL     1      25.740   4.157  49.987  1.00  0.00     0.037 A 
HETATM   10  C11 UNL     1      27.045   4.061  49.495  1.00  0.00     0.043 A 
HETATM   11  C12 UNL     1      26.182   2.125  51.084  1.00  0.00     0.097 C 
HETATM   12  C13 UNL     1      25.519   1.256  52.155  1.00  0.00    -0.002 C 
HETATM   13  C14 UNL     1      24.271   1.153  52.606  1.00  0.00     0.007 C 
HETATM   14 BR1  UNL     1      23.894  -0.431  53.523  1.00  0.00    -0.051 Br
HETATM   15  C15 UNL     1      23.002   1.871  52.654  1.00  0.00     0.022 C 
HETATM   16  C16 UNL     1      22.609   3.008  52.056  1.00  0.00     0.056 C 
ENDROOT
BRANCH   1  17
HETATM   17  N1  UNL     1      28.583   5.180  48.142  1.00  0.00    -0.324 N 
HETATM   18  C3  UNL     1      29.497   6.269  48.166  1.00  0.00     0.244 C 
HETATM   19  O1  UNL     1      29.358   7.405  48.664  1.00  0.00    -0.268 OA
HETATM   20  H4  UNL     1      28.843   4.281  47.681  1.00  0.00     0.169 HD
BRANCH  18  21
HETATM   21  C2  UNL     1      30.779   6.066  47.532  1.00  0.00     0.064 C 
HETATM   22  C1  UNL     1      31.651   5.163  47.907  1.00  0.00     0.017 C 
ENDBRANCH  18  21
ENDBRANCH   1  17
TORSDOF 2
ENDMDL
MODEL 9
REMARK VINA RESULT:      -7.2      4.970      7.051
REMARK  2 active torsions:
REMARK  status: ('A' for Active; 'I' for Inactive)
REMARK    1  A    between atoms: C2_2  and  C3_3 
REMARK       I    between atoms: C3_3  and  N1_5 
REMARK    2  A    between atoms: N1_5  and  C4_6 
ROOT
HETATM    1  C4  UNL     1      24.209   1.472  52.353  1.00  0.00     0.035 A 
HETATM    2  C5  UNL     1      25.510   1.014  52.096  1.00  0.00     0.030 A 
HETATM    3  C6  UNL     1      26.524   1.545  51.336  1.00  0.00     0.041 A 
HETATM    4  C7  UNL     1      26.181   2.769  50.705  1.00  0.00     0.293 A 
HETATM    5  N2  UNL     1      27.036   3.454  49.918  1.00  0.00    -0.020 NA
HETATM    6  C8  UNL     1      26.849   4.568  49.300  1.00  0.00     0.243 A 
HETATM    7  N3  UNL     1      25.920   4.133  49.959  1.00  0.00     0.109 N 
HETATM    8  C9  UNL     1      24.735   4.352  50.317  1.00  0.00     0.158 A 
HETATM    9  C10 UNL     1      24.860   3.180  50.999  1.00  0.00     0.037 A 
HETATM   10  C11 UNL     1      23.806   2.672  51.764  1.00  0.00     0.043 A 
HETATM   11  C12 UNL     1      23.410   4.960  50.489  1.00  0.00     0.097 C 
HETATM   12  C13 UNL     1      23.506   6.335  49.824  1.00  0.00    -0.002 C 
HETATM   13  C14 UNL     1      24.371   6.881  48.972  1.00  0.00     0.007 C 
HETATM   14 BR1  UNL     1      23.733   8.379  48.055  1.00  0.00    -0.051 Br
HETATM   15  C15 UNL     1      25.728   6.733  48.457  1.00  0.00     0.022 C 
HETATM   16  C16 UNL     1      26.639   5.762  48.639  1.00  0.00     0.056 C 
ENDROOT
BRANCH   1  17
HETATM   17  N1  UNL     1      23.239   0.874  53.141  1.00  0.00    -0.324 N 
HETATM   18  C3  UNL     1      22.074   0.204  52.675  1.00  0.00     0.244 C 
HETATM   19  O1  UNL     1      21.688   0.016  51.504  1.00  0.00    -0.268 OA
HETATM   20  H4  UNL     1      23.431   0.953  54.163  1.00  0.00     0.169 HD
BRANCH  18  21
HETATM   21  C2  UNL     1      21.190  -0.350  53.675  1.00  0.00     0.064 C 
HETATM   22  C1  UNL     1      21.559  -0.659  54.893  1.00  0.00     0.017 C 
ENDBRANCH  18  21
ENDBRANCH   1  17
TORSDOF 2
ENDMDL
