MODEL 1
REMARK VINA RESULT:      -7.7      0.000      0.000
REMARK  9 active torsions:
REMARK  status: ('A' for Active; 'I' for Inactive)
REMARK    1  A    between atoms: N1_2  and  C2_3 
REMARK    2  A    between atoms: C2_3  and  C3_4 
REMARK    3  A    between atoms: C3_4  and  C4_5 
REMARK    4  A    between atoms: C3_4  and  N3_8 
REMARK    5  A    between atoms: C4_5  and  C5_6 
REMARK    6  A    between atoms: N3_8  and  C6_9 
REMARK    7  A    between atoms: C9_12  and  O1_13 
REMARK    8  A    between atoms: O1_13  and  C10_14 
REMARK    9  A    between atoms: C10_14  and  C11_15 
ROOT
HETATM    1  C6  UNL     1      25.928  -0.291  53.827  1.00  0.00     0.030 A 
HETATM    2  C7  UNL     1      25.773   0.597  52.761  1.00  0.00     0.032 A 
HETATM    3  C8  UNL     1      24.496   0.917  52.368  1.00  0.00     0.041 A 
HETATM    4  C9  UNL     1      23.344   0.446  52.928  1.00  0.00     0.091 A 
HETATM    5  C17 UNL     1      23.506  -0.447  54.001  1.00  0.00     0.069 A 
HETATM    6 CL1  UNL     1      22.149  -1.181  54.874  1.00  0.00    -0.081 Cl
HETATM    7  C18 UNL     1      24.785  -0.810  54.444  1.00  0.00     0.056 A 
ENDROOT
BRANCH   1   8
HETATM    8  N3  UNL     1      27.230  -0.639  54.279  1.00  0.00    -0.383 N 
HETATM    9  H10 UNL     1      27.274  -1.419  55.001  1.00  0.00     0.160 HD
BRANCH   8  10
HETATM   10  C3  UNL     1      28.504  -0.076  53.890  1.00  0.00     0.103 C 
BRANCH  10  11
HETATM   11  C2  UNL     1      29.076   0.851  54.955  1.00  0.00     0.127 C 
BRANCH  11  12
HETATM   12  N1  UNL     1      28.981   2.221  54.537  1.00  0.00    -0.444 NA
HETATM   13  C1  UNL     1      28.692   2.594  53.362  1.00  0.00     0.324 C 
ENDBRANCH  11  12
ENDBRANCH  10  11
BRANCH  10  14
HETATM   14  C4  UNL     1      29.497  -1.158  53.612  1.00  0.00     0.073 C 
BRANCH  14  15
HETATM   15  C5  UNL     1      28.934  -2.320  52.881  1.00  0.00     0.082 C 
HETATM   16  N2  UNL     1      28.538  -3.444  53.351  1.00  0.00    -0.316 NA
HETATM   17  H9  UNL     1      28.569  -3.679  54.348  1.00  0.00     0.185 HD
ENDBRANCH  14  15
ENDBRANCH  10  14
ENDBRANCH   8  10
ENDBRANCH   1   8
BRANCH   4  18
HETATM   18  O1  UNL     1      22.048   0.662  52.660  1.00  0.00    -0.345 OA
BRANCH  18  19
HETATM   19  C10 UNL     1      21.346   1.599  51.951  1.00  0.00     0.214 C 
BRANCH  19  20
HETATM   20  C11 UNL     1      21.681   1.782  50.537  1.00  0.00    -0.031 A 
HETATM   21  C12 UNL     1      21.344   1.029  49.444  1.00  0.00     0.009 A 
HETATM   22  C13 UNL     1      21.741   1.313  48.159  1.00  0.00     0.004 A 
HETATM   23  C14 UNL     1      22.523   2.412  47.901  1.00  0.00     0.042 A 
HETATM   24  C15 UNL     1      22.913   3.231  48.940  1.00  0.00     0.117 A 
HETATM   25  F1  UNL     1      23.683   4.326  48.747  1.00  0.00    -0.206 F 
HETATM   26  C16 UNL     1      22.479   2.885  50.202  1.00  0.00     0.051 A 
ENDBRANCH  19  20
ENDBRANCH  18  19
ENDBRANCH   4  18
TORSDOF 9
ENDMDL
MODEL 2
REMARK VINA RESULT:      -7.5      2.714      3.518
REMARK  9 active torsions:
REMARK  status: ('A' for Active; 'I' for Inactive)
REMARK    1  A    between atoms: N1_2  and  C2_3 
REMARK    2  A    between atoms: C2_3  and  C3_4 
REMARK    3  A    between atoms: C3_4  and  C4_5 
REMARK    4  A    between atoms: C3_4  and  N3_8 
REMARK    5  A    between atoms: C4_5  and  C5_6 
REMARK    6  A    between atoms: N3_8  and  C6_9 
REMARK    7  A    between atoms: C9_12  and  O1_13 
REMARK    8  A    between atoms: O1_13  and  C10_14 
REMARK    9  A    between atoms: C10_14  and  C11_15 
ROOT
HETATM    1  C6  UNL     1      25.767  -0.380  53.587  1.00  0.00     0.030 A 
HETATM    2  C7  UNL     1      24.648  -0.855  54.274  1.00  0.00     0.032 A 
HETATM    3  C8  UNL     1      23.414  -0.384  53.899  1.00  0.00     0.041 A 
HETATM    4  C9  UNL     1      23.168   0.516  52.904  1.00  0.00     0.091 A 
HETATM    5  C17 UNL     1      24.297   0.991  52.216  1.00  0.00     0.069 A 
HETATM    6 CL1  UNL     1      24.212   2.165  50.889  1.00  0.00    -0.081 Cl
HETATM    7  C18 UNL     1      25.582   0.546  52.555  1.00  0.00     0.056 A 
ENDROOT
BRANCH   1   8
HETATM    8  N3  UNL     1      27.064  -0.851  53.929  1.00  0.00    -0.383 N 
HETATM    9  H10 UNL     1      27.102  -1.823  54.359  1.00  0.00     0.160 HD
BRANCH   8  10
HETATM   10  C3  UNL     1      28.340  -0.187  53.772  1.00  0.00     0.103 C 
BRANCH  10  11
HETATM   11  C2  UNL     1      28.698   0.669  54.979  1.00  0.00     0.127 C 
BRANCH  11  12
HETATM   12  N1  UNL     1      29.026   2.006  54.572  1.00  0.00    -0.444 NA
HETATM   13  C1  UNL     1      28.601   2.557  53.513  1.00  0.00     0.324 C 
ENDBRANCH  11  12
ENDBRANCH  10  11
BRANCH  10  14
HETATM   14  C4  UNL     1      29.431  -1.185  53.550  1.00  0.00     0.073 C 
BRANCH  14  15
HETATM   15  C5  UNL     1      28.986  -2.421  52.860  1.00  0.00     0.082 C 
HETATM   16  N2  UNL     1      28.590  -3.525  53.375  1.00  0.00    -0.316 NA
HETATM   17  H9  UNL     1      28.532  -3.686  54.386  1.00  0.00     0.185 HD
ENDBRANCH  14  15
ENDBRANCH  10  14
ENDBRANCH   8  10
ENDBRANCH   1   8
BRANCH   4  18
HETATM   18  O1  UNL     1      22.039   1.063  52.430  1.00  0.00    -0.345 OA
BRANCH  18  19
HETATM   19  C10 UNL     1      20.818   1.383  52.960  1.00  0.00     0.214 C 
BRANCH  19  20
HETATM   20  C11 UNL     1      19.683   0.513  52.644  1.00  0.00    -0.031 A 
HETATM   21  C12 UNL     1      19.127  -0.510  53.364  1.00  0.00     0.009 A 
HETATM   22  C13 UNL     1      18.056  -1.261  52.937  1.00  0.00     0.004 A 
HETATM   23  C14 UNL     1      17.472  -1.007  51.721  1.00  0.00     0.042 A 
HETATM   24  C15 UNL     1      17.964   0.006  50.925  1.00  0.00     0.117 A 
HETATM   25  F1  UNL     1      17.429   0.302  49.719  1.00  0.00    -0.206 F 
HETATM   26  C16 UNL     1      19.039   0.717  51.416  1.00  0.00     0.051 A 
ENDBRANCH  19  20
ENDBRANCH  18  19
ENDBRANCH   4  18
TORSDOF 9
ENDMDL
MODEL 3
REMARK VINA RESULT:      -7.5      4.013      4.900
REMARK  9 active torsions:
REMARK  status: ('A' for Active; 'I' for Inactive)
REMARK    1  A    between atoms: N1_2  and  C2_3 
REMARK    2  A    between atoms: C2_3  and  C3_4 
REMARK    3  A    between atoms: C3_4  and  C4_5 
REMARK    4  A    between atoms: C3_4  and  N3_8 
REMARK    5  A    between atoms: C4_5  and  C5_6 
REMARK    6  A    between atoms: N3_8  and  C6_9 
REMARK    7  A    between atoms: C9_12  and  O1_13 
REMARK    8  A    between atoms: O1_13  and  C10_14 
REMARK    9  A    between atoms: C10_14  and  C11_15 
ROOT
HETATM    1  C6  UNL     1      24.708  -0.596  54.312  1.00  0.00     0.030 A 
HETATM    2  C7  UNL     1      23.803  -1.336  55.076  1.00  0.00     0.032 A 
HETATM    3  C8  UNL     1      22.492  -1.371  54.669  1.00  0.00     0.041 A 
HETATM    4  C9  UNL     1      21.977  -0.744  53.572  1.00  0.00     0.091 A 
HETATM    5  C17 UNL     1      22.891  -0.001  52.807  1.00  0.00     0.069 A 
HETATM    6 CL1  UNL     1      22.441   0.894  51.344  1.00  0.00    -0.081 Cl
HETATM    7  C18 UNL     1      24.242   0.071  53.175  1.00  0.00     0.056 A 
ENDROOT
BRANCH   1   8
HETATM    8  N3  UNL     1      26.078  -0.545  54.685  1.00  0.00    -0.383 N 
HETATM    9  H10 UNL     1      26.294  -0.829  55.687  1.00  0.00     0.160 HD
BRANCH   8  10
HETATM   10  C3  UNL     1      27.220  -0.157  53.887  1.00  0.00     0.103 C 
BRANCH  10  11
HETATM   11  C2  UNL     1      28.467   0.070  54.731  1.00  0.00     0.127 C 
BRANCH  11  12
HETATM   12  N1  UNL     1      29.167   1.245  54.295  1.00  0.00    -0.444 NA
HETATM   13  C1  UNL     1      28.611   2.262  53.784  1.00  0.00     0.324 C 
ENDBRANCH  11  12
ENDBRANCH  10  11
BRANCH  10  14
HETATM   14  C4  UNL     1      27.522  -1.198  52.856  1.00  0.00     0.073 C 
BRANCH  14  15
HETATM   15  C5  UNL     1      28.663  -2.081  53.207  1.00  0.00     0.082 C 
HETATM   16  N2  UNL     1      28.663  -3.348  53.391  1.00  0.00    -0.316 NA
HETATM   17  H9  UNL     1      27.823  -3.930  53.311  1.00  0.00     0.185 HD
ENDBRANCH  14  15
ENDBRANCH  10  14
ENDBRANCH   8  10
ENDBRANCH   1   8
BRANCH   4  18
HETATM   18  O1  UNL     1      20.741  -0.685  53.055  1.00  0.00    -0.345 OA
BRANCH  18  19
HETATM   19  C10 UNL     1      19.527  -0.228  53.492  1.00  0.00     0.214 C 
BRANCH  19  20
HETATM   20  C11 UNL     1      18.338  -1.016  53.159  1.00  0.00    -0.031 A 
HETATM   21  C12 UNL     1      17.256  -0.698  52.381  1.00  0.00     0.009 A 
HETATM   22  C13 UNL     1      16.191  -1.539  52.160  1.00  0.00     0.004 A 
HETATM   23  C14 UNL     1      16.164  -2.788  52.730  1.00  0.00     0.042 A 
HETATM   24  C15 UNL     1      17.210  -3.197  53.530  1.00  0.00     0.117 A 
HETATM   25  F1  UNL     1      17.237  -4.414  54.118  1.00  0.00    -0.206 F 
HETATM   26  C16 UNL     1      18.243  -2.301  53.708  1.00  0.00     0.051 A 
ENDBRANCH  19  20
ENDBRANCH  18  19
ENDBRANCH   4  18
TORSDOF 9
ENDMDL
MODEL 4
REMARK VINA RESULT:      -7.2      4.927      7.880
REMARK  9 active torsions:
REMARK  status: ('A' for Active; 'I' for Inactive)
REMARK    1  A    between atoms: N1_2  and  C2_3 
REMARK    2  A    between atoms: C2_3  and  C3_4 
REMARK    3  A    between atoms: C3_4  and  C4_5 
REMARK    4  A    between atoms: C3_4  and  N3_8 
REMARK    5  A    between atoms: C4_5  and  C5_6 
REMARK    6  A    between atoms: N3_8  and  C6_9 
REMARK    7  A    between atoms: C9_12  and  O1_13 
REMARK    8  A    between atoms: O1_13  and  C10_14 
REMARK    9  A    between atoms: C10_14  and  C11_15 
ROOT
HETATM    1  C6  UNL     1      25.647   4.594  49.726  1.00  0.00     0.030 A 
HETATM    2  C7  UNL     1      26.676   3.651  49.699  1.00  0.00     0.032 A 
HETATM    3  C8  UNL     1      26.529   2.514  50.456  1.00  0.00     0.041 A 
HETATM    4  C9  UNL     1      25.458   2.209  51.243  1.00  0.00     0.091 A 
HETATM    5  C17 UNL     1      24.424   3.160  51.266  1.00  0.00     0.069 A 
HETATM    6 CL1  UNL     1      22.942   2.971  52.220  1.00  0.00    -0.081 Cl
HETATM    7  C18 UNL     1      24.520   4.340  50.514  1.00  0.00     0.056 A 
ENDROOT
BRANCH   1   8
HETATM    8  N3  UNL     1      25.747   5.778  48.946  1.00  0.00    -0.383 N 
HETATM    9  H10 UNL     1      24.995   5.906  48.205  1.00  0.00     0.160 HD
BRANCH   8  10
HETATM   10  C3  UNL     1      26.734   6.833  49.024  1.00  0.00     0.103 C 
BRANCH  10  11
HETATM   11  C2  UNL     1      27.087   7.397  47.654  1.00  0.00     0.127 C 
BRANCH  11  12
HETATM   12  N1  UNL     1      28.439   7.064  47.303  1.00  0.00    -0.444 NA
HETATM   13  C1  UNL     1      29.223   6.388  48.033  1.00  0.00     0.324 C 
ENDBRANCH  11  12
ENDBRANCH  10  11
BRANCH  10  14
HETATM   14  C4  UNL     1      26.246   7.949  49.891  1.00  0.00     0.073 C 
BRANCH  14  15
HETATM   15  C5  UNL     1      27.234   9.041  50.081  1.00  0.00     0.082 C 
HETATM   16  N2  UNL     1      27.628   9.579  51.174  1.00  0.00    -0.316 NA
HETATM   17  H9  UNL     1      27.282   9.298  52.097  1.00  0.00     0.185 HD
ENDBRANCH  14  15
ENDBRANCH  10  14
ENDBRANCH   8  10
ENDBRANCH   1   8
BRANCH   4  18
HETATM   18  O1  UNL     1      25.175   1.158  52.026  1.00  0.00    -0.345 OA
BRANCH  18  19
HETATM   19  C10 UNL     1      25.618   0.703  53.239  1.00  0.00     0.214 C 
BRANCH  19  20
HETATM   20  C11 UNL     1      27.023   0.302  53.349  1.00  0.00    -0.031 A 
HETATM   21  C12 UNL     1      28.137   1.050  53.623  1.00  0.00     0.009 A 
HETATM   22  C13 UNL     1      29.413   0.540  53.685  1.00  0.00     0.004 A 
HETATM   23  C14 UNL     1      29.636  -0.798  53.469  1.00  0.00     0.042 A 
HETATM   24  C15 UNL     1      28.575  -1.630  53.187  1.00  0.00     0.117 A 
HETATM   25  F1  UNL     1      28.734  -2.955  52.965  1.00  0.00    -0.206 F 
HETATM   26  C16 UNL     1      27.324  -1.051  53.139  1.00  0.00     0.051 A 
ENDBRANCH  19  20
ENDBRANCH  18  19
ENDBRANCH   4  18
TORSDOF 9
ENDMDL
MODEL 5
REMARK VINA RESULT:      -7.2      3.341      4.616
REMARK  9 active torsions:
REMARK  status: ('A' for Active; 'I' for Inactive)
REMARK    1  A    between atoms: N1_2  and  C2_3 
REMARK    2  A    between atoms: C2_3  and  C3_4 
REMARK    3  A    between atoms: C3_4  and  C4_5 
REMARK    4  A    between atoms: C3_4  and  N3_8 
REMARK    5  A    between atoms: C4_5  and  C5_6 
REMARK    6  A    between atoms: N3_8  and  C6_9 
REMARK    7  A    between atoms: C9_12  and  O1_13 
REMARK    8  A    between atoms: O1_13  and  C10_14 
REMARK    9  A    between atoms: C10_14  and  C11_15 
ROOT
HETATM    1  C6  UNL     1      24.974   0.429  53.776  1.00  0.00     0.030 A 
HETATM    2  C7  UNL     1      24.605   1.280  52.733  1.00  0.00     0.032 A 
HETATM    3  C8  UNL     1      23.364   1.110  52.168  1.00  0.00     0.041 A 
HETATM    4  C9  UNL     1      22.439   0.177  52.535  1.00  0.00     0.091 A 
HETATM    5  C17 UNL     1      22.814  -0.677  53.585  1.00  0.00     0.069 A 
HETATM    6 CL1  UNL     1      21.771  -1.961  54.221  1.00  0.00    -0.081 Cl
HETATM    7  C18 UNL     1      24.069  -0.550  54.198  1.00  0.00     0.056 A 
ENDROOT
BRANCH   1   8
HETATM    8  N3  UNL     1      26.241   0.578  54.401  1.00  0.00    -0.383 N 
HETATM    9  H10 UNL     1      26.360   1.450  54.999  1.00  0.00     0.160 HD
BRANCH   8  10
HETATM   10  C3  UNL     1      27.392  -0.296  54.335  1.00  0.00     0.103 C 
BRANCH  10  11
HETATM   11  C2  UNL     1      27.593  -0.884  52.944  1.00  0.00     0.127 C 
BRANCH  11  12
HETATM   12  N1  UNL     1      27.813  -2.300  53.021  1.00  0.00    -0.444 NA
HETATM   13  C1  UNL     1      28.940  -2.840  53.233  1.00  0.00     0.324 C 
ENDBRANCH  11  12
ENDBRANCH  10  11
BRANCH  10  14
HETATM   14  C4  UNL     1      28.634   0.437  54.729  1.00  0.00     0.073 C 
BRANCH  14  15
HETATM   15  C5  UNL     1      28.847   1.706  53.988  1.00  0.00     0.082 C 
HETATM   16  N2  UNL     1      28.099   2.744  53.952  1.00  0.00    -0.316 NA
HETATM   17  H9  UNL     1      27.213   2.818  54.463  1.00  0.00     0.185 HD
ENDBRANCH  14  15
ENDBRANCH  10  14
ENDBRANCH   8  10
ENDBRANCH   1   8
BRANCH   4  18
HETATM   18  O1  UNL     1      21.208  -0.107  52.087  1.00  0.00    -0.345 OA
BRANCH  18  19
HETATM   19  C10 UNL     1      20.099   0.627  51.763  1.00  0.00     0.214 C 
BRANCH  19  20
HETATM   20  C11 UNL     1      18.788  -0.010  51.909  1.00  0.00    -0.031 A 
HETATM   21  C12 UNL     1      17.613   0.224  51.246  1.00  0.00     0.009 A 
HETATM   22  C13 UNL     1      16.439  -0.449  51.494  1.00  0.00     0.004 A 
HETATM   23  C14 UNL     1      16.391  -1.428  52.456  1.00  0.00     0.042 A 
HETATM   24  C15 UNL     1      17.527  -1.734  53.175  1.00  0.00     0.117 A 
HETATM   25  F1  UNL     1      17.540  -2.688  54.134  1.00  0.00    -0.206 F 
HETATM   26  C16 UNL     1      18.666  -1.019  52.874  1.00  0.00     0.051 A 
ENDBRANCH  19  20
ENDBRANCH  18  19
ENDBRANCH   4  18
TORSDOF 9
ENDMDL
MODEL 6
REMARK VINA RESULT:      -7.1      4.242      5.306
REMARK  9 active torsions:
REMARK  status: ('A' for Active; 'I' for Inactive)
REMARK    1  A    between atoms: N1_2  and  C2_3 
REMARK    2  A    between atoms: C2_3  and  C3_4 
REMARK    3  A    between atoms: C3_4  and  C4_5 
REMARK    4  A    between atoms: C3_4  and  N3_8 
REMARK    5  A    between atoms: C4_5  and  C5_6 
REMARK    6  A    between atoms: N3_8  and  C6_9 
REMARK    7  A    between atoms: C9_12  and  O1_13 
REMARK    8  A    between atoms: O1_13  and  C10_14 
REMARK    9  A    between atoms: C10_14  and  C11_15 
ROOT
HETATM    1  C6  UNL     1      25.613   1.669  51.955  1.00  0.00     0.030 A 
HETATM    2  C7  UNL     1      26.602   2.049  51.047  1.00  0.00     0.032 A 
HETATM    3  C8  UNL     1      26.459   3.255  50.404  1.00  0.00     0.041 A 
HETATM    4  C9  UNL     1      25.428   4.133  50.571  1.00  0.00     0.091 A 
HETATM    5  C17 UNL     1      24.435   3.746  51.486  1.00  0.00     0.069 A 
HETATM    6 CL1  UNL     1      23.009   4.731  51.855  1.00  0.00    -0.081 Cl
HETATM    7  C18 UNL     1      24.529   2.526  52.170  1.00  0.00     0.056 A 
ENDROOT
BRANCH   1   8
HETATM    8  N3  UNL     1      25.726   0.437  52.656  1.00  0.00    -0.383 N 
HETATM    9  H10 UNL     1      24.812  -0.075  52.838  1.00  0.00     0.160 HD
BRANCH   8  10
HETATM   10  C3  UNL     1      26.917  -0.213  53.157  1.00  0.00     0.103 C 
BRANCH  10  11
HETATM   11  C2  UNL     1      27.109   0.003  54.652  1.00  0.00     0.127 C 
BRANCH  11  12
HETATM   12  N1  UNL     1      28.343   0.690  54.910  1.00  0.00    -0.444 NA
HETATM   13  C1  UNL     1      29.059   1.235  54.018  1.00  0.00     0.324 C 
ENDBRANCH  11  12
ENDBRANCH  10  11
BRANCH  10  14
HETATM   14  C4  UNL     1      26.869  -1.683  52.887  1.00  0.00     0.073 C 
BRANCH  14  15
HETATM   15  C5  UNL     1      28.204  -2.327  52.815  1.00  0.00     0.082 C 
HETATM   16  N2  UNL     1      28.597  -3.415  53.365  1.00  0.00    -0.316 NA
HETATM   17  H9  UNL     1      27.993  -3.998  53.955  1.00  0.00     0.185 HD
ENDBRANCH  14  15
ENDBRANCH  10  14
ENDBRANCH   8  10
ENDBRANCH   1   8
BRANCH   4  18
HETATM   18  O1  UNL     1      25.154   5.327  50.024  1.00  0.00    -0.345 OA
BRANCH  18  19
HETATM   19  C10 UNL     1      25.469   5.952  48.848  1.00  0.00     0.214 C 
BRANCH  19  20
HETATM   20  C11 UNL     1      26.819   6.502  48.704  1.00  0.00    -0.031 A 
HETATM   21  C12 UNL     1      27.277   7.780  48.880  1.00  0.00     0.009 A 
HETATM   22  C13 UNL     1      28.585   8.164  48.697  1.00  0.00     0.004 A 
HETATM   23  C14 UNL     1      29.531   7.244  48.316  1.00  0.00     0.042 A 
HETATM   24  C15 UNL     1      29.164   5.931  48.115  1.00  0.00     0.117 A 
HETATM   25  F1  UNL     1      30.051   4.982  47.739  1.00  0.00    -0.206 F 
HETATM   26  C16 UNL     1      27.836   5.618  48.316  1.00  0.00     0.051 A 
ENDBRANCH  19  20
ENDBRANCH  18  19
ENDBRANCH   4  18
TORSDOF 9
ENDMDL
MODEL 7
REMARK VINA RESULT:      -7.0      4.887      7.994
REMARK  9 active torsions:
REMARK  status: ('A' for Active; 'I' for Inactive)
REMARK    1  A    between atoms: N1_2  and  C2_3 
REMARK    2  A    between atoms: C2_3  and  C3_4 
REMARK    3  A    between atoms: C3_4  and  C4_5 
REMARK    4  A    between atoms: C3_4  and  N3_8 
REMARK    5  A    between atoms: C4_5  and  C5_6 
REMARK    6  A    between atoms: N3_8  and  C6_9 
REMARK    7  A    between atoms: C9_12  and  O1_13 
REMARK    8  A    between atoms: O1_13  and  C10_14 
REMARK    9  A    between atoms: C10_14  and  C11_15 
ROOT
HETATM    1  C6  UNL     1      25.413   4.632  49.767  1.00  0.00     0.030 A 
HETATM    2  C7  UNL     1      26.520   3.781  49.754  1.00  0.00     0.032 A 
HETATM    3  C8  UNL     1      26.440   2.607  50.461  1.00  0.00     0.041 A 
HETATM    4  C9  UNL     1      25.366   2.181  51.187  1.00  0.00     0.091 A 
HETATM    5  C17 UNL     1      24.254   3.040  51.197  1.00  0.00     0.069 A 
HETATM    6 CL1  UNL     1      22.754   2.688  52.074  1.00  0.00    -0.081 Cl
HETATM    7  C18 UNL     1      24.280   4.252  50.493  1.00  0.00     0.056 A 
ENDROOT
BRANCH   1   8
HETATM    8  N3  UNL     1      25.444   5.850  49.036  1.00  0.00    -0.383 N 
HETATM    9  H10 UNL     1      24.611   6.026  48.399  1.00  0.00     0.160 HD
BRANCH   8  10
HETATM   10  C3  UNL     1      26.456   6.884  49.040  1.00  0.00     0.103 C 
BRANCH  10  11
HETATM   11  C2  UNL     1      26.588   7.570  47.687  1.00  0.00     0.127 C 
BRANCH  11  12
HETATM   12  N1  UNL     1      25.304   8.002  47.212  1.00  0.00    -0.444 NA
HETATM   13  C1  UNL     1      25.000   8.135  45.989  1.00  0.00     0.324 C 
ENDBRANCH  11  12
ENDBRANCH  10  11
BRANCH  10  14
HETATM   14  C4  UNL     1      26.149   7.919  50.075  1.00  0.00     0.073 C 
BRANCH  14  15
HETATM   15  C5  UNL     1      27.128   9.034  50.121  1.00  0.00     0.082 C 
HETATM   16  N2  UNL     1      27.698   9.553  51.144  1.00  0.00    -0.316 NA
HETATM   17  H9  UNL     1      27.531   9.236  52.104  1.00  0.00     0.185 HD
ENDBRANCH  14  15
ENDBRANCH  10  14
ENDBRANCH   8  10
ENDBRANCH   1   8
BRANCH   4  18
HETATM   18  O1  UNL     1      25.141   1.079  51.918  1.00  0.00    -0.345 OA
BRANCH  18  19
HETATM   19  C10 UNL     1      25.534   0.636  53.152  1.00  0.00     0.214 C 
BRANCH  19  20
HETATM   20  C11 UNL     1      26.946   0.291  53.340  1.00  0.00    -0.031 A 
HETATM   21  C12 UNL     1      27.620  -0.863  53.044  1.00  0.00     0.009 A 
HETATM   22  C13 UNL     1      28.960  -1.059  53.287  1.00  0.00     0.004 A 
HETATM   23  C14 UNL     1      29.713  -0.062  53.857  1.00  0.00     0.042 A 
HETATM   24  C15 UNL     1      29.120   1.137  54.190  1.00  0.00     0.117 A 
HETATM   25  F1  UNL     1      29.811   2.154  54.754  1.00  0.00    -0.206 F 
HETATM   26  C16 UNL     1      27.774   1.262  53.919  1.00  0.00     0.051 A 
ENDBRANCH  19  20
ENDBRANCH  18  19
ENDBRANCH   4  18
TORSDOF 9
ENDMDL
MODEL 8
REMARK VINA RESULT:      -6.8      2.774      4.004
REMARK  9 active torsions:
REMARK  status: ('A' for Active; 'I' for Inactive)
REMARK    1  A    between atoms: N1_2  and  C2_3 
REMARK    2  A    between atoms: C2_3  and  C3_4 
REMARK    3  A    between atoms: C3_4  and  C4_5 
REMARK    4  A    between atoms: C3_4  and  N3_8 
REMARK    5  A    between atoms: C4_5  and  C5_6 
REMARK    6  A    between atoms: N3_8  and  C6_9 
REMARK    7  A    between atoms: C9_12  and  O1_13 
REMARK    8  A    between atoms: O1_13  and  C10_14 
REMARK    9  A    between atoms: C10_14  and  C11_15 
ROOT
HETATM    1  C6  UNL     1      26.000   2.325  53.246  1.00  0.00     0.030 A 
HETATM    2  C7  UNL     1      24.659   2.660  53.439  1.00  0.00     0.032 A 
HETATM    3  C8  UNL     1      23.952   3.139  52.363  1.00  0.00     0.041 A 
HETATM    4  C9  UNL     1      24.440   3.322  51.102  1.00  0.00     0.091 A 
HETATM    5  C17 UNL     1      25.790   2.983  50.913  1.00  0.00     0.069 A 
HETATM    6 CL1  UNL     1      26.630   3.141  49.359  1.00  0.00    -0.081 Cl
HETATM    7  C18 UNL     1      26.560   2.490  51.975  1.00  0.00     0.056 A 
ENDROOT
BRANCH   1   8
HETATM    8  N3  UNL     1      26.767   1.809  54.326  1.00  0.00    -0.383 N 
HETATM    9  H10 UNL     1      27.264   2.534  54.926  1.00  0.00     0.160 HD
BRANCH   8  10
HETATM   10  C3  UNL     1      26.964   0.431  54.721  1.00  0.00     0.103 C 
BRANCH  10  11
HETATM   11  C2  UNL     1      26.260  -0.544  53.787  1.00  0.00     0.127 C 
BRANCH  11  12
HETATM   12  N1  UNL     1      27.168  -1.564  53.343  1.00  0.00    -0.444 NA
HETATM   13  C1  UNL     1      26.964  -2.321  52.348  1.00  0.00     0.324 C 
ENDBRANCH  11  12
ENDBRANCH  10  11
BRANCH  10  14
HETATM   14  C4  UNL     1      28.421   0.096  54.755  1.00  0.00     0.073 C 
BRANCH  14  15
HETATM   15  C5  UNL     1      29.296   1.148  54.181  1.00  0.00     0.082 C 
HETATM   16  N2  UNL     1      29.643   2.267  54.699  1.00  0.00    -0.316 NA
HETATM   17  H9  UNL     1      29.336   2.579  55.626  1.00  0.00     0.185 HD
ENDBRANCH  14  15
ENDBRANCH  10  14
ENDBRANCH   8  10
ENDBRANCH   1   8
BRANCH   4  18
HETATM   18  O1  UNL     1      23.884   3.773  49.968  1.00  0.00    -0.345 OA
BRANCH  18  19
HETATM   19  C10 UNL     1      22.758   3.470  49.251  1.00  0.00     0.214 C 
BRANCH  19  20
HETATM   20  C11 UNL     1      21.800   2.533  49.842  1.00  0.00    -0.031 A 
HETATM   21  C12 UNL     1      21.789   1.164  49.845  1.00  0.00     0.009 A 
HETATM   22  C13 UNL     1      20.809   0.401  50.435  1.00  0.00     0.004 A 
HETATM   23  C14 UNL     1      19.755   1.003  51.078  1.00  0.00     0.042 A 
HETATM   24  C15 UNL     1      19.680   2.378  51.127  1.00  0.00     0.117 A 
HETATM   25  F1  UNL     1      18.666   3.026  51.744  1.00  0.00    -0.206 F 
HETATM   26  C16 UNL     1      20.697   3.079  50.513  1.00  0.00     0.051 A 
ENDBRANCH  19  20
ENDBRANCH  18  19
ENDBRANCH   4  18
TORSDOF 9
ENDMDL
MODEL 9
REMARK VINA RESULT:      -6.8      5.638      7.923
REMARK  9 active torsions:
REMARK  status: ('A' for Active; 'I' for Inactive)
REMARK    1  A    between atoms: N1_2  and  C2_3 
REMARK    2  A    between atoms: C2_3  and  C3_4 
REMARK    3  A    between atoms: C3_4  and  C4_5 
REMARK    4  A    between atoms: C3_4  and  N3_8 
REMARK    5  A    between atoms: C4_5  and  C5_6 
REMARK    6  A    between atoms: N3_8  and  C6_9 
REMARK    7  A    between atoms: C9_12  and  O1_13 
REMARK    8  A    between atoms: O1_13  and  C10_14 
REMARK    9  A    between atoms: C10_14  and  C11_15 
ROOT
HETATM    1  C6  UNL     1      27.328   6.085  48.612  1.00  0.00     0.030 A 
HETATM    2  C7  UNL     1      27.649   4.727  48.654  1.00  0.00     0.032 A 
HETATM    3  C8  UNL     1      26.811   3.887  49.346  1.00  0.00     0.041 A 
HETATM    4  C9  UNL     1      25.675   4.254  50.005  1.00  0.00     0.091 A 
HETATM    5  C17 UNL     1      25.355   5.622  49.961  1.00  0.00     0.069 A 
HETATM    6 CL1  UNL     1      23.928   6.319  50.748  1.00  0.00    -0.081 Cl
HETATM    7  C18 UNL     1      26.175   6.526  49.270  1.00  0.00     0.056 A 
ENDROOT
BRANCH   1   8
HETATM    8  N3  UNL     1      28.156   6.990  47.895  1.00  0.00    -0.383 N 
HETATM    9  H10 UNL     1      27.745   7.375  46.993  1.00  0.00     0.160 HD
BRANCH   8  10
HETATM   10  C3  UNL     1      29.485   7.459  48.226  1.00  0.00     0.103 C 
BRANCH  10  11
HETATM   11  C2  UNL     1      30.544   6.910  47.279  1.00  0.00     0.127 C 
BRANCH  11  12
HETATM   12  N1  UNL     1      31.630   6.330  48.017  1.00  0.00    -0.444 NA
HETATM   13  C1  UNL     1      31.547   5.922  49.213  1.00  0.00     0.324 C 
ENDBRANCH  11  12
ENDBRANCH  10  11
BRANCH  10  14
HETATM   14  C4  UNL     1      29.540   8.953  48.194  1.00  0.00     0.073 C 
BRANCH  14  15
HETATM   15  C5  UNL     1      29.196   9.596  49.487  1.00  0.00     0.082 C 
HETATM   16  N2  UNL     1      28.220   9.335  50.274  1.00  0.00    -0.316 NA
HETATM   17  H9  UNL     1      27.524   8.606  50.085  1.00  0.00     0.185 HD
ENDBRANCH  14  15
ENDBRANCH  10  14
ENDBRANCH   8  10
ENDBRANCH   1   8
BRANCH   4  18
HETATM   18  O1  UNL     1      24.770   3.562  50.713  1.00  0.00    -0.345 OA
BRANCH  18  19
HETATM   19  C10 UNL     1      24.696   3.087  51.994  1.00  0.00     0.214 C 
BRANCH  19  20
HETATM   20  C11 UNL     1      25.216   1.743  52.259  1.00  0.00    -0.031 A 
HETATM   21  C12 UNL     1      26.330   1.115  51.772  1.00  0.00     0.009 A 
HETATM   22  C13 UNL     1      26.698  -0.169  52.099  1.00  0.00     0.004 A 
HETATM   23  C14 UNL     1      25.934  -0.909  52.968  1.00  0.00     0.042 A 
HETATM   24  C15 UNL     1      24.791  -0.359  53.511  1.00  0.00     0.117 A 
HETATM   25  F1  UNL     1      24.000  -1.040  54.370  1.00  0.00    -0.206 F 
HETATM   26  C16 UNL     1      24.484   0.932  53.137  1.00  0.00     0.051 A 
ENDBRANCH  19  20
ENDBRANCH  18  19
ENDBRANCH   4  18
TORSDOF 9
ENDMDL
