MODEL 1
REMARK VINA RESULT:      -9.3      0.000      0.000
REMARK  0 active torsions:
REMARK  status: ('A' for Active; 'I' for Inactive)
ROOT
HETATM    1  C1  UNL     1      18.843   5.231  50.114  1.00  0.00     0.045 C 
HETATM    2  C2  UNL     1      19.660   4.439  49.206  1.00  0.00    -0.056 C 
HETATM    3  C3  UNL     1      19.858   3.194  49.492  1.00  0.00     0.007 C 
HETATM    4  C4  UNL     1      19.622   2.126  50.392  1.00  0.00     0.038 C 
HETATM    5  C5  UNL     1      19.153   1.546  51.444  1.00  0.00     0.099 C 
HETATM    6  F1  UNL     1      18.653   2.761  51.684  1.00  0.00    -0.210 F 
HETATM    7  C6  UNL     1      19.356   0.123  51.788  1.00  0.00     0.128 C 
HETATM    8  C7  UNL     1      20.327  -0.045  52.913  1.00  0.00     0.057 C 
HETATM    9  N1  UNL     1      21.254   0.454  52.137  1.00  0.00    -0.288 NA
HETATM   10  C8  UNL     1      22.204   1.443  52.597  1.00  0.00     0.206 C 
HETATM   11  C9  UNL     1      23.216   0.650  53.389  1.00  0.00     0.037 C 
HETATM   12  C10 UNL     1      24.490   0.751  53.652  1.00  0.00     0.068 C 
HETATM   13  C11 UNL     1      25.640   1.636  53.358  1.00  0.00     0.188 C 
HETATM   14  C12 UNL     1      26.868   1.448  53.812  1.00  0.00     0.125 C 
HETATM   15 CL1  UNL     1      28.197   2.482  53.461  1.00  0.00    -0.095 Cl
HETATM   16  N2  UNL     1      25.502   2.820  52.542  1.00  0.00     0.138 N 
HETATM   17  C13 UNL     1      25.173   2.910  51.161  1.00  0.00     0.312 A 
HETATM   18  O1  UNL     1      25.242   1.787  51.577  1.00  0.00    -0.120 OA
HETATM   19  C14 UNL     1      24.993   4.013  50.295  1.00  0.00     0.067 C 
HETATM   20  C15 UNL     1      24.986   5.258  50.075  1.00  0.00     0.007 C 
HETATM   21  C16 UNL     1      24.822   6.441  49.276  1.00  0.00     0.299 C 
HETATM   22  N3  UNL     1      24.341   6.229  47.902  1.00  0.00     0.089 N 
HETATM   23  C17 UNL     1      24.215   7.518  47.287  1.00  0.00     0.310 C 
HETATM   24  C18 UNL     1      23.094   5.557  48.064  1.00  0.00     0.302 C 
HETATM   25  C19 UNL     1      22.292   5.250  46.823  1.00  0.00     0.300 C 
HETATM   26  N4  UNL     1      21.179   4.429  47.338  1.00  0.00     0.088 N 
HETATM   27  C20 UNL     1      20.289   5.242  48.090  1.00  0.00     0.303 C 
HETATM   28  N5  UNL     1      22.505  -0.479  53.958  1.00  0.00    -0.315 N 
HETATM   29  C21 UNL     1      22.424  -1.806  54.469  1.00  0.00     0.208 A 
HETATM   30  N6  UNL     1      21.168  -1.643  54.646  1.00  0.00    -0.252 NA
HETATM   31  C22 UNL     1      21.066  -0.314  54.174  1.00  0.00     0.263 A 
HETATM   32  H12 UNL     1      25.690   3.682  53.134  1.00  0.00     0.335 HD
HETATM   33  H24 UNL     1      20.758   3.928  46.528  1.00  0.00     0.316 HD
ENDROOT
TORSDOF 0
ENDMDL
MODEL 2
REMARK VINA RESULT:      -9.1      3.217      5.455
REMARK  0 active torsions:
REMARK  status: ('A' for Active; 'I' for Inactive)
ROOT
HETATM    1  C1  UNL     1      26.385   3.376  49.293  1.00  0.00     0.045 C 
HETATM    2  C2  UNL     1      25.807   4.215  50.332  1.00  0.00    -0.056 C 
HETATM    3  C3  UNL     1      25.378   3.643  51.410  1.00  0.00     0.007 C 
HETATM    4  C4  UNL     1      25.185   2.433  52.120  1.00  0.00     0.038 C 
HETATM    5  C5  UNL     1      25.222   1.160  52.323  1.00  0.00     0.099 C 
HETATM    6  F1  UNL     1      25.765   1.153  51.102  1.00  0.00    -0.210 F 
HETATM    7  C6  UNL     1      24.749   0.483  53.549  1.00  0.00     0.128 C 
HETATM    8  C7  UNL     1      23.459  -0.240  53.322  1.00  0.00     0.057 C 
HETATM    9  N1  UNL     1      22.893   0.918  53.099  1.00  0.00    -0.288 NA
HETATM   10  C8  UNL     1      21.976   1.136  52.003  1.00  0.00     0.206 C 
HETATM   11  C9  UNL     1      20.676   0.530  52.477  1.00  0.00     0.037 C 
HETATM   12  C10 UNL     1      19.406   0.759  52.280  1.00  0.00     0.068 C 
HETATM   13  C11 UNL     1      18.526   1.683  51.531  1.00  0.00     0.188 C 
HETATM   14  C12 UNL     1      17.204   1.638  51.544  1.00  0.00     0.125 C 
HETATM   15 CL1  UNL     1      16.191   2.719  50.670  1.00  0.00    -0.095 Cl
HETATM   16  N2  UNL     1      19.058   2.728  50.687  1.00  0.00     0.138 N 
HETATM   17  C13 UNL     1      19.815   3.871  51.065  1.00  0.00     0.312 A 
HETATM   18  O1  UNL     1      19.481   3.178  51.984  1.00  0.00    -0.120 OA
HETATM   19  C14 UNL     1      20.393   4.921  50.314  1.00  0.00     0.067 C 
HETATM   20  C15 UNL     1      20.621   5.500  49.213  1.00  0.00     0.007 C 
HETATM   21  C16 UNL     1      21.172   6.520  48.364  1.00  0.00     0.299 C 
HETATM   22  N3  UNL     1      22.034   7.512  49.026  1.00  0.00     0.089 N 
HETATM   23  C17 UNL     1      22.504   8.414  48.016  1.00  0.00     0.310 C 
HETATM   24  C18 UNL     1      23.072   6.738  49.620  1.00  0.00     0.302 C 
HETATM   25  C19 UNL     1      24.182   7.475  50.330  1.00  0.00     0.300 C 
HETATM   26  N4  UNL     1      24.967   6.386  50.946  1.00  0.00     0.088 N 
HETATM   27  C20 UNL     1      25.665   5.668  49.939  1.00  0.00     0.303 C 
HETATM   28  N5  UNL     1      21.027  -0.565  53.361  1.00  0.00    -0.315 N 
HETATM   29  C21 UNL     1      20.779  -1.457  54.443  1.00  0.00     0.208 A 
HETATM   30  N6  UNL     1      21.926  -1.989  54.244  1.00  0.00    -0.252 NA
HETATM   31  C22 UNL     1      22.333  -1.193  53.149  1.00  0.00     0.263 A 
HETATM   32  H12 UNL     1      18.800   2.532  49.675  1.00  0.00     0.335 HD
HETATM   33  H24 UNL     1      25.557   6.808  51.692  1.00  0.00     0.316 HD
ENDROOT
TORSDOF 0
ENDMDL
MODEL 3
REMARK VINA RESULT:      -8.8      2.770      6.002
REMARK  0 active torsions:
REMARK  status: ('A' for Active; 'I' for Inactive)
ROOT
HETATM    1  C1  UNL     1      19.854   3.897  46.715  1.00  0.00     0.045 C 
HETATM    2  C2  UNL     1      19.606   4.483  48.024  1.00  0.00    -0.056 C 
HETATM    3  C3  UNL     1      20.625   4.785  48.760  1.00  0.00     0.007 C 
HETATM    4  C4  UNL     1      22.035   4.802  48.894  1.00  0.00     0.038 C 
HETATM    5  C5  UNL     1      23.260   4.599  48.546  1.00  0.00     0.099 C 
HETATM    6  F1  UNL     1      22.687   4.105  47.445  1.00  0.00    -0.210 F 
HETATM    7  C6  UNL     1      24.442   4.945  49.364  1.00  0.00     0.128 C 
HETATM    8  C7  UNL     1      25.083   3.731  49.956  1.00  0.00     0.057 C 
HETATM    9  N1  UNL     1      23.991   3.539  50.650  1.00  0.00    -0.288 NA
HETATM   10  C8  UNL     1      23.379   2.236  50.793  1.00  0.00     0.206 C 
HETATM   11  C9  UNL     1      24.226   1.536  51.828  1.00  0.00     0.037 C 
HETATM   12  C10 UNL     1      24.029   0.631  52.748  1.00  0.00     0.068 C 
HETATM   13  C11 UNL     1      22.936  -0.201  53.300  1.00  0.00     0.188 C 
HETATM   14  C12 UNL     1      23.080  -1.073  54.284  1.00  0.00     0.125 C 
HETATM   15 CL1  UNL     1      21.802  -2.034  54.918  1.00  0.00    -0.095 Cl
HETATM   16  N2  UNL     1      21.590  -0.136  52.779  1.00  0.00     0.138 N 
HETATM   17  C13 UNL     1      20.679   0.956  52.816  1.00  0.00     0.312 A 
HETATM   18  O1  UNL     1      21.730   1.175  53.351  1.00  0.00    -0.120 OA
HETATM   19  C14 UNL     1      19.366   1.117  52.316  1.00  0.00     0.067 C 
HETATM   20  C15 UNL     1      18.345   0.668  51.719  1.00  0.00     0.007 C 
HETATM   21  C16 UNL     1      17.018   0.735  51.174  1.00  0.00     0.299 C 
HETATM   22  N3  UNL     1      16.359   2.050  51.241  1.00  0.00     0.089 N 
HETATM   23  C17 UNL     1      15.072   1.917  50.624  1.00  0.00     0.310 C 
HETATM   24  C18 UNL     1      17.237   2.921  50.534  1.00  0.00     0.302 C 
HETATM   25  C19 UNL     1      16.810   4.358  50.355  1.00  0.00     0.300 C 
HETATM   26  N4  UNL     1      17.998   4.986  49.743  1.00  0.00     0.088 N 
HETATM   27  C20 UNL     1      18.144   4.537  48.404  1.00  0.00     0.303 C 
HETATM   28  N5  UNL     1      25.571   2.065  51.692  1.00  0.00    -0.315 N 
HETATM   29  C21 UNL     1      26.863   2.397  52.186  1.00  0.00     0.208 A 
HETATM   30  N6  UNL     1      27.167   2.857  51.031  1.00  0.00    -0.252 NA
HETATM   31  C22 UNL     1      25.942   2.594  50.378  1.00  0.00     0.263 A 
HETATM   32  H12 UNL     1      21.337  -1.066  52.334  1.00  0.00     0.335 HD
HETATM   33  H24 UNL     1      17.906   6.016  49.867  1.00  0.00     0.316 HD
ENDROOT
TORSDOF 0
ENDMDL
MODEL 4
REMARK VINA RESULT:      -8.6      3.513      5.924
REMARK  0 active torsions:
REMARK  status: ('A' for Active; 'I' for Inactive)
ROOT
HETATM    1  C1  UNL     1      25.450   1.144  51.645  1.00  0.00     0.045 C 
HETATM    2  C2  UNL     1      24.657   2.257  52.146  1.00  0.00    -0.056 C 
HETATM    3  C3  UNL     1      23.618   1.990  52.868  1.00  0.00     0.007 C 
HETATM    4  C4  UNL     1      22.801   0.994  53.457  1.00  0.00     0.038 C 
HETATM    5  C5  UNL     1      22.414  -0.201  53.748  1.00  0.00     0.099 C 
HETATM    6  F1  UNL     1      23.475  -0.541  53.010  1.00  0.00    -0.210 F 
HETATM    7  C6  UNL     1      21.238  -0.533  54.579  1.00  0.00     0.128 C 
HETATM    8  C7  UNL     1      20.104  -1.057  53.756  1.00  0.00     0.057 C 
HETATM    9  N1  UNL     1      20.035   0.114  53.176  1.00  0.00    -0.288 NA
HETATM   10  C8  UNL     1      19.880   0.264  51.746  1.00  0.00     0.206 C 
HETATM   11  C9  UNL     1      18.415  -0.007  51.498  1.00  0.00     0.037 C 
HETATM   12  C10 UNL     1      17.519   0.391  50.637  1.00  0.00     0.068 C 
HETATM   13  C11 UNL     1      17.396   1.285  49.463  1.00  0.00     0.188 C 
HETATM   14  C12 UNL     1      16.283   1.469  48.773  1.00  0.00     0.125 C 
HETATM   15 CL1  UNL     1      16.151   2.513  47.411  1.00  0.00    -0.095 Cl
HETATM   16  N2  UNL     1      18.520   2.037  48.956  1.00  0.00     0.138 N 
HETATM   17  C13 UNL     1      19.241   3.087  49.589  1.00  0.00     0.312 A 
HETATM   18  O1  UNL     1      18.330   2.655  50.239  1.00  0.00    -0.120 OA
HETATM   19  C14 UNL     1      20.357   3.855  49.184  1.00  0.00     0.067 C 
HETATM   20  C15 UNL     1      21.243   4.158  48.334  1.00  0.00     0.007 C 
HETATM   21  C16 UNL     1      22.379   4.881  47.834  1.00  0.00     0.299 C 
HETATM   22  N3  UNL     1      23.006   5.824  48.775  1.00  0.00     0.089 N 
HETATM   23  C17 UNL     1      24.127   6.416  48.105  1.00  0.00     0.310 C 
HETATM   24  C18 UNL     1      23.376   5.017  49.889  1.00  0.00     0.302 C 
HETATM   25  C19 UNL     1      24.121   5.680  51.022  1.00  0.00     0.300 C 
HETATM   26  N4  UNL     1      24.191   4.617  52.045  1.00  0.00     0.088 N 
HETATM   27  C20 UNL     1      25.098   3.606  51.626  1.00  0.00     0.303 C 
HETATM   28  N5  UNL     1      17.989  -0.950  52.515  1.00  0.00    -0.315 N 
HETATM   29  C21 UNL     1      17.020  -1.555  53.363  1.00  0.00     0.208 A 
HETATM   30  N6  UNL     1      17.937  -2.304  53.849  1.00  0.00    -0.252 NA
HETATM   31  C22 UNL     1      19.022  -1.820  53.083  1.00  0.00     0.263 A 
HETATM   32  H12 UNL     1      18.766   1.693  47.982  1.00  0.00     0.335 HD
HETATM   33  H24 UNL     1      24.410   5.071  52.955  1.00  0.00     0.316 HD
ENDROOT
TORSDOF 0
ENDMDL
MODEL 5
REMARK VINA RESULT:      -8.6      3.123      5.503
REMARK  0 active torsions:
REMARK  status: ('A' for Active; 'I' for Inactive)
ROOT
HETATM    1  C1  UNL     1      24.727   4.466  48.706  1.00  0.00     0.045 C 
HETATM    2  C2  UNL     1      23.982   5.069  49.801  1.00  0.00    -0.056 C 
HETATM    3  C3  UNL     1      24.155   4.594  50.992  1.00  0.00     0.007 C 
HETATM    4  C4  UNL     1      24.808   3.641  51.810  1.00  0.00     0.038 C 
HETATM    5  C5  UNL     1      25.590   2.652  52.084  1.00  0.00     0.099 C 
HETATM    6  F1  UNL     1      25.807   2.680  50.766  1.00  0.00    -0.210 F 
HETATM    7  C6  UNL     1      25.813   2.098  53.436  1.00  0.00     0.128 C 
HETATM    8  C7  UNL     1      25.135   0.777  53.615  1.00  0.00     0.057 C 
HETATM    9  N1  UNL     1      23.988   1.389  53.471  1.00  0.00    -0.288 NA
HETATM   10  C8  UNL     1      22.923   0.860  52.649  1.00  0.00     0.206 C 
HETATM   11  C9  UNL     1      22.301  -0.226  53.494  1.00  0.00     0.037 C 
HETATM   12  C10 UNL     1      21.111  -0.745  53.630  1.00  0.00     0.068 C 
HETATM   13  C11 UNL     1      19.744  -0.601  53.081  1.00  0.00     0.188 C 
HETATM   14  C12 UNL     1      18.704  -1.330  53.452  1.00  0.00     0.125 C 
HETATM   15 CL1  UNL     1      17.119  -1.151  52.808  1.00  0.00    -0.095 Cl
HETATM   16  N2  UNL     1      19.432   0.367  52.055  1.00  0.00     0.138 N 
HETATM   17  C13 UNL     1      19.472   1.787  52.135  1.00  0.00     0.312 A 
HETATM   18  O1  UNL     1      19.761   1.229  53.157  1.00  0.00    -0.120 OA
HETATM   19  C14 UNL     1      19.212   2.801  51.185  1.00  0.00     0.067 C 
HETATM   20  C15 UNL     1      18.868   3.171  50.026  1.00  0.00     0.007 C 
HETATM   21  C16 UNL     1      18.585   4.127  48.991  1.00  0.00     0.299 C 
HETATM   22  N3  UNL     1      18.847   5.536  49.327  1.00  0.00     0.089 N 
HETATM   23  C17 UNL     1      18.534   6.319  48.167  1.00  0.00     0.310 C 
HETATM   24  C18 UNL     1      20.229   5.566  49.673  1.00  0.00     0.302 C 
HETATM   25  C19 UNL     1      20.842   6.904  50.007  1.00  0.00     0.300 C 
HETATM   26  N4  UNL     1      22.200   6.545  50.464  1.00  0.00     0.088 N 
HETATM   27  C20 UNL     1      22.981   6.112  49.360  1.00  0.00     0.303 C 
HETATM   28  N5  UNL     1      23.361  -0.763  54.327  1.00  0.00    -0.315 N 
HETATM   29  C21 UNL     1      23.860  -1.405  55.495  1.00  0.00     0.208 A 
HETATM   30  N6  UNL     1      25.048  -1.283  55.034  1.00  0.00    -0.252 NA
HETATM   31  C22 UNL     1      24.728  -0.638  53.817  1.00  0.00     0.263 A 
HETATM   32  H12 UNL     1      19.147  -0.139  51.166  1.00  0.00     0.335 HD
HETATM   33  H24 UNL     1      22.577   7.358  50.993  1.00  0.00     0.316 HD
ENDROOT
TORSDOF 0
ENDMDL
MODEL 6
REMARK VINA RESULT:      -8.6      2.134      2.710
REMARK  0 active torsions:
REMARK  status: ('A' for Active; 'I' for Inactive)
ROOT
HETATM    1  C1  UNL     1      16.404   3.888  49.733  1.00  0.00     0.045 C 
HETATM    2  C2  UNL     1      17.097   2.990  48.821  1.00  0.00    -0.056 C 
HETATM    3  C3  UNL     1      17.599   1.900  49.301  1.00  0.00     0.007 C 
HETATM    4  C4  UNL     1      17.815   1.090  50.443  1.00  0.00     0.038 C 
HETATM    5  C5  UNL     1      17.755   0.757  51.687  1.00  0.00     0.099 C 
HETATM    6  F1  UNL     1      17.109   1.921  51.792  1.00  0.00    -0.210 F 
HETATM    7  C6  UNL     1      18.311  -0.487  52.259  1.00  0.00     0.128 C 
HETATM    8  C7  UNL     1      19.553  -0.229  53.052  1.00  0.00     0.057 C 
HETATM    9  N1  UNL     1      20.133   0.156  51.944  1.00  0.00    -0.288 NA
HETATM   10  C8  UNL     1      20.960   1.341  51.871  1.00  0.00     0.206 C 
HETATM   11  C9  UNL     1      22.275   0.918  52.479  1.00  0.00     0.037 C 
HETATM   12  C10 UNL     1      23.530   1.241  52.322  1.00  0.00     0.068 C 
HETATM   13  C11 UNL     1      24.371   2.150  51.511  1.00  0.00     0.188 C 
HETATM   14  C12 UNL     1      25.687   2.242  51.607  1.00  0.00     0.125 C 
HETATM   15 CL1  UNL     1      26.654   3.302  50.657  1.00  0.00    -0.095 Cl
HETATM   16  N2  UNL     1      23.801   3.048  50.533  1.00  0.00     0.138 N 
HETATM   17  C13 UNL     1      23.116   2.726  49.329  1.00  0.00     0.312 A 
HETATM   18  O1  UNL     1      23.506   1.772  49.942  1.00  0.00    -0.120 OA
HETATM   19  C14 UNL     1      22.508   3.528  48.336  1.00  0.00     0.067 C 
HETATM   20  C15 UNL     1      22.204   4.660  47.859  1.00  0.00     0.007 C 
HETATM   21  C16 UNL     1      21.614   5.558  46.906  1.00  0.00     0.299 C 
HETATM   22  N3  UNL     1      20.844   4.930  45.820  1.00  0.00     0.089 N 
HETATM   23  C17 UNL     1      20.317   5.984  45.002  1.00  0.00     0.310 C 
HETATM   24  C18 UNL     1      19.837   4.178  46.490  1.00  0.00     0.302 C 
HETATM   25  C19 UNL     1      18.817   3.455  45.644  1.00  0.00     0.300 C 
HETATM   26  N4  UNL     1      18.054   2.670  46.635  1.00  0.00     0.088 N 
HETATM   27  C20 UNL     1      17.249   3.538  47.420  1.00  0.00     0.303 C 
HETATM   28  N5  UNL     1      21.969  -0.098  53.468  1.00  0.00    -0.315 N 
HETATM   29  C21 UNL     1      22.281  -1.240  54.259  1.00  0.00     0.208 A 
HETATM   30  N6  UNL     1      21.105  -1.191  54.762  1.00  0.00    -0.252 NA
HETATM   31  C22 UNL     1      20.630  -0.060  54.061  1.00  0.00     0.263 A 
HETATM   32  H12 UNL     1      23.965   4.053  50.837  1.00  0.00     0.335 HD
HETATM   33  H24 UNL     1      17.544   1.924  46.119  1.00  0.00     0.316 HD
ENDROOT
TORSDOF 0
ENDMDL
MODEL 7
REMARK VINA RESULT:      -8.5      3.546      5.731
REMARK  0 active torsions:
REMARK  status: ('A' for Active; 'I' for Inactive)
ROOT
HETATM    1  C1  UNL     1      24.725   4.927  49.132  1.00  0.00     0.045 C 
HETATM    2  C2  UNL     1      23.958   5.533  50.209  1.00  0.00    -0.056 C 
HETATM    3  C3  UNL     1      23.750   4.836  51.278  1.00  0.00     0.007 C 
HETATM    4  C4  UNL     1      23.943   3.607  51.955  1.00  0.00     0.038 C 
HETATM    5  C5  UNL     1      24.360   2.398  52.118  1.00  0.00     0.099 C 
HETATM    6  F1  UNL     1      24.843   2.579  50.886  1.00  0.00    -0.210 F 
HETATM    7  C6  UNL     1      24.145   1.584  53.333  1.00  0.00     0.128 C 
HETATM    8  C7  UNL     1      23.119   0.518  53.113  1.00  0.00     0.057 C 
HETATM    9  N1  UNL     1      22.231   1.462  52.939  1.00  0.00    -0.288 NA
HETATM   10  C8  UNL     1      21.256   1.424  51.871  1.00  0.00     0.206 C 
HETATM   11  C9  UNL     1      20.208   0.451  52.354  1.00  0.00     0.037 C 
HETATM   12  C10 UNL     1      18.921   0.299  52.194  1.00  0.00     0.068 C 
HETATM   13  C11 UNL     1      17.785   0.939  51.493  1.00  0.00     0.188 C 
HETATM   14  C12 UNL     1      16.536   0.505  51.535  1.00  0.00     0.125 C 
HETATM   15 CL1  UNL     1      15.223   1.258  50.718  1.00  0.00    -0.095 Cl
HETATM   16  N2  UNL     1      17.961   2.113  50.670  1.00  0.00     0.138 N 
HETATM   17  C13 UNL     1      18.358   3.420  51.066  1.00  0.00     0.312 A 
HETATM   18  O1  UNL     1      18.271   2.638  51.971  1.00  0.00    -0.120 OA
HETATM   19  C14 UNL     1      18.578   4.610  50.334  1.00  0.00     0.067 C 
HETATM   20  C15 UNL     1      18.592   5.255  49.247  1.00  0.00     0.007 C 
HETATM   21  C16 UNL     1      18.792   6.411  48.418  1.00  0.00     0.299 C 
HETATM   22  N3  UNL     1      19.343   7.599  49.091  1.00  0.00     0.089 N 
HETATM   23  C17 UNL     1      19.495   8.622  48.098  1.00  0.00     0.310 C 
HETATM   24  C18 UNL     1      20.581   7.153  49.636  1.00  0.00     0.302 C 
HETATM   25  C19 UNL     1      21.445   8.168  50.344  1.00  0.00     0.300 C 
HETATM   26  N4  UNL     1      22.535   7.345  50.908  1.00  0.00     0.088 N 
HETATM   27  C20 UNL     1      23.383   6.889  49.864  1.00  0.00     0.303 C 
HETATM   28  N5  UNL     1      20.892  -0.512  53.196  1.00  0.00    -0.315 N 
HETATM   29  C21 UNL     1      20.952  -1.461  54.256  1.00  0.00     0.208 A 
HETATM   30  N6  UNL     1      22.197  -1.627  54.015  1.00  0.00    -0.252 NA
HETATM   31  C22 UNL     1      22.318  -0.722  52.936  1.00  0.00     0.263 A 
HETATM   32  H12 UNL     1      17.740   1.873  49.659  1.00  0.00     0.335 HD
HETATM   33  H24 UNL     1      22.997   7.906  51.653  1.00  0.00     0.316 HD
ENDROOT
TORSDOF 0
ENDMDL
MODEL 8
REMARK VINA RESULT:      -8.4      2.230      3.641
REMARK  0 active torsions:
REMARK  status: ('A' for Active; 'I' for Inactive)
ROOT
HETATM    1  C1  UNL     1      17.514   3.059  51.573  1.00  0.00     0.045 C 
HETATM    2  C2  UNL     1      18.004   2.432  50.355  1.00  0.00    -0.056 C 
HETATM    3  C3  UNL     1      18.932   1.538  50.459  1.00  0.00     0.007 C 
HETATM    4  C4  UNL     1      19.795   0.812  51.315  1.00  0.00     0.038 C 
HETATM    5  C5  UNL     1      20.327   0.453  52.434  1.00  0.00     0.099 C 
HETATM    6  F1  UNL     1      19.484   1.363  52.931  1.00  0.00    -0.210 F 
HETATM    7  C6  UNL     1      21.381  -0.572  52.582  1.00  0.00     0.128 C 
HETATM    8  C7  UNL     1      22.713   0.038  52.882  1.00  0.00     0.057 C 
HETATM    9  N1  UNL     1      22.678   0.602  51.702  1.00  0.00    -0.288 NA
HETATM   10  C8  UNL     1      23.050   1.984  51.490  1.00  0.00     0.206 C 
HETATM   11  C9  UNL     1      24.559   1.971  51.500  1.00  0.00     0.037 C 
HETATM   12  C10 UNL     1      25.509   2.665  50.932  1.00  0.00     0.068 C 
HETATM   13  C11 UNL     1      25.676   3.802  50.000  1.00  0.00     0.188 C 
HETATM   14  C12 UNL     1      26.842   4.289  49.611  1.00  0.00     0.125 C 
HETATM   15 CL1  UNL     1      27.024   5.611  48.524  1.00  0.00    -0.095 Cl
HETATM   16  N2  UNL     1      24.543   4.501  49.438  1.00  0.00     0.138 N 
HETATM   17  C13 UNL     1      23.553   4.008  48.544  1.00  0.00     0.312 A 
HETATM   18  O1  UNL     1      24.399   3.207  48.830  1.00  0.00    -0.120 OA
HETATM   19  C14 UNL     1      22.408   4.605  47.968  1.00  0.00     0.067 C 
HETATM   20  C15 UNL     1      21.643   5.598  47.799  1.00  0.00     0.007 C 
HETATM   21  C16 UNL     1      20.503   6.291  47.267  1.00  0.00     0.299 C 
HETATM   22  N3  UNL     1      19.569   5.479  46.471  1.00  0.00     0.089 N 
HETATM   23  C17 UNL     1      18.495   6.336  46.062  1.00  0.00     0.310 C 
HETATM   24  C18 UNL     1      19.157   4.442  47.358  1.00  0.00     0.302 C 
HETATM   25  C19 UNL     1      18.125   3.459  46.862  1.00  0.00     0.300 C 
HETATM   26  N4  UNL     1      18.064   2.461  47.948  1.00  0.00     0.088 N 
HETATM   27  C20 UNL     1      17.432   3.027  49.087  1.00  0.00     0.303 C 
HETATM   28  N5  UNL     1      24.960   0.892  52.383  1.00  0.00    -0.315 N 
HETATM   29  C21 UNL     1      25.859  -0.115  52.835  1.00  0.00     0.208 A 
HETATM   30  N6  UNL     1      25.015  -0.437  53.742  1.00  0.00    -0.252 NA
HETATM   31  C22 UNL     1      24.011   0.509  53.431  1.00  0.00     0.263 A 
HETATM   32  H12 UNL     1      24.533   5.502  49.794  1.00  0.00     0.335 HD
HETATM   33  H24 UNL     1      17.616   1.604  47.562  1.00  0.00     0.316 HD
ENDROOT
TORSDOF 0
ENDMDL
MODEL 9
REMARK VINA RESULT:      -8.3      2.927      6.223
REMARK  0 active torsions:
REMARK  status: ('A' for Active; 'I' for Inactive)
ROOT
HETATM    1  C1  UNL     1      23.758   7.097  50.836  1.00  0.00     0.045 C 
HETATM    2  C2  UNL     1      23.988   5.941  49.982  1.00  0.00    -0.056 C 
HETATM    3  C3  UNL     1      22.992   5.478  49.299  1.00  0.00     0.007 C 
HETATM    4  C4  UNL     1      21.619   5.590  48.971  1.00  0.00     0.038 C 
HETATM    5  C5  UNL     1      20.427   6.080  49.014  1.00  0.00     0.099 C 
HETATM    6  F1  UNL     1      20.988   6.921  49.888  1.00  0.00    -0.210 F 
HETATM    7  C6  UNL     1      19.274   5.577  48.237  1.00  0.00     0.128 C 
HETATM    8  C7  UNL     1      18.306   4.830  49.099  1.00  0.00     0.057 C 
HETATM    9  N1  UNL     1      19.240   3.938  49.309  1.00  0.00    -0.288 NA
HETATM   10  C8  UNL     1      19.512   3.391  50.620  1.00  0.00     0.206 C 
HETATM   11  C9  UNL     1      18.415   2.376  50.837  1.00  0.00     0.037 C 
HETATM   12  C10 UNL     1      18.293   1.249  51.484  1.00  0.00     0.068 C 
HETATM   13  C11 UNL     1      19.093   0.341  52.336  1.00  0.00     0.188 C 
HETATM   14  C12 UNL     1      18.642  -0.783  52.868  1.00  0.00     0.125 C 
HETATM   15 CL1  UNL     1      19.583  -1.831  53.856  1.00  0.00    -0.095 Cl
HETATM   16  N2  UNL     1      20.467   0.629  52.678  1.00  0.00     0.138 N 
HETATM   17  C13 UNL     1      21.597   0.700  51.817  1.00  0.00     0.312 A 
HETATM   18  O1  UNL     1      20.573   0.416  51.261  1.00  0.00    -0.120 OA
HETATM   19  C14 UNL     1      22.959   0.997  52.057  1.00  0.00     0.067 C 
HETATM   20  C15 UNL     1      23.907   1.291  52.840  1.00  0.00     0.007 C 
HETATM   21  C16 UNL     1      25.266   1.607  53.184  1.00  0.00     0.299 C 
HETATM   22  N3  UNL     1      26.200   1.743  52.055  1.00  0.00     0.089 N 
HETATM   23  C17 UNL     1      27.482   2.087  52.598  1.00  0.00     0.310 C 
HETATM   24  C18 UNL     1      25.634   2.774  51.250  1.00  0.00     0.302 C 
HETATM   25  C19 UNL     1      26.400   3.212  50.026  1.00  0.00     0.300 C 
HETATM   26  N4  UNL     1      25.467   4.146  49.363  1.00  0.00     0.088 N 
HETATM   27  C20 UNL     1      25.371   5.346  50.116  1.00  0.00     0.303 C 
HETATM   28  N5  UNL     1      17.254   2.856  50.111  1.00  0.00    -0.315 N 
HETATM   29  C21 UNL     1      16.028   2.678  49.411  1.00  0.00     0.208 A 
HETATM   30  N6  UNL     1      15.970   3.943  49.226  1.00  0.00    -0.252 NA
HETATM   31  C22 UNL     1      17.165   4.301  49.890  1.00  0.00     0.263 A 
HETATM   32  H12 UNL     1      20.544   0.794  53.724  1.00  0.00     0.335 HD
HETATM   33  H24 UNL     1      25.782   4.255  48.377  1.00  0.00     0.316 HD
ENDROOT
TORSDOF 0
ENDMDL
