MODEL 1
REMARK VINA RESULT:      -8.0      0.000      0.000
REMARK  4 active torsions:
REMARK  status: ('A' for Active; 'I' for Inactive)
REMARK    1  A    between atoms: C7_7  and  N1_8 
REMARK    2  A    between atoms: N1_8  and  C8_9 
REMARK    3  A    between atoms: C17_21  and  O1_22 
REMARK    4  A    between atoms: O1_22  and  P1_23 
ROOT
HETATM    1  C1  UNL     1      29.119   5.908  48.520  1.00  0.00     0.013 C 
HETATM    2  C2  UNL     1      28.018   5.398  48.531  1.00  0.00    -0.102 C 
HETATM    3  C3  UNL     1      26.670   4.779  48.521  1.00  0.00     0.145 A 
HETATM    4  C4  UNL     1      26.643   3.642  49.478  1.00  0.00     0.011 A 
HETATM    5  C5  UNL     1      25.824   3.613  50.510  1.00  0.00    -0.006 A 
HETATM    6  C6  UNL     1      25.998   2.395  51.284  1.00  0.00     0.064 A 
HETATM    7  C7  UNL     1      25.350   2.030  52.378  1.00  0.00     0.130 A 
HETATM    8  N2  UNL     1      24.333   2.757  53.041  1.00  0.00    -0.224 NA
HETATM    9  C14 UNL     1      23.805   3.881  52.779  1.00  0.00     0.235 A 
HETATM   10  N3  UNL     1      24.039   4.809  51.737  1.00  0.00    -0.241 NA
HETATM   11  C15 UNL     1      24.885   4.692  50.790  1.00  0.00     0.070 A 
HETATM   12  C16 UNL     1      24.846   5.838  49.909  1.00  0.00     0.066 A 
HETATM   13  C17 UNL     1      25.682   5.831  48.885  1.00  0.00     0.072 A 
ENDROOT
BRANCH  13  14
HETATM   14  O1  UNL     1      25.638   6.937  48.040  1.00  0.00    -0.333 OA
BRANCH  14  15
HETATM   15  P1  UNL     1      25.734   8.580  48.652  1.00  0.00     0.008 P 
HETATM   16  H12 UNL     1      24.403   8.920  49.139  1.00  0.00     0.085 HD
HETATM   17  H13 UNL     1      26.152   9.435  47.557  1.00  0.00     0.085 HD
ENDBRANCH  14  15
ENDBRANCH  13  14
BRANCH   7  18
HETATM   18  N1  UNL     1      25.631   0.795  53.036  1.00  0.00    -0.341 N 
HETATM   19  H5  UNL     1      24.745   0.315  53.311  1.00  0.00     0.167 HD
BRANCH  18  20
HETATM   20  C8  UNL     1      26.916   0.238  53.310  1.00  0.00     0.033 A 
HETATM   21  C9  UNL     1      27.837   0.936  54.062  1.00  0.00     0.032 A 
HETATM   22  C10 UNL     1      29.063   0.391  54.317  1.00  0.00     0.044 A 
HETATM   23  C11 UNL     1      29.360  -0.862  53.808  1.00  0.00     0.116 A 
HETATM   24  F1  UNL     1      30.585  -1.387  54.072  1.00  0.00    -0.206 F 
HETATM   25  C12 UNL     1      28.439  -1.541  53.063  1.00  0.00     0.044 A 
HETATM   26  C13 UNL     1      27.180  -1.019  52.785  1.00  0.00     0.032 A 
ENDBRANCH  18  20
ENDBRANCH   7  18
TORSDOF 4
ENDMDL
MODEL 2
REMARK VINA RESULT:      -7.9      2.132      2.510
REMARK  4 active torsions:
REMARK  status: ('A' for Active; 'I' for Inactive)
REMARK    1  A    between atoms: C7_7  and  N1_8 
REMARK    2  A    between atoms: N1_8  and  C8_9 
REMARK    3  A    between atoms: C17_21  and  O1_22 
REMARK    4  A    between atoms: O1_22  and  P1_23 
ROOT
HETATM    1  C1  UNL     1      25.531   6.574  50.104  1.00  0.00     0.013 C 
HETATM    2  C2  UNL     1      25.274   5.440  49.760  1.00  0.00    -0.102 C 
HETATM    3  C3  UNL     1      24.965   4.059  49.315  1.00  0.00     0.145 A 
HETATM    4  C4  UNL     1      25.314   3.103  50.398  1.00  0.00     0.011 A 
HETATM    5  C5  UNL     1      24.416   2.319  50.959  1.00  0.00    -0.006 A 
HETATM    6  C6  UNL     1      25.016   1.484  51.986  1.00  0.00     0.064 A 
HETATM    7  C7  UNL     1      24.420   0.583  52.750  1.00  0.00     0.130 A 
HETATM    8  N2  UNL     1      23.050   0.233  52.732  1.00  0.00    -0.224 NA
HETATM    9  C14 UNL     1      22.088   0.662  52.024  1.00  0.00     0.235 A 
HETATM   10  N3  UNL     1      22.037   1.640  51.002  1.00  0.00    -0.241 NA
HETATM   11  C15 UNL     1      23.014   2.330  50.560  1.00  0.00     0.070 A 
HETATM   12  C16 UNL     1      22.587   3.231  49.513  1.00  0.00     0.066 A 
HETATM   13  C17 UNL     1      23.516   4.003  48.975  1.00  0.00     0.072 A 
ENDROOT
BRANCH  13  14
HETATM   14  O1  UNL     1      23.098   4.867  47.966  1.00  0.00    -0.333 OA
BRANCH  14  15
HETATM   15  P1  UNL     1      21.726   5.943  48.173  1.00  0.00     0.008 P 
HETATM   16  H12 UNL     1      20.547   5.197  47.750  1.00  0.00     0.085 HD
HETATM   17  H13 UNL     1      21.957   7.115  47.351  1.00  0.00     0.085 HD
ENDBRANCH  14  15
ENDBRANCH  13  14
BRANCH   7  18
HETATM   18  N1  UNL     1      25.144  -0.168  53.724  1.00  0.00    -0.341 N 
HETATM   19  H5  UNL     1      24.494  -0.572  54.434  1.00  0.00     0.167 HD
BRANCH  18  20
HETATM   20  C8  UNL     1      26.555  -0.374  53.777  1.00  0.00     0.033 A 
HETATM   21  C9  UNL     1      27.338   0.351  54.650  1.00  0.00     0.032 A 
HETATM   22  C10 UNL     1      28.687   0.142  54.690  1.00  0.00     0.044 A 
HETATM   23  C11 UNL     1      29.247  -0.801  53.844  1.00  0.00     0.116 A 
HETATM   24  F1  UNL     1      30.591  -0.994  53.899  1.00  0.00    -0.206 F 
HETATM   25  C12 UNL     1      28.460  -1.511  52.984  1.00  0.00     0.044 A 
HETATM   26  C13 UNL     1      27.082  -1.327  52.917  1.00  0.00     0.032 A 
ENDBRANCH  18  20
ENDBRANCH   7  18
TORSDOF 4
ENDMDL
MODEL 3
REMARK VINA RESULT:      -7.9      5.214      6.547
REMARK  4 active torsions:
REMARK  status: ('A' for Active; 'I' for Inactive)
REMARK    1  A    between atoms: C7_7  and  N1_8 
REMARK    2  A    between atoms: N1_8  and  C8_9 
REMARK    3  A    between atoms: C17_21  and  O1_22 
REMARK    4  A    between atoms: O1_22  and  P1_23 
ROOT
HETATM    1  C1  UNL     1      18.726   3.133  51.405  1.00  0.00     0.013 C 
HETATM    2  C2  UNL     1      19.321   2.078  51.337  1.00  0.00    -0.102 C 
HETATM    3  C3  UNL     1      20.031   0.779  51.238  1.00  0.00     0.145 A 
HETATM    4  C4  UNL     1      21.497   1.012  51.312  1.00  0.00     0.011 A 
HETATM    5  C5  UNL     1      22.243   0.493  52.265  1.00  0.00    -0.006 A 
HETATM    6  C6  UNL     1      23.637   0.873  52.107  1.00  0.00     0.064 A 
HETATM    7  C7  UNL     1      24.662   0.537  52.874  1.00  0.00     0.130 A 
HETATM    8  N2  UNL     1      24.621  -0.276  54.031  1.00  0.00    -0.224 NA
HETATM    9  C14 UNL     1      23.653  -0.864  54.604  1.00  0.00     0.235 A 
HETATM   10  N3  UNL     1      22.273  -0.918  54.298  1.00  0.00    -0.241 NA
HETATM   11  C15 UNL     1      21.688  -0.349  53.319  1.00  0.00     0.070 A 
HETATM   12  C16 UNL     1      20.269  -0.627  53.323  1.00  0.00     0.066 A 
HETATM   13  C17 UNL     1      19.553  -0.087  52.351  1.00  0.00     0.072 A 
ENDROOT
BRANCH  13  14
HETATM   14  O1  UNL     1      18.187  -0.360  52.360  1.00  0.00    -0.333 OA
BRANCH  14  15
HETATM   15  P1  UNL     1      17.515  -1.712  53.257  1.00  0.00     0.008 P 
HETATM   16  H12 UNL     1      16.800  -1.143  54.392  1.00  0.00     0.085 HD
HETATM   17  H13 UNL     1      18.618  -2.557  53.672  1.00  0.00     0.085 HD
ENDBRANCH  14  15
ENDBRANCH  13  14
BRANCH   7  18
HETATM   18  N1  UNL     1      25.986   0.990  52.593  1.00  0.00    -0.341 N 
HETATM   19  H5  UNL     1      25.962   1.875  52.041  1.00  0.00     0.167 HD
BRANCH  18  20
HETATM   20  C8  UNL     1      27.209   0.366  52.983  1.00  0.00     0.033 A 
HETATM   21  C9  UNL     1      27.423  -0.974  52.739  1.00  0.00     0.032 A 
HETATM   22  C10 UNL     1      28.599  -1.556  53.117  1.00  0.00     0.044 A 
HETATM   23  C11 UNL     1      29.560  -0.783  53.745  1.00  0.00     0.116 A 
HETATM   24  F1  UNL     1      30.723  -1.382  54.114  1.00  0.00    -0.206 F 
HETATM   25  C12 UNL     1      29.335   0.542  53.981  1.00  0.00     0.044 A 
HETATM   26  C13 UNL     1      28.151   1.171  53.609  1.00  0.00     0.032 A 
ENDBRANCH  18  20
ENDBRANCH   7  18
TORSDOF 4
ENDMDL
MODEL 4
REMARK VINA RESULT:      -7.7      1.376      2.070
REMARK  4 active torsions:
REMARK  status: ('A' for Active; 'I' for Inactive)
REMARK    1  A    between atoms: C7_7  and  N1_8 
REMARK    2  A    between atoms: N1_8  and  C8_9 
REMARK    3  A    between atoms: C17_21  and  O1_22 
REMARK    4  A    between atoms: O1_22  and  P1_23 
ROOT
HETATM    1  C1  UNL     1      30.521   6.968  48.614  1.00  0.00     0.013 C 
HETATM    2  C2  UNL     1      29.411   6.605  48.288  1.00  0.00    -0.102 C 
HETATM    3  C3  UNL     1      28.057   6.170  47.866  1.00  0.00     0.145 A 
HETATM    4  C4  UNL     1      27.690   4.927  48.593  1.00  0.00     0.011 A 
HETATM    5  C5  UNL     1      26.642   4.862  49.389  1.00  0.00    -0.006 A 
HETATM    6  C6  UNL     1      26.507   3.538  49.974  1.00  0.00     0.064 A 
HETATM    7  C7  UNL     1      25.578   3.114  50.814  1.00  0.00     0.130 A 
HETATM    8  N2  UNL     1      24.499   3.867  51.333  1.00  0.00    -0.224 NA
HETATM    9  C14 UNL     1      24.157   5.075  51.143  1.00  0.00     0.235 A 
HETATM   10  N3  UNL     1      24.725   6.098  50.349  1.00  0.00    -0.241 NA
HETATM   11  C15 UNL     1      25.765   6.004  49.617  1.00  0.00     0.070 A 
HETATM   12  C16 UNL     1      26.049   7.255  48.949  1.00  0.00     0.066 A 
HETATM   13  C17 UNL     1      27.110   7.281  48.158  1.00  0.00     0.072 A 
ENDROOT
BRANCH  13  14
HETATM   14  O1  UNL     1      27.377   8.488  47.518  1.00  0.00    -0.333 OA
BRANCH  14  15
HETATM   15  P1  UNL     1      26.858  10.029  48.182  1.00  0.00     0.008 P 
HETATM   16  H12 UNL     1      25.416   9.936  48.366  1.00  0.00     0.085 HD
HETATM   17  H13 UNL     1      27.224  11.063  47.233  1.00  0.00     0.085 HD
ENDBRANCH  14  15
ENDBRANCH  13  14
BRANCH   7  18
HETATM   18  N1  UNL     1      25.573   1.775  51.309  1.00  0.00    -0.341 N 
HETATM   19  H5  UNL     1      24.701   1.279  51.019  1.00  0.00     0.167 HD
BRANCH  18  20
HETATM   20  C8  UNL     1      26.585   1.144  52.093  1.00  0.00     0.033 A 
HETATM   21  C9  UNL     1      26.680  -0.231  52.142  1.00  0.00     0.032 A 
HETATM   22  C10 UNL     1      27.655  -0.820  52.896  1.00  0.00     0.044 A 
HETATM   23  C11 UNL     1      28.533  -0.018  53.604  1.00  0.00     0.116 A 
HETATM   24  F1  UNL     1      29.495  -0.624  54.349  1.00  0.00    -0.206 F 
HETATM   25  C12 UNL     1      28.427   1.341  53.548  1.00  0.00     0.044 A 
HETATM   26  C13 UNL     1      27.449   1.977  52.790  1.00  0.00     0.032 A 
ENDBRANCH  18  20
ENDBRANCH   7  18
TORSDOF 4
ENDMDL
MODEL 5
REMARK VINA RESULT:      -7.7      3.076      4.629
REMARK  4 active torsions:
REMARK  status: ('A' for Active; 'I' for Inactive)
REMARK    1  A    between atoms: C7_7  and  N1_8 
REMARK    2  A    between atoms: N1_8  and  C8_9 
REMARK    3  A    between atoms: C17_21  and  O1_22 
REMARK    4  A    between atoms: O1_22  and  P1_23 
ROOT
HETATM    1  C1  UNL     1      20.010   0.264  51.664  1.00  0.00     0.013 C 
HETATM    2  C2  UNL     1      20.639   1.301  51.686  1.00  0.00    -0.102 C 
HETATM    3  C3  UNL     1      21.386   2.582  51.717  1.00  0.00     0.145 A 
HETATM    4  C4  UNL     1      22.733   2.352  52.302  1.00  0.00     0.011 A 
HETATM    5  C5  UNL     1      23.841   2.589  51.630  1.00  0.00    -0.006 A 
HETATM    6  C6  UNL     1      25.016   2.283  52.428  1.00  0.00     0.064 A 
HETATM    7  C7  UNL     1      26.287   2.400  52.079  1.00  0.00     0.130 A 
HETATM    8  N2  UNL     1      26.784   2.853  50.835  1.00  0.00    -0.224 NA
HETATM    9  C14 UNL     1      26.182   3.244  49.788  1.00  0.00     0.235 A 
HETATM   10  N3  UNL     1      24.805   3.368  49.488  1.00  0.00    -0.241 NA
HETATM   11  C15 UNL     1      23.830   3.093  50.262  1.00  0.00     0.070 A 
HETATM   12  C16 UNL     1      22.561   3.344  49.615  1.00  0.00     0.066 A 
HETATM   13  C17 UNL     1      21.471   3.094  50.321  1.00  0.00     0.072 A 
ENDROOT
BRANCH  13  14
HETATM   14  O1  UNL     1      20.253   3.339  49.693  1.00  0.00    -0.333 OA
BRANCH  14  15
HETATM   15  P1  UNL     1      19.380   4.847  49.911  1.00  0.00     0.008 P 
HETATM   16  H12 UNL     1      18.345   4.586  50.903  1.00  0.00     0.085 HD
HETATM   17  H13 UNL     1      18.825   5.224  48.625  1.00  0.00     0.085 HD
ENDBRANCH  14  15
ENDBRANCH  13  14
BRANCH   7  18
HETATM   18  N1  UNL     1      27.343   2.058  52.977  1.00  0.00    -0.341 N 
HETATM   19  H5  UNL     1      27.634   2.890  53.535  1.00  0.00     0.167 HD
BRANCH  18  20
HETATM   20  C8  UNL     1      27.957   0.779  53.136  1.00  0.00     0.033 A 
HETATM   21  C9  UNL     1      27.286  -0.371  52.775  1.00  0.00     0.032 A 
HETATM   22  C10 UNL     1      27.887  -1.587  52.932  1.00  0.00     0.044 A 
HETATM   23  C11 UNL     1      29.167  -1.642  53.458  1.00  0.00     0.116 A 
HETATM   24  F1  UNL     1      29.747  -2.862  53.607  1.00  0.00    -0.206 F 
HETATM   25  C12 UNL     1      29.818  -0.496  53.812  1.00  0.00     0.044 A 
HETATM   26  C13 UNL     1      29.240   0.761  53.665  1.00  0.00     0.032 A 
ENDBRANCH  18  20
ENDBRANCH   7  18
TORSDOF 4
ENDMDL
MODEL 6
REMARK VINA RESULT:      -7.5      4.527      7.430
REMARK  4 active torsions:
REMARK  status: ('A' for Active; 'I' for Inactive)
REMARK    1  A    between atoms: C7_7  and  N1_8 
REMARK    2  A    between atoms: N1_8  and  C8_9 
REMARK    3  A    between atoms: C17_21  and  O1_22 
REMARK    4  A    between atoms: O1_22  and  P1_23 
ROOT
HETATM    1  C1  UNL     1      27.169  -2.126  52.697  1.00  0.00     0.013 C 
HETATM    2  C2  UNL     1      26.690  -1.035  52.925  1.00  0.00    -0.102 C 
HETATM    3  C3  UNL     1      26.105   0.293  53.229  1.00  0.00     0.145 A 
HETATM    4  C4  UNL     1      26.584   1.283  52.228  1.00  0.00     0.011 A 
HETATM    5  C5  UNL     1      25.759   1.936  51.436  1.00  0.00    -0.006 A 
HETATM    6  C6  UNL     1      26.482   2.840  50.555  1.00  0.00     0.064 A 
HETATM    7  C7  UNL     1      25.981   3.649  49.636  1.00  0.00     0.130 A 
HETATM    8  N2  UNL     1      24.616   3.810  49.305  1.00  0.00    -0.224 NA
HETATM    9  C14 UNL     1      23.572   3.258  49.772  1.00  0.00     0.235 A 
HETATM   10  N3  UNL     1      23.398   2.288  50.787  1.00  0.00    -0.241 NA
HETATM   11  C15 UNL     1      24.316   1.738  51.480  1.00  0.00     0.070 A 
HETATM   12  C16 UNL     1      23.763   0.792  52.424  1.00  0.00     0.066 A 
HETATM   13  C17 UNL     1      24.623   0.156  53.202  1.00  0.00     0.072 A 
ENDROOT
BRANCH  13  14
HETATM   14  O1  UNL     1      24.084  -0.753  54.110  1.00  0.00    -0.333 OA
BRANCH  14  15
HETATM   15  P1  UNL     1      22.352  -0.897  54.365  1.00  0.00     0.008 P 
HETATM   16  H12 UNL     1      21.966  -2.207  53.858  1.00  0.00     0.085 HD
HETATM   17  H13 UNL     1      21.709   0.183  53.641  1.00  0.00     0.085 HD
ENDBRANCH  14  15
ENDBRANCH  13  14
BRANCH   7  18
HETATM   18  N1  UNL     1      26.820   4.485  48.840  1.00  0.00    -0.341 N 
HETATM   19  H5  UNL     1      27.346   3.918  48.139  1.00  0.00     0.167 HD
BRANCH  18  20
HETATM   20  C8  UNL     1      26.965   5.902  48.939  1.00  0.00     0.033 A 
HETATM   21  C9  UNL     1      26.126   6.638  49.748  1.00  0.00     0.032 A 
HETATM   22  C10 UNL     1      26.277   7.993  49.833  1.00  0.00     0.044 A 
HETATM   23  C11 UNL     1      27.278   8.605  49.097  1.00  0.00     0.116 A 
HETATM   24  F1  UNL     1      27.411   9.954  49.196  1.00  0.00    -0.206 F 
HETATM   25  C12 UNL     1      28.101   7.864  48.300  1.00  0.00     0.044 A 
HETATM   26  C13 UNL     1      27.978   6.482  48.189  1.00  0.00     0.032 A 
ENDBRANCH  18  20
ENDBRANCH   7  18
TORSDOF 4
ENDMDL
MODEL 7
REMARK VINA RESULT:      -7.4      4.427      7.088
REMARK  4 active torsions:
REMARK  status: ('A' for Active; 'I' for Inactive)
REMARK    1  A    between atoms: C7_7  and  N1_8 
REMARK    2  A    between atoms: N1_8  and  C8_9 
REMARK    3  A    between atoms: C17_21  and  O1_22 
REMARK    4  A    between atoms: O1_22  and  P1_23 
ROOT
HETATM    1  C1  UNL     1      26.316  -1.204  52.862  1.00  0.00     0.013 C 
HETATM    2  C2  UNL     1      25.430  -0.396  53.047  1.00  0.00    -0.102 C 
HETATM    3  C3  UNL     1      24.342   0.581  53.294  1.00  0.00     0.145 A 
HETATM    4  C4  UNL     1      24.718   1.895  52.708  1.00  0.00     0.011 A 
HETATM    5  C5  UNL     1      24.002   2.474  51.766  1.00  0.00    -0.006 A 
HETATM    6  C6  UNL     1      24.585   3.745  51.370  1.00  0.00     0.064 A 
HETATM    7  C7  UNL     1      24.138   4.593  50.457  1.00  0.00     0.130 A 
HETATM    8  N2  UNL     1      22.982   4.442  49.657  1.00  0.00    -0.224 NA
HETATM    9  C14 UNL     1      22.118   3.514  49.605  1.00  0.00     0.235 A 
HETATM   10  N3  UNL     1      22.000   2.300  50.323  1.00  0.00    -0.241 NA
HETATM   11  C15 UNL     1      22.790   1.870  51.225  1.00  0.00     0.070 A 
HETATM   12  C16 UNL     1      22.352   0.591  51.738  1.00  0.00     0.066 A 
HETATM   13  C17 UNL     1      23.096   0.041  52.684  1.00  0.00     0.072 A 
ENDROOT
BRANCH  13  14
HETATM   14  O1  UNL     1      22.668  -1.190  53.174  1.00  0.00    -0.333 OA
BRANCH  14  15
HETATM   15  P1  UNL     1      21.508  -1.317  54.486  1.00  0.00     0.008 P 
HETATM   16  H12 UNL     1      20.186  -1.217  53.881  1.00  0.00     0.085 HD
HETATM   17  H13 UNL     1      21.771  -0.232  55.412  1.00  0.00     0.085 HD
ENDBRANCH  14  15
ENDBRANCH  13  14
BRANCH   7  18
HETATM   18  N1  UNL     1      24.822   5.814  50.173  1.00  0.00    -0.341 N 
HETATM   19  H5  UNL     1      24.303   6.626  50.573  1.00  0.00     0.167 HD
BRANCH  18  20
HETATM   20  C8  UNL     1      26.043   5.968  49.451  1.00  0.00     0.033 A 
HETATM   21  C9  UNL     1      26.474   7.218  49.061  1.00  0.00     0.032 A 
HETATM   22  C10 UNL     1      27.646   7.350  48.371  1.00  0.00     0.044 A 
HETATM   23  C11 UNL     1      28.382   6.216  48.074  1.00  0.00     0.116 A 
HETATM   24  F1  UNL     1      29.545   6.369  47.387  1.00  0.00    -0.206 F 
HETATM   25  C12 UNL     1      27.943   4.984  48.466  1.00  0.00     0.044 A 
HETATM   26  C13 UNL     1      26.757   4.811  49.171  1.00  0.00     0.032 A 
ENDBRANCH  18  20
ENDBRANCH   7  18
TORSDOF 4
ENDMDL
MODEL 8
REMARK VINA RESULT:      -7.2      5.743      7.631
REMARK  4 active torsions:
REMARK  status: ('A' for Active; 'I' for Inactive)
REMARK    1  A    between atoms: C7_7  and  N1_8 
REMARK    2  A    between atoms: N1_8  and  C8_9 
REMARK    3  A    between atoms: C17_21  and  O1_22 
REMARK    4  A    between atoms: O1_22  and  P1_23 
ROOT
HETATM    1  C1  UNL     1      26.703   3.099  49.642  1.00  0.00     0.013 C 
HETATM    2  C2  UNL     1      26.369   2.911  50.793  1.00  0.00    -0.102 C 
HETATM    3  C3  UNL     1      25.980   2.695  52.208  1.00  0.00     0.145 A 
HETATM    4  C4  UNL     1      24.499   2.611  52.305  1.00  0.00     0.011 A 
HETATM    5  C5  UNL     1      23.884   1.537  52.757  1.00  0.00    -0.006 A 
HETATM    6  C6  UNL     1      22.442   1.715  52.748  1.00  0.00     0.064 A 
HETATM    7  C7  UNL     1      21.516   0.851  53.131  1.00  0.00     0.130 A 
HETATM    8  N2  UNL     1      21.733  -0.452  53.638  1.00  0.00    -0.224 NA
HETATM    9  C14 UNL     1      22.805  -1.098  53.848  1.00  0.00     0.235 A 
HETATM   10  N3  UNL     1      24.164  -0.753  53.652  1.00  0.00    -0.241 NA
HETATM   11  C15 UNL     1      24.609   0.351  53.196  1.00  0.00     0.070 A 
HETATM   12  C16 UNL     1      26.054   0.346  53.135  1.00  0.00     0.066 A 
HETATM   13  C17 UNL     1      26.635   1.442  52.675  1.00  0.00     0.072 A 
ENDROOT
BRANCH  13  14
HETATM   14  O1  UNL     1      28.026   1.432  52.620  1.00  0.00    -0.333 OA
BRANCH  14  15
HETATM   15  P1  UNL     1      29.003   0.764  53.918  1.00  0.00     0.008 P 
HETATM   16  H12 UNL     1      29.643   1.895  54.579  1.00  0.00     0.085 HD
HETATM   17  H13 UNL     1      29.969  -0.140  53.323  1.00  0.00     0.085 HD
ENDBRANCH  14  15
ENDBRANCH  13  14
BRANCH   7  18
HETATM   18  N1  UNL     1      20.126   1.167  53.065  1.00  0.00    -0.341 N 
HETATM   19  H5  UNL     1      19.851   1.782  53.862  1.00  0.00     0.167 HD
BRANCH  18  20
HETATM   20  C8  UNL     1      19.191   0.734  52.077  1.00  0.00     0.033 A 
HETATM   21  C9  UNL     1      19.169   1.318  50.828  1.00  0.00     0.032 A 
HETATM   22  C10 UNL     1      18.269   0.892  49.893  1.00  0.00     0.044 A 
HETATM   23  C11 UNL     1      17.389  -0.124  50.221  1.00  0.00     0.116 A 
HETATM   24  F1  UNL     1      16.501  -0.533  49.277  1.00  0.00    -0.206 F 
HETATM   25  C12 UNL     1      17.421  -0.693  51.462  1.00  0.00     0.044 A 
HETATM   26  C13 UNL     1      18.324  -0.288  52.439  1.00  0.00     0.032 A 
ENDBRANCH  18  20
ENDBRANCH   7  18
TORSDOF 4
ENDMDL
MODEL 9
REMARK VINA RESULT:      -7.1      1.913      2.364
REMARK  4 active torsions:
REMARK  status: ('A' for Active; 'I' for Inactive)
REMARK    1  A    between atoms: C7_7  and  N1_8 
REMARK    2  A    between atoms: N1_8  and  C8_9 
REMARK    3  A    between atoms: C17_21  and  O1_22 
REMARK    4  A    between atoms: O1_22  and  P1_23 
ROOT
HETATM    1  C1  UNL     1      29.741   7.942  48.626  1.00  0.00     0.013 C 
HETATM    2  C2  UNL     1      28.761   7.308  48.295  1.00  0.00    -0.102 C 
HETATM    3  C3  UNL     1      27.563   6.545  47.868  1.00  0.00     0.145 A 
HETATM    4  C4  UNL     1      27.560   5.218  48.539  1.00  0.00     0.011 A 
HETATM    5  C5  UNL     1      26.587   4.840  49.343  1.00  0.00    -0.006 A 
HETATM    6  C6  UNL     1      26.825   3.505  49.865  1.00  0.00     0.064 A 
HETATM    7  C7  UNL     1      26.063   2.811  50.694  1.00  0.00     0.130 A 
HETATM    8  N2  UNL     1      24.835   3.224  51.261  1.00  0.00    -0.224 NA
HETATM    9  C14 UNL     1      24.177   4.302  51.132  1.00  0.00     0.235 A 
HETATM   10  N3  UNL     1      24.432   5.474  50.381  1.00  0.00    -0.241 NA
HETATM   11  C15 UNL     1      25.441   5.694  49.634  1.00  0.00     0.070 A 
HETATM   12  C16 UNL     1      25.365   7.002  49.024  1.00  0.00     0.066 A 
HETATM   13  C17 UNL     1      26.360   7.346  48.223  1.00  0.00     0.072 A 
ENDROOT
BRANCH  13  14
HETATM   14  O1  UNL     1      26.280   8.607  47.638  1.00  0.00    -0.333 OA
BRANCH  14  15
HETATM   15  P1  UNL     1      25.821  10.032  48.557  1.00  0.00     0.008 P 
HETATM   16  H12 UNL     1      26.986  10.410  49.345  1.00  0.00     0.085 HD
HETATM   17  H13 UNL     1      24.689   9.672  49.389  1.00  0.00     0.085 HD
ENDBRANCH  14  15
ENDBRANCH  13  14
BRANCH   7  18
HETATM   18  N1  UNL     1      26.429   1.500  51.125  1.00  0.00    -0.341 N 
HETATM   19  H5  UNL     1      26.885   0.972  50.349  1.00  0.00     0.167 HD
BRANCH  18  20
HETATM   20  C8  UNL     1      26.228   0.932  52.419  1.00  0.00     0.033 A 
HETATM   21  C9  UNL     1      27.198   1.043  53.393  1.00  0.00     0.032 A 
HETATM   22  C10 UNL     1      26.990   0.495  54.626  1.00  0.00     0.044 A 
HETATM   23  C11 UNL     1      25.801  -0.168  54.876  1.00  0.00     0.116 A 
HETATM   24  F1  UNL     1      25.614  -0.706  56.110  1.00  0.00    -0.206 F 
HETATM   25  C12 UNL     1      24.850  -0.270  53.903  1.00  0.00     0.044 A 
HETATM   26  C13 UNL     1      25.024   0.276  52.635  1.00  0.00     0.032 A 
ENDBRANCH  18  20
ENDBRANCH   7  18
TORSDOF 4
ENDMDL
