MODEL 1
REMARK VINA RESULT:     -10.3      0.000      0.000
REMARK  10 active torsions:
REMARK  status: ('A' for Active; 'I' for Inactive)
REMARK    1  A    between atoms: C2_2  and  C3_3 
REMARK    2  A    between atoms: C2_2  and  N1_5 
REMARK    3  A    between atoms: C3_3  and  O1_4 
REMARK    4  A    between atoms: N1_5  and  C4_6 
REMARK    5  A    between atoms: C4_6  and  C5_7 
REMARK    6  A    between atoms: C8_10  and  C9_11 
REMARK    7  A    between atoms: C9_11  and  C10_12 
REMARK    8  A    between atoms: C16_18  and  O2_19 
REMARK    9  A    between atoms: C20_23  and  N2_24 
REMARK   10  A    between atoms: C23_27  and  N3_28 
ROOT
HETATM    1  C10 UNL     1      23.744  -0.061  53.160  1.00  0.00     0.075 A 
HETATM    2  C11 UNL     1      22.416  -0.536  53.571  1.00  0.00    -0.037 A 
HETATM    3  C12 UNL     1      21.081  -0.374  53.071  1.00  0.00    -0.026 A 
HETATM    4  C13 UNL     1      20.805   0.314  51.911  1.00  0.00     0.012 A 
HETATM    5  C14 UNL     1      19.543   0.509  51.398  1.00  0.00     0.004 A 
HETATM    6  C15 UNL     1      18.458  -0.001  52.057  1.00  0.00     0.036 A 
HETATM    7  C16 UNL     1      18.665  -0.698  53.222  1.00  0.00     0.066 A 
HETATM    8  C17 UNL     1      19.950  -0.859  53.685  1.00  0.00     0.048 A 
HETATM    9  C18 UNL     1      22.603  -1.284  54.664  1.00  0.00     0.011 A 
HETATM   10  C19 UNL     1      23.994  -1.378  55.058  1.00  0.00     0.028 A 
HETATM   11  C20 UNL     1      24.673  -0.665  54.179  1.00  0.00     0.044 A 
ENDROOT
BRANCH   1  12
HETATM   12  C9  UNL     1      23.843   1.457  53.257  1.00  0.00     0.054 C 
BRANCH  12  13
HETATM   13  C8  UNL     1      24.566   2.065  52.130  1.00  0.00    -0.057 A 
HETATM   14  C7  UNL     1      25.944   2.232  52.237  1.00  0.00     0.007 A 
HETATM   15  C6  UNL     1      26.707   2.793  51.235  1.00  0.00     0.009 A 
HETATM   16  C5  UNL     1      26.127   3.220  50.065  1.00  0.00    -0.030 A 
HETATM   17  C26 UNL     1      24.765   3.073  49.917  1.00  0.00     0.009 A 
HETATM   18  C25 UNL     1      24.039   2.507  50.942  1.00  0.00     0.007 A 
BRANCH  16  19
HETATM   19  C4  UNL     1      26.906   3.831  48.957  1.00  0.00     0.308 C 
BRANCH  19  20
HETATM   20  N1  UNL     1      27.357   5.111  49.413  1.00  0.00     0.093 N 
HETATM   21  H8  UNL     1      27.264   5.112  50.455  1.00  0.00     0.316 HD
BRANCH  20  22
HETATM   22  C2  UNL     1      26.595   6.232  48.907  1.00  0.00     0.240 C 
HETATM   23  C1  UNL     1      27.423   7.289  48.253  1.00  0.00     0.045 C 
BRANCH  22  24
HETATM   24  C3  UNL     1      25.705   6.844  49.941  1.00  0.00     0.199 C 
BRANCH  24  25
HETATM   25  O1  UNL     1      26.411   7.727  50.761  1.00  0.00    -0.399 OA
HETATM   26  H7  UNL     1      26.901   7.259  51.477  1.00  0.00     0.209 HD
ENDBRANCH  24  25
ENDBRANCH  22  24
ENDBRANCH  20  22
ENDBRANCH  19  20
ENDBRANCH  16  19
ENDBRANCH  12  13
ENDBRANCH   1  12
BRANCH  11  27
HETATM   27  N2  UNL     1      26.094  -0.491  54.178  1.00  0.00    -0.249 N 
HETATM   28  C21 UNL     1      26.875  -1.025  53.117  1.00  0.00     0.117 A 
HETATM   29  C22 UNL     1      28.172  -0.900  53.059  1.00  0.00     0.033 A 
HETATM   30  C23 UNL     1      28.916  -0.180  54.114  1.00  0.00     0.284 A 
HETATM   31  C24 UNL     1      28.062   0.350  55.182  1.00  0.00     0.151 A 
HETATM   32  N4  UNL     1      26.784   0.185  55.170  1.00  0.00    -0.182 NA
BRANCH  30  33
HETATM   33  N3  UNL     1      29.675   0.894  53.481  1.00  0.00     0.091 N 
HETATM   34  H26 UNL     1      29.653   1.778  54.016  1.00  0.00     0.314 HD
HETATM   35  H27 UNL     1      30.642   0.612  53.233  1.00  0.00     0.314 HD
ENDBRANCH  30  33
ENDBRANCH  11  27
BRANCH   7  36
HETATM   36  O2  UNL     1      17.583  -1.225  53.910  1.00  0.00    -0.361 OA
HETATM   37  H19 UNL     1      16.758  -1.560  53.419  1.00  0.00     0.217 HD
ENDBRANCH   7  36
TORSDOF 10
ENDMDL
MODEL 2
REMARK VINA RESULT:      -9.5      3.248      6.270
REMARK  10 active torsions:
REMARK  status: ('A' for Active; 'I' for Inactive)
REMARK    1  A    between atoms: C2_2  and  C3_3 
REMARK    2  A    between atoms: C2_2  and  N1_5 
REMARK    3  A    between atoms: C3_3  and  O1_4 
REMARK    4  A    between atoms: N1_5  and  C4_6 
REMARK    5  A    between atoms: C4_6  and  C5_7 
REMARK    6  A    between atoms: C8_10  and  C9_11 
REMARK    7  A    between atoms: C9_11  and  C10_12 
REMARK    8  A    between atoms: C16_18  and  O2_19 
REMARK    9  A    between atoms: C20_23  and  N2_24 
REMARK   10  A    between atoms: C23_27  and  N3_28 
ROOT
HETATM    1  C10 UNL     1      23.443   1.467  52.512  1.00  0.00     0.075 A 
HETATM    2  C11 UNL     1      24.537   0.646  53.050  1.00  0.00    -0.037 A 
HETATM    3  C12 UNL     1      25.938   0.845  53.275  1.00  0.00    -0.026 A 
HETATM    4  C13 UNL     1      26.561   2.050  53.037  1.00  0.00     0.012 A 
HETATM    5  C14 UNL     1      27.905   2.287  53.223  1.00  0.00     0.004 A 
HETATM    6  C15 UNL     1      28.713   1.281  53.677  1.00  0.00     0.036 A 
HETATM    7  C16 UNL     1      28.153   0.053  53.934  1.00  0.00     0.066 A 
HETATM    8  C17 UNL     1      26.805  -0.122  53.728  1.00  0.00     0.048 A 
HETATM    9  C18 UNL     1      23.996  -0.533  53.381  1.00  0.00     0.011 A 
HETATM   10  C19 UNL     1      22.574  -0.602  53.115  1.00  0.00     0.028 A 
HETATM   11  C20 UNL     1      22.239   0.569  52.607  1.00  0.00     0.044 A 
ENDROOT
BRANCH   1  12
HETATM   12  C9  UNL     1      23.678   1.806  51.045  1.00  0.00     0.054 C 
BRANCH  12  13
HETATM   13  C8  UNL     1      24.044   3.213  50.825  1.00  0.00    -0.057 A 
HETATM   14  C7  UNL     1      23.542   4.174  51.700  1.00  0.00     0.007 A 
HETATM   15  C6  UNL     1      23.827   5.517  51.574  1.00  0.00     0.009 A 
HETATM   16  C5  UNL     1      24.635   5.972  50.560  1.00  0.00    -0.030 A 
HETATM   17  C26 UNL     1      25.153   5.054  49.672  1.00  0.00     0.009 A 
HETATM   18  C25 UNL     1      24.843   3.722  49.833  1.00  0.00     0.007 A 
BRANCH  16  19
HETATM   19  C4  UNL     1      24.971   7.409  50.382  1.00  0.00     0.308 C 
BRANCH  19  20
HETATM   20  N1  UNL     1      26.391   7.531  50.513  1.00  0.00     0.093 N 
HETATM   21  H8  UNL     1      26.570   8.072  51.390  1.00  0.00     0.316 HD
BRANCH  20  22
HETATM   22  C2  UNL     1      27.036   8.236  49.427  1.00  0.00     0.240 C 
HETATM   23  C1  UNL     1      27.783   7.353  48.482  1.00  0.00     0.045 C 
BRANCH  22  24
HETATM   24  C3  UNL     1      27.921   9.346  49.900  1.00  0.00     0.199 C 
BRANCH  24  25
HETATM   25  O1  UNL     1      27.599   9.733  51.203  1.00  0.00    -0.399 OA
HETATM   26  H7  UNL     1      27.784   9.020  51.859  1.00  0.00     0.209 HD
ENDBRANCH  24  25
ENDBRANCH  22  24
ENDBRANCH  20  22
ENDBRANCH  19  20
ENDBRANCH  16  19
ENDBRANCH  12  13
ENDBRANCH   1  12
BRANCH  11  27
HETATM   27  N2  UNL     1      20.917   0.948  52.208  1.00  0.00    -0.249 N 
HETATM   28  C21 UNL     1      20.479   2.289  52.382  1.00  0.00     0.117 A 
HETATM   29  C22 UNL     1      19.288   2.695  52.038  1.00  0.00     0.033 A 
HETATM   30  C23 UNL     1      18.308   1.765  51.437  1.00  0.00     0.284 A 
HETATM   31  C24 UNL     1      18.813   0.398  51.282  1.00  0.00     0.151 A 
HETATM   32  N4  UNL     1      20.005   0.071  51.646  1.00  0.00    -0.182 NA
BRANCH  30  33
HETATM   33  N3  UNL     1      17.896   2.313  50.149  1.00  0.00     0.091 N 
HETATM   34  H26 UNL     1      17.614   1.585  49.470  1.00  0.00     0.314 HD
HETATM   35  H27 UNL     1      17.183   3.061  50.238  1.00  0.00     0.314 HD
ENDBRANCH  30  33
ENDBRANCH  11  27
BRANCH   7  36
HETATM   36  O2  UNL     1      28.951  -0.982  54.394  1.00  0.00    -0.361 OA
HETATM   37  H19 UNL     1      29.842  -0.801  54.849  1.00  0.00     0.217 HD
ENDBRANCH   7  36
TORSDOF 10
ENDMDL
MODEL 3
REMARK VINA RESULT:      -9.3      3.600      6.612
REMARK  10 active torsions:
REMARK  status: ('A' for Active; 'I' for Inactive)
REMARK    1  A    between atoms: C2_2  and  C3_3 
REMARK    2  A    between atoms: C2_2  and  N1_5 
REMARK    3  A    between atoms: C3_3  and  O1_4 
REMARK    4  A    between atoms: N1_5  and  C4_6 
REMARK    5  A    between atoms: C4_6  and  C5_7 
REMARK    6  A    between atoms: C8_10  and  C9_11 
REMARK    7  A    between atoms: C9_11  and  C10_12 
REMARK    8  A    between atoms: C16_18  and  O2_19 
REMARK    9  A    between atoms: C20_23  and  N2_24 
REMARK   10  A    between atoms: C23_27  and  N3_28 
ROOT
HETATM    1  C10 UNL     1      23.765   3.636  51.361  1.00  0.00     0.075 A 
HETATM    2  C11 UNL     1      23.910   2.456  52.223  1.00  0.00    -0.037 A 
HETATM    3  C12 UNL     1      25.015   1.666  52.685  1.00  0.00    -0.026 A 
HETATM    4  C13 UNL     1      26.322   1.980  52.389  1.00  0.00     0.012 A 
HETATM    5  C14 UNL     1      27.415   1.248  52.795  1.00  0.00     0.004 A 
HETATM    6  C15 UNL     1      27.232   0.121  53.549  1.00  0.00     0.036 A 
HETATM    7  C16 UNL     1      25.950  -0.248  53.879  1.00  0.00     0.066 A 
HETATM    8  C17 UNL     1      24.899   0.524  53.442  1.00  0.00     0.048 A 
HETATM    9  C18 UNL     1      22.676   2.124  52.620  1.00  0.00     0.011 A 
HETATM   10  C19 UNL     1      21.654   3.005  52.096  1.00  0.00     0.028 A 
HETATM   11  C20 UNL     1      22.283   3.899  51.357  1.00  0.00     0.044 A 
ENDROOT
BRANCH   1  12
HETATM   12  C9  UNL     1      24.206   3.336  49.934  1.00  0.00     0.054 C 
BRANCH  12  13
HETATM   13  C8  UNL     1      25.206   4.285  49.423  1.00  0.00    -0.057 A 
HETATM   14  C7  UNL     1      26.532   3.869  49.331  1.00  0.00     0.007 A 
HETATM   15  C6  UNL     1      27.539   4.688  48.866  1.00  0.00     0.009 A 
HETATM   16  C5  UNL     1      27.271   5.975  48.467  1.00  0.00    -0.030 A 
HETATM   17  C26 UNL     1      25.972   6.428  48.541  1.00  0.00     0.009 A 
HETATM   18  C25 UNL     1      24.995   5.577  49.011  1.00  0.00     0.007 A 
BRANCH  16  19
HETATM   19  C4  UNL     1      28.323   6.896  47.960  1.00  0.00     0.308 C 
BRANCH  19  20
HETATM   20  N1  UNL     1      28.890   7.556  49.097  1.00  0.00     0.093 N 
HETATM   21  H8  UNL     1      28.364   7.222  49.936  1.00  0.00     0.316 HD
BRANCH  20  22
HETATM   22  C2  UNL     1      28.788   8.999  49.066  1.00  0.00     0.240 C 
HETATM   23  C1  UNL     1      30.021   9.710  49.519  1.00  0.00     0.045 C 
BRANCH  22  24
HETATM   24  C3  UNL     1      27.596   9.514  49.809  1.00  0.00     0.199 C 
BRANCH  24  25
HETATM   25  O1  UNL     1      27.825   9.529  51.187  1.00  0.00    -0.399 OA
HETATM   26  H7  UNL     1      27.708  10.429  51.573  1.00  0.00     0.209 HD
ENDBRANCH  24  25
ENDBRANCH  22  24
ENDBRANCH  20  22
ENDBRANCH  19  20
ENDBRANCH  16  19
ENDBRANCH  12  13
ENDBRANCH   1  12
BRANCH  11  27
HETATM   27  N2  UNL     1      21.657   4.977  50.653  1.00  0.00    -0.249 N 
HETATM   28  C21 UNL     1      20.847   4.710  49.516  1.00  0.00     0.117 A 
HETATM   29  C22 UNL     1      20.252   5.650  48.835  1.00  0.00     0.033 A 
HETATM   30  C23 UNL     1      20.388   7.072  49.215  1.00  0.00     0.284 A 
HETATM   31  C24 UNL     1      21.233   7.289  50.393  1.00  0.00     0.151 A 
HETATM   32  N4  UNL     1      21.790   6.307  51.016  1.00  0.00    -0.182 NA
BRANCH  30  33
HETATM   33  N3  UNL     1      19.050   7.613  49.434  1.00  0.00     0.091 N 
HETATM   34  H26 UNL     1      18.320   7.123  48.888  1.00  0.00     0.314 HD
HETATM   35  H27 UNL     1      18.804   7.686  50.438  1.00  0.00     0.314 HD
ENDBRANCH  30  33
ENDBRANCH  11  27
BRANCH   7  36
HETATM   36  O2  UNL     1      25.738  -1.386  54.641  1.00  0.00    -0.361 OA
HETATM   37  H19 UNL     1      26.464  -1.759  55.247  1.00  0.00     0.217 HD
ENDBRANCH   7  36
TORSDOF 10
ENDMDL
MODEL 4
REMARK VINA RESULT:      -9.2      2.867      3.385
REMARK  10 active torsions:
REMARK  status: ('A' for Active; 'I' for Inactive)
REMARK    1  A    between atoms: C2_2  and  C3_3 
REMARK    2  A    between atoms: C2_2  and  N1_5 
REMARK    3  A    between atoms: C3_3  and  O1_4 
REMARK    4  A    between atoms: N1_5  and  C4_6 
REMARK    5  A    between atoms: C4_6  and  C5_7 
REMARK    6  A    between atoms: C8_10  and  C9_11 
REMARK    7  A    between atoms: C9_11  and  C10_12 
REMARK    8  A    between atoms: C16_18  and  O2_19 
REMARK    9  A    between atoms: C20_23  and  N2_24 
REMARK   10  A    between atoms: C23_27  and  N3_28 
ROOT
HETATM    1  C10 UNL     1      23.593   0.381  53.005  1.00  0.00     0.075 A 
HETATM    2  C11 UNL     1      22.343  -0.252  53.447  1.00  0.00    -0.037 A 
HETATM    3  C12 UNL     1      20.982  -0.233  52.996  1.00  0.00    -0.026 A 
HETATM    4  C13 UNL     1      20.587   0.444  51.865  1.00  0.00     0.012 A 
HETATM    5  C14 UNL     1      19.292   0.505  51.400  1.00  0.00     0.004 A 
HETATM    6  C15 UNL     1      18.298  -0.142  52.081  1.00  0.00     0.036 A 
HETATM    7  C16 UNL     1      18.625  -0.837  53.220  1.00  0.00     0.066 A 
HETATM    8  C17 UNL     1      19.936  -0.860  53.634  1.00  0.00     0.048 A 
HETATM    9  C18 UNL     1      22.654  -0.999  54.512  1.00  0.00     0.011 A 
HETATM   10  C19 UNL     1      24.060  -0.941  54.856  1.00  0.00     0.028 A 
HETATM   11  C20 UNL     1      24.621  -0.135  53.975  1.00  0.00     0.044 A 
ENDROOT
BRANCH   1  12
HETATM   12  C9  UNL     1      23.521   1.898  53.139  1.00  0.00     0.054 C 
BRANCH  12  13
HETATM   13  C8  UNL     1      23.335   2.586  51.852  1.00  0.00    -0.057 A 
HETATM   14  C7  UNL     1      22.662   3.805  51.842  1.00  0.00     0.007 A 
HETATM   15  C6  UNL     1      22.438   4.523  50.686  1.00  0.00     0.009 A 
HETATM   16  C5  UNL     1      22.878   4.055  49.471  1.00  0.00    -0.030 A 
HETATM   17  C26 UNL     1      23.549   2.852  49.436  1.00  0.00     0.009 A 
HETATM   18  C25 UNL     1      23.752   2.166  50.614  1.00  0.00     0.007 A 
BRANCH  16  19
HETATM   19  C4  UNL     1      22.660   4.791  48.199  1.00  0.00     0.308 C 
BRANCH  19  20
HETATM   20  N1  UNL     1      22.149   3.850  47.249  1.00  0.00     0.093 N 
HETATM   21  H8  UNL     1      22.955   3.552  46.653  1.00  0.00     0.316 HD
BRANCH  20  22
HETATM   22  C2  UNL     1      21.130   4.379  46.369  1.00  0.00     0.240 C 
HETATM   23  C1  UNL     1      19.870   3.577  46.339  1.00  0.00     0.045 C 
BRANCH  22  24
HETATM   24  C3  UNL     1      21.625   4.607  44.976  1.00  0.00     0.199 C 
BRANCH  24  25
HETATM   25  O1  UNL     1      21.261   3.557  44.129  1.00  0.00    -0.399 OA
HETATM   26  H7  UNL     1      21.589   3.691  43.208  1.00  0.00     0.209 HD
ENDBRANCH  24  25
ENDBRANCH  22  24
ENDBRANCH  20  22
ENDBRANCH  19  20
ENDBRANCH  16  19
ENDBRANCH  12  13
ENDBRANCH   1  12
BRANCH  11  27
HETATM   27  N2  UNL     1      26.011   0.201  53.931  1.00  0.00    -0.249 N 
HETATM   28  C21 UNL     1      26.535   0.918  52.821  1.00  0.00     0.117 A 
HETATM   29  C22 UNL     1      27.792   1.253  52.723  1.00  0.00     0.033 A 
HETATM   30  C23 UNL     1      28.761   0.899  53.782  1.00  0.00     0.284 A 
HETATM   31  C24 UNL     1      28.167   0.162  54.901  1.00  0.00     0.151 A 
HETATM   32  N4  UNL     1      26.913  -0.133  54.928  1.00  0.00    -0.182 NA
BRANCH  30  33
HETATM   33  N3  UNL     1      29.389   2.130  54.251  1.00  0.00     0.091 N 
HETATM   34  H26 UNL     1      29.543   2.144  55.273  1.00  0.00     0.314 HD
HETATM   35  H27 UNL     1      30.248   2.371  53.723  1.00  0.00     0.314 HD
ENDBRANCH  30  33
ENDBRANCH  11  27
BRANCH   7  36
HETATM   36  O2  UNL     1      17.636  -1.500  53.928  1.00  0.00    -0.361 OA
HETATM   37  H19 UNL     1      17.251  -1.113  54.786  1.00  0.00     0.217 HD
ENDBRANCH   7  36
TORSDOF 10
ENDMDL
MODEL 5
REMARK VINA RESULT:      -9.1      3.072      6.537
REMARK  10 active torsions:
REMARK  status: ('A' for Active; 'I' for Inactive)
REMARK    1  A    between atoms: C2_2  and  C3_3 
REMARK    2  A    between atoms: C2_2  and  N1_5 
REMARK    3  A    between atoms: C3_3  and  O1_4 
REMARK    4  A    between atoms: N1_5  and  C4_6 
REMARK    5  A    between atoms: C4_6  and  C5_7 
REMARK    6  A    between atoms: C8_10  and  C9_11 
REMARK    7  A    between atoms: C9_11  and  C10_12 
REMARK    8  A    between atoms: C16_18  and  O2_19 
REMARK    9  A    between atoms: C20_23  and  N2_24 
REMARK   10  A    between atoms: C23_27  and  N3_28 
ROOT
HETATM    1  C10 UNL     1      22.444   2.918  52.012  1.00  0.00     0.075 A 
HETATM    2  C11 UNL     1      21.372   1.970  52.345  1.00  0.00    -0.037 A 
HETATM    3  C12 UNL     1      21.294   0.749  53.093  1.00  0.00    -0.026 A 
HETATM    4  C13 UNL     1      22.373   0.227  53.770  1.00  0.00     0.012 A 
HETATM    5  C14 UNL     1      22.352  -0.947  54.489  1.00  0.00     0.004 A 
HETATM    6  C15 UNL     1      21.197  -1.677  54.561  1.00  0.00     0.036 A 
HETATM    7  C16 UNL     1      20.083  -1.210  53.907  1.00  0.00     0.066 A 
HETATM    8  C17 UNL     1      20.166  -0.031  53.204  1.00  0.00     0.048 A 
HETATM    9  C18 UNL     1      20.257   2.447  51.780  1.00  0.00     0.011 A 
HETATM   10  C19 UNL     1      20.468   3.689  51.065  1.00  0.00     0.028 A 
HETATM   11  C20 UNL     1      21.749   3.976  51.198  1.00  0.00     0.044 A 
ENDROOT
BRANCH   1  12
HETATM   12  C9  UNL     1      23.511   2.263  51.143  1.00  0.00     0.054 C 
BRANCH  12  13
HETATM   13  C8  UNL     1      24.722   1.892  51.891  1.00  0.00    -0.057 A 
HETATM   14  C7  UNL     1      24.915   2.440  53.157  1.00  0.00     0.007 A 
HETATM   15  C6  UNL     1      26.019   2.154  53.932  1.00  0.00     0.009 A 
HETATM   16  C5  UNL     1      26.994   1.299  53.479  1.00  0.00    -0.030 A 
HETATM   17  C26 UNL     1      26.843   0.735  52.231  1.00  0.00     0.009 A 
HETATM   18  C25 UNL     1      25.725   1.047  51.489  1.00  0.00     0.007 A 
BRANCH  16  19
HETATM   19  C4  UNL     1      28.202   0.961  54.276  1.00  0.00     0.308 C 
BRANCH  19  20
HETATM   20  N1  UNL     1      28.146  -0.443  54.552  1.00  0.00     0.093 N 
HETATM   21  H8  UNL     1      28.212  -0.551  55.590  1.00  0.00     0.316 HD
BRANCH  20  22
HETATM   22  C2  UNL     1      29.221  -1.213  53.966  1.00  0.00     0.240 C 
HETATM   23  C1  UNL     1      30.323  -0.386  53.387  1.00  0.00     0.045 C 
BRANCH  22  24
HETATM   24  C3  UNL     1      28.740  -2.205  52.955  1.00  0.00     0.199 C 
BRANCH  24  25
HETATM   25  O1  UNL     1      28.745  -3.502  53.474  1.00  0.00    -0.399 OA
HETATM   26  H7  UNL     1      29.141  -3.540  54.377  1.00  0.00     0.209 HD
ENDBRANCH  24  25
ENDBRANCH  22  24
ENDBRANCH  20  22
ENDBRANCH  19  20
ENDBRANCH  16  19
ENDBRANCH  12  13
ENDBRANCH   1  12
BRANCH  11  27
HETATM   27  N2  UNL     1      22.397   5.132  50.657  1.00  0.00    -0.249 N 
HETATM   28  C21 UNL     1      22.215   5.476  49.290  1.00  0.00     0.117 A 
HETATM   29  C22 UNL     1      22.779   6.516  48.741  1.00  0.00     0.033 A 
HETATM   30  C23 UNL     1      23.654   7.414  49.524  1.00  0.00     0.284 A 
HETATM   31  C24 UNL     1      23.805   7.012  50.926  1.00  0.00     0.151 A 
HETATM   32  N4  UNL     1      23.216   5.969  51.398  1.00  0.00    -0.182 NA
BRANCH  30  33
HETATM   33  N3  UNL     1      23.115   8.767  49.431  1.00  0.00     0.091 N 
HETATM   34  H26 UNL     1      23.827   9.500  49.590  1.00  0.00     0.314 HD
HETATM   35  H27 UNL     1      22.577   8.928  48.559  1.00  0.00     0.314 HD
ENDBRANCH  30  33
ENDBRANCH  11  27
BRANCH   7  36
HETATM   36  O2  UNL     1      18.901  -1.930  53.964  1.00  0.00    -0.361 OA
HETATM   37  H19 UNL     1      18.001  -1.481  53.815  1.00  0.00     0.217 HD
ENDBRANCH   7  36
TORSDOF 10
ENDMDL
MODEL 6
REMARK VINA RESULT:      -9.0      2.309      3.299
REMARK  10 active torsions:
REMARK  status: ('A' for Active; 'I' for Inactive)
REMARK    1  A    between atoms: C2_2  and  C3_3 
REMARK    2  A    between atoms: C2_2  and  N1_5 
REMARK    3  A    between atoms: C3_3  and  O1_4 
REMARK    4  A    between atoms: N1_5  and  C4_6 
REMARK    5  A    between atoms: C4_6  and  C5_7 
REMARK    6  A    between atoms: C8_10  and  C9_11 
REMARK    7  A    between atoms: C9_11  and  C10_12 
REMARK    8  A    between atoms: C16_18  and  O2_19 
REMARK    9  A    between atoms: C20_23  and  N2_24 
REMARK   10  A    between atoms: C23_27  and  N3_28 
ROOT
HETATM    1  C10 UNL     1      23.948   1.742  51.200  1.00  0.00     0.075 A 
HETATM    2  C11 UNL     1      22.560   1.550  50.759  1.00  0.00    -0.037 A 
HETATM    3  C12 UNL     1      21.716   2.158  49.772  1.00  0.00    -0.026 A 
HETATM    4  C13 UNL     1      22.169   3.130  48.910  1.00  0.00     0.012 A 
HETATM    5  C14 UNL     1      21.395   3.754  47.956  1.00  0.00     0.004 A 
HETATM    6  C15 UNL     1      20.078   3.411  47.824  1.00  0.00     0.036 A 
HETATM    7  C16 UNL     1      19.563   2.446  48.654  1.00  0.00     0.066 A 
HETATM    8  C17 UNL     1      20.385   1.859  49.588  1.00  0.00     0.048 A 
HETATM    9  C18 UNL     1      22.061   0.558  51.505  1.00  0.00     0.011 A 
HETATM   10  C19 UNL     1      23.016   0.023  52.453  1.00  0.00     0.028 A 
HETATM   11  C20 UNL     1      24.129   0.710  52.280  1.00  0.00     0.044 A 
ENDROOT
BRANCH   1  12
HETATM   12  C9  UNL     1      24.147   3.123  51.813  1.00  0.00     0.054 C 
BRANCH  12  13
HETATM   13  C8  UNL     1      24.876   4.049  50.934  1.00  0.00    -0.057 A 
HETATM   14  C7  UNL     1      25.987   3.573  50.242  1.00  0.00     0.007 A 
HETATM   15  C6  UNL     1      26.735   4.366  49.397  1.00  0.00     0.009 A 
HETATM   16  C5  UNL     1      26.408   5.686  49.199  1.00  0.00    -0.030 A 
HETATM   17  C26 UNL     1      25.315   6.198  49.864  1.00  0.00     0.009 A 
HETATM   18  C25 UNL     1      24.595   5.372  50.699  1.00  0.00     0.007 A 
BRANCH  16  19
HETATM   19  C4  UNL     1      27.183   6.580  48.299  1.00  0.00     0.308 C 
BRANCH  19  20
HETATM   20  N1  UNL     1      28.189   7.213  49.097  1.00  0.00     0.093 N 
HETATM   21  H8  UNL     1      27.969   6.991  50.095  1.00  0.00     0.316 HD
BRANCH  20  22
HETATM   22  C2  UNL     1      28.237   8.653  48.971  1.00  0.00     0.240 C 
HETATM   23  C1  UNL     1      29.590   9.243  49.200  1.00  0.00     0.045 C 
BRANCH  22  24
HETATM   24  C3  UNL     1      27.224   9.346  49.827  1.00  0.00     0.199 C 
BRANCH  24  25
HETATM   25  O1  UNL     1      27.644   9.412  51.158  1.00  0.00    -0.399 OA
HETATM   26  H7  UNL     1      27.884  10.331  51.426  1.00  0.00     0.209 HD
ENDBRANCH  24  25
ENDBRANCH  22  24
ENDBRANCH  20  22
ENDBRANCH  19  20
ENDBRANCH  16  19
ENDBRANCH  12  13
ENDBRANCH   1  12
BRANCH  11  27
HETATM   27  N2  UNL     1      25.347   0.505  53.004  1.00  0.00    -0.249 N 
HETATM   28  C21 UNL     1      26.589   0.473  52.312  1.00  0.00     0.117 A 
HETATM   29  C22 UNL     1      27.730   0.290  52.915  1.00  0.00     0.033 A 
HETATM   30  C23 UNL     1      27.799   0.105  54.381  1.00  0.00     0.284 A 
HETATM   31  C24 UNL     1      26.491   0.148  55.041  1.00  0.00     0.151 A 
HETATM   32  N4  UNL     1      25.403   0.333  54.377  1.00  0.00    -0.182 NA
BRANCH  30  33
HETATM   33  N3  UNL     1      28.686   1.127  54.925  1.00  0.00     0.091 N 
HETATM   34  H26 UNL     1      29.537   0.735  55.364  1.00  0.00     0.314 HD
HETATM   35  H27 UNL     1      28.909   1.874  54.242  1.00  0.00     0.314 HD
ENDBRANCH  30  33
ENDBRANCH  11  27
BRANCH   7  36
HETATM   36  O2  UNL     1      18.231   2.080  48.540  1.00  0.00    -0.361 OA
HETATM   37  H19 UNL     1      17.611   2.082  49.346  1.00  0.00     0.217 HD
ENDBRANCH   7  36
TORSDOF 10
ENDMDL
MODEL 7
REMARK VINA RESULT:      -9.0      2.546      5.923
REMARK  10 active torsions:
REMARK  status: ('A' for Active; 'I' for Inactive)
REMARK    1  A    between atoms: C2_2  and  C3_3 
REMARK    2  A    between atoms: C2_2  and  N1_5 
REMARK    3  A    between atoms: C3_3  and  O1_4 
REMARK    4  A    between atoms: N1_5  and  C4_6 
REMARK    5  A    between atoms: C4_6  and  C5_7 
REMARK    6  A    between atoms: C8_10  and  C9_11 
REMARK    7  A    between atoms: C9_11  and  C10_12 
REMARK    8  A    between atoms: C16_18  and  O2_19 
REMARK    9  A    between atoms: C20_23  and  N2_24 
REMARK   10  A    between atoms: C23_27  and  N3_28 
ROOT
HETATM    1  C10 UNL     1      20.497   1.382  51.967  1.00  0.00     0.075 A 
HETATM    2  C11 UNL     1      19.155   0.795  51.852  1.00  0.00    -0.037 A 
HETATM    3  C12 UNL     1      18.504  -0.361  52.395  1.00  0.00    -0.026 A 
HETATM    4  C13 UNL     1      19.118  -1.199  53.298  1.00  0.00     0.012 A 
HETATM    5  C14 UNL     1      18.541  -2.327  53.836  1.00  0.00     0.004 A 
HETATM    6  C15 UNL     1      17.268  -2.675  53.475  1.00  0.00     0.036 A 
HETATM    7  C16 UNL     1      16.600  -1.880  52.577  1.00  0.00     0.066 A 
HETATM    8  C17 UNL     1      17.229  -0.765  52.073  1.00  0.00     0.048 A 
HETATM    9  C18 UNL     1      18.460   1.600  51.040  1.00  0.00     0.011 A 
HETATM   10  C19 UNL     1      19.227   2.735  50.570  1.00  0.00     0.028 A 
HETATM   11  C20 UNL     1      20.424   2.618  51.111  1.00  0.00     0.044 A 
ENDROOT
BRANCH   1  12
HETATM   12  C9  UNL     1      21.558   0.455  51.386  1.00  0.00     0.054 C 
BRANCH  12  13
HETATM   13  C8  UNL     1      22.760   0.348  52.227  1.00  0.00    -0.057 A 
HETATM   14  C7  UNL     1      23.818   1.221  51.987  1.00  0.00     0.007 A 
HETATM   15  C6  UNL     1      24.985   1.196  52.721  1.00  0.00     0.009 A 
HETATM   16  C5  UNL     1      25.156   0.291  53.740  1.00  0.00    -0.030 A 
HETATM   17  C26 UNL     1      24.133  -0.591  54.011  1.00  0.00     0.009 A 
HETATM   18  C25 UNL     1      22.983  -0.533  53.255  1.00  0.00     0.007 A 
BRANCH  16  19
HETATM   19  C4  UNL     1      26.395   0.225  54.558  1.00  0.00     0.308 C 
BRANCH  19  20
HETATM   20  N1  UNL     1      27.265  -0.724  53.931  1.00  0.00     0.093 N 
HETATM   21  H8  UNL     1      27.482  -1.456  54.645  1.00  0.00     0.316 HD
BRANCH  20  22
HETATM   22  C2  UNL     1      28.523  -0.174  53.475  1.00  0.00     0.240 C 
HETATM   23  C1  UNL     1      29.695  -1.080  53.669  1.00  0.00     0.045 C 
BRANCH  22  24
HETATM   24  C3  UNL     1      28.814   1.173  54.058  1.00  0.00     0.199 C 
BRANCH  24  25
HETATM   25  O1  UNL     1      29.070   2.115  53.058  1.00  0.00    -0.399 OA
HETATM   26  H7  UNL     1      29.991   2.047  52.710  1.00  0.00     0.209 HD
ENDBRANCH  24  25
ENDBRANCH  22  24
ENDBRANCH  20  22
ENDBRANCH  19  20
ENDBRANCH  16  19
ENDBRANCH  12  13
ENDBRANCH   1  12
BRANCH  11  27
HETATM   27  N2  UNL     1      21.507   3.536  50.927  1.00  0.00    -0.249 N 
HETATM   28  C21 UNL     1      21.954   4.337  52.014  1.00  0.00     0.117 A 
HETATM   29  C22 UNL     1      22.935   5.190  51.908  1.00  0.00     0.033 A 
HETATM   30  C23 UNL     1      23.651   5.375  50.628  1.00  0.00     0.284 A 
HETATM   31  C24 UNL     1      23.150   4.526  49.544  1.00  0.00     0.151 A 
HETATM   32  N4  UNL     1      22.174   3.704  49.725  1.00  0.00    -0.182 NA
BRANCH  30  33
HETATM   33  N3  UNL     1      25.070   5.128  50.863  1.00  0.00     0.091 N 
HETATM   34  H26 UNL     1      25.385   5.433  51.800  1.00  0.00     0.314 HD
HETATM   35  H27 UNL     1      25.349   4.151  50.656  1.00  0.00     0.314 HD
ENDBRANCH  30  33
ENDBRANCH  11  27
BRANCH   7  36
HETATM   36  O2  UNL     1      15.309  -2.210  52.194  1.00  0.00    -0.361 OA
HETATM   37  H19 UNL     1      15.116  -2.619  51.283  1.00  0.00     0.217 HD
ENDBRANCH   7  36
TORSDOF 10
ENDMDL
MODEL 8
REMARK VINA RESULT:      -8.9      3.040      8.137
REMARK  10 active torsions:
REMARK  status: ('A' for Active; 'I' for Inactive)
REMARK    1  A    between atoms: C2_2  and  C3_3 
REMARK    2  A    between atoms: C2_2  and  N1_5 
REMARK    3  A    between atoms: C3_3  and  O1_4 
REMARK    4  A    between atoms: N1_5  and  C4_6 
REMARK    5  A    between atoms: C4_6  and  C5_7 
REMARK    6  A    between atoms: C8_10  and  C9_11 
REMARK    7  A    between atoms: C9_11  and  C10_12 
REMARK    8  A    between atoms: C16_18  and  O2_19 
REMARK    9  A    between atoms: C20_23  and  N2_24 
REMARK   10  A    between atoms: C23_27  and  N3_28 
ROOT
HETATM    1  C10 UNL     1      23.762   3.921  49.899  1.00  0.00     0.075 A 
HETATM    2  C11 UNL     1      24.162   5.130  49.166  1.00  0.00    -0.037 A 
HETATM    3  C12 UNL     1      25.411   5.692  48.741  1.00  0.00    -0.026 A 
HETATM    4  C13 UNL     1      26.614   5.051  48.937  1.00  0.00     0.012 A 
HETATM    5  C14 UNL     1      27.839   5.554  48.561  1.00  0.00     0.004 A 
HETATM    6  C15 UNL     1      27.910   6.775  47.947  1.00  0.00     0.036 A 
HETATM    7  C16 UNL     1      26.745   7.466  47.722  1.00  0.00     0.066 A 
HETATM    8  C17 UNL     1      25.551   6.911  48.121  1.00  0.00     0.048 A 
HETATM    9  C18 UNL     1      23.032   5.782  48.869  1.00  0.00     0.011 A 
HETATM   10  C19 UNL     1      21.843   5.106  49.342  1.00  0.00     0.028 A 
HETATM   11  C20 UNL     1      22.260   4.010  49.946  1.00  0.00     0.044 A 
ENDROOT
BRANCH   1  12
HETATM   12  C9  UNL     1      24.292   3.940  51.327  1.00  0.00     0.054 C 
BRANCH  12  13
HETATM   13  C8  UNL     1      24.952   2.685  51.718  1.00  0.00    -0.057 A 
HETATM   14  C7  UNL     1      24.420   1.956  52.778  1.00  0.00     0.007 A 
HETATM   15  C6  UNL     1      24.970   0.771  53.218  1.00  0.00     0.009 A 
HETATM   16  C5  UNL     1      26.090   0.249  52.616  1.00  0.00    -0.030 A 
HETATM   17  C26 UNL     1      26.649   0.939  51.562  1.00  0.00     0.009 A 
HETATM   18  C25 UNL     1      26.068   2.119  51.154  1.00  0.00     0.007 A 
BRANCH  16  19
HETATM   19  C4  UNL     1      26.720  -1.024  53.054  1.00  0.00     0.308 C 
BRANCH  19  20
HETATM   20  N1  UNL     1      27.636  -0.702  54.105  1.00  0.00     0.093 N 
HETATM   21  H8  UNL     1      27.160  -0.003  54.720  1.00  0.00     0.316 HD
BRANCH  20  22
HETATM   22  C2  UNL     1      28.880  -0.114  53.658  1.00  0.00     0.240 C 
HETATM   23  C1  UNL     1      30.053  -1.036  53.727  1.00  0.00     0.045 C 
BRANCH  22  24
HETATM   24  C3  UNL     1      29.198   1.172  54.353  1.00  0.00     0.199 C 
BRANCH  24  25
HETATM   25  O1  UNL     1      29.302   2.228  53.445  1.00  0.00    -0.399 OA
HETATM   26  H7  UNL     1      29.919   2.930  53.760  1.00  0.00     0.209 HD
ENDBRANCH  24  25
ENDBRANCH  22  24
ENDBRANCH  20  22
ENDBRANCH  19  20
ENDBRANCH  16  19
ENDBRANCH  12  13
ENDBRANCH   1  12
BRANCH  11  27
HETATM   27  N2  UNL     1      21.414   3.029  50.556  1.00  0.00    -0.249 N 
HETATM   28  C21 UNL     1      21.473   1.674  50.130  1.00  0.00     0.117 A 
HETATM   29  C22 UNL     1      20.728   0.736  50.646  1.00  0.00     0.033 A 
HETATM   30  C23 UNL     1      19.762   1.035  51.725  1.00  0.00     0.284 A 
HETATM   31  C24 UNL     1      19.743   2.446  52.124  1.00  0.00     0.151 A 
HETATM   32  N4  UNL     1      20.511   3.317  51.566  1.00  0.00    -0.182 NA
BRANCH  30  33
HETATM   33  N3  UNL     1      20.077   0.181  52.865  1.00  0.00     0.091 N 
HETATM   34  H26 UNL     1      21.075   0.215  53.135  1.00  0.00     0.314 HD
HETATM   35  H27 UNL     1      19.448   0.340  53.674  1.00  0.00     0.314 HD
ENDBRANCH  30  33
ENDBRANCH  11  27
BRANCH   7  36
HETATM   36  O2  UNL     1      26.789   8.705  47.102  1.00  0.00    -0.361 OA
HETATM   37  H19 UNL     1      26.010   9.044  46.543  1.00  0.00     0.217 HD
ENDBRANCH   7  36
TORSDOF 10
ENDMDL
MODEL 9
REMARK VINA RESULT:      -8.6      1.489      2.100
REMARK  10 active torsions:
REMARK  status: ('A' for Active; 'I' for Inactive)
REMARK    1  A    between atoms: C2_2  and  C3_3 
REMARK    2  A    between atoms: C2_2  and  N1_5 
REMARK    3  A    between atoms: C3_3  and  O1_4 
REMARK    4  A    between atoms: N1_5  and  C4_6 
REMARK    5  A    between atoms: C4_6  and  C5_7 
REMARK    6  A    between atoms: C8_10  and  C9_11 
REMARK    7  A    between atoms: C9_11  and  C10_12 
REMARK    8  A    between atoms: C16_18  and  O2_19 
REMARK    9  A    between atoms: C20_23  and  N2_24 
REMARK   10  A    between atoms: C23_27  and  N3_28 
ROOT
HETATM    1  C10 UNL     1      23.452   0.542  52.770  1.00  0.00     0.075 A 
HETATM    2  C11 UNL     1      22.275  -0.192  53.253  1.00  0.00    -0.037 A 
HETATM    3  C12 UNL     1      20.887  -0.231  52.895  1.00  0.00    -0.026 A 
HETATM    4  C13 UNL     1      20.376   0.486  51.837  1.00  0.00     0.012 A 
HETATM    5  C14 UNL     1      19.051   0.493  51.463  1.00  0.00     0.004 A 
HETATM    6  C15 UNL     1      18.145  -0.252  52.166  1.00  0.00     0.036 A 
HETATM    7  C16 UNL     1      18.590  -0.991  53.235  1.00  0.00     0.066 A 
HETATM    8  C17 UNL     1      19.926  -0.957  53.560  1.00  0.00     0.048 A 
HETATM    9  C18 UNL     1      22.702  -0.979  54.247  1.00  0.00     0.011 A 
HETATM   10  C19 UNL     1      24.122  -0.854  54.501  1.00  0.00     0.028 A 
HETATM   11  C20 UNL     1      24.573   0.035  53.637  1.00  0.00     0.044 A 
ENDROOT
BRANCH   1  12
HETATM   12  C9  UNL     1      23.302   2.041  53.003  1.00  0.00     0.054 C 
BRANCH  12  13
HETATM   13  C8  UNL     1      23.285   2.823  51.758  1.00  0.00    -0.057 A 
HETATM   14  C7  UNL     1      22.325   3.821  51.613  1.00  0.00     0.007 A 
HETATM   15  C6  UNL     1      22.229   4.605  50.482  1.00  0.00     0.009 A 
HETATM   16  C5  UNL     1      23.095   4.428  49.429  1.00  0.00    -0.030 A 
HETATM   17  C26 UNL     1      24.061   3.451  49.531  1.00  0.00     0.009 A 
HETATM   18  C25 UNL     1      24.122   2.690  50.678  1.00  0.00     0.007 A 
BRANCH  16  19
HETATM   19  C4  UNL     1      23.031   5.246  48.190  1.00  0.00     0.308 C 
BRANCH  19  20
HETATM   20  N1  UNL     1      24.247   5.998  48.116  1.00  0.00     0.093 N 
HETATM   21  H8  UNL     1      25.033   5.311  48.183  1.00  0.00     0.316 HD
BRANCH  20  22
HETATM   22  C2  UNL     1      24.421   6.964  49.178  1.00  0.00     0.240 C 
HETATM   23  C1  UNL     1      23.981   8.347  48.827  1.00  0.00     0.045 C 
BRANCH  22  24
HETATM   24  C3  UNL     1      25.817   6.991  49.716  1.00  0.00     0.199 C 
BRANCH  24  25
HETATM   25  O1  UNL     1      25.843   7.436  51.040  1.00  0.00    -0.399 OA
HETATM   26  H7  UNL     1      26.635   7.994  51.229  1.00  0.00     0.209 HD
ENDBRANCH  24  25
ENDBRANCH  22  24
ENDBRANCH  20  22
ENDBRANCH  19  20
ENDBRANCH  16  19
ENDBRANCH  12  13
ENDBRANCH   1  12
BRANCH  11  27
HETATM   27  N2  UNL     1      25.936   0.458  53.522  1.00  0.00    -0.249 N 
HETATM   28  C21 UNL     1      26.268   1.833  53.663  1.00  0.00     0.117 A 
HETATM   29  C22 UNL     1      27.490   2.279  53.569  1.00  0.00     0.033 A 
HETATM   30  C23 UNL     1      28.620   1.363  53.306  1.00  0.00     0.284 A 
HETATM   31  C24 UNL     1      28.220  -0.041  53.170  1.00  0.00     0.151 A 
HETATM   32  N4  UNL     1      26.989  -0.407  53.276  1.00  0.00    -0.182 NA
BRANCH  30  33
HETATM   33  N3  UNL     1      29.591   1.520  54.384  1.00  0.00     0.091 N 
HETATM   34  H26 UNL     1      29.272   2.165  55.127  1.00  0.00     0.314 HD
HETATM   35  H27 UNL     1      29.918   0.614  54.768  1.00  0.00     0.314 HD
ENDBRANCH  30  33
ENDBRANCH  11  27
BRANCH   7  36
HETATM   36  O2  UNL     1      17.692  -1.755  53.965  1.00  0.00    -0.361 OA
HETATM   37  H19 UNL     1      18.003  -2.347  54.730  1.00  0.00     0.217 HD
ENDBRANCH   7  36
TORSDOF 10
ENDMDL
