MODEL 1
REMARK VINA RESULT:      -8.8      0.000      0.000
REMARK  2 active torsions:
REMARK  status: ('A' for Active; 'I' for Inactive)
REMARK    1  A    between atoms: N4_10  and  C7_11 
REMARK    2  A    between atoms: C7_11  and  C8_12 
ROOT
HETATM    1  C1  UNL     1      22.204   2.179  47.978  1.00  0.00     0.037 C 
HETATM    2  C2  UNL     1      22.631   1.740  49.363  1.00  0.00     0.106 C 
HETATM    3  N1  UNL     1      23.528   2.770  49.851  1.00  0.00    -0.407 N 
HETATM    4  C3  UNL     1      23.144   4.083  49.992  1.00  0.00     0.109 A 
HETATM    5  C4  UNL     1      22.817   5.332  49.920  1.00  0.00     0.045 A 
HETATM    6  C5  UNL     1      22.658   4.983  51.316  1.00  0.00     0.139 A 
HETATM    7  N2  UNL     1      22.589   4.467  52.478  1.00  0.00    -0.265 NA
HETATM    8  C6  UNL     1      22.941   3.092  52.655  1.00  0.00     0.152 C 
HETATM    9  N3  UNL     1      24.203   3.043  52.951  1.00  0.00    -0.161 NA
HETATM   10  N4  UNL     1      24.586   1.700  53.133  1.00  0.00    -0.297 N 
HETATM   11  C13 UNL     1      23.585   0.870  52.507  1.00  0.00     0.116 C 
HETATM   12  C14 UNL     1      23.367  -0.421  53.290  1.00  0.00     0.035 C 
HETATM   13  C15 UNL     1      22.360   1.742  52.623  1.00  0.00     0.116 C 
HETATM   14  C16 UNL     1      21.337   1.514  51.590  1.00  0.00    -0.036 A 
HETATM   15  C17 UNL     1      20.061   1.256  52.114  1.00  0.00     0.009 A 
HETATM   16  C18 UNL     1      18.907   0.998  51.403  1.00  0.00     0.001 A 
HETATM   17  C19 UNL     1      19.013   0.990  50.028  1.00  0.00     0.001 A 
HETATM   18  C20 UNL     1      20.265   1.243  49.503  1.00  0.00     0.010 A 
HETATM   19  C21 UNL     1      21.445   1.507  50.215  1.00  0.00    -0.029 A 
HETATM   20  H5  UNL     1      24.529   2.533  50.121  1.00  0.00     0.154 HD
ENDROOT
BRANCH  10  21
HETATM   21  C7  UNL     1      25.721   1.027  53.786  1.00  0.00     0.159 C 
BRANCH  21  22
HETATM   22  C8  UNL     1      26.801   0.705  52.768  1.00  0.00    -0.000 A 
HETATM   23  C9  UNL     1      26.756   1.583  51.535  1.00  0.00     0.021 C 
HETATM   24  C10 UNL     1      26.992  -0.708  52.505  1.00  0.00     0.022 A 
HETATM   25  C11 UNL     1      28.180  -0.702  53.051  1.00  0.00     0.092 A 
HETATM   26  F1  UNL     1      29.170  -1.621  53.276  1.00  0.00    -0.211 F 
HETATM   27  C12 UNL     1      28.155   0.722  53.392  1.00  0.00     0.084 A 
ENDBRANCH  21  22
ENDBRANCH  10  21
TORSDOF 2
ENDMDL
MODEL 2
REMARK VINA RESULT:      -8.7      2.963      5.498
REMARK  2 active torsions:
REMARK  status: ('A' for Active; 'I' for Inactive)
REMARK    1  A    between atoms: N4_10  and  C7_11 
REMARK    2  A    between atoms: C7_11  and  C8_12 
ROOT
HETATM    1  C1  UNL     1      23.267   7.121  48.090  1.00  0.00     0.037 C 
HETATM    2  C2  UNL     1      23.168   6.016  49.122  1.00  0.00     0.106 C 
HETATM    3  N1  UNL     1      22.016   5.218  48.747  1.00  0.00    -0.407 N 
HETATM    4  C3  UNL     1      21.918   4.584  47.530  1.00  0.00     0.109 A 
HETATM    5  C4  UNL     1      21.768   4.173  46.313  1.00  0.00     0.045 A 
HETATM    6  C5  UNL     1      22.182   3.001  47.055  1.00  0.00     0.139 A 
HETATM    7  N2  UNL     1      22.549   2.112  47.890  1.00  0.00    -0.265 NA
HETATM    8  C6  UNL     1      22.731   2.474  49.262  1.00  0.00     0.152 C 
HETATM    9  N3  UNL     1      21.607   2.270  49.877  1.00  0.00    -0.161 NA
HETATM   10  N4  UNL     1      21.751   2.615  51.234  1.00  0.00    -0.297 N 
HETATM   11  C13 UNL     1      22.913   3.462  51.350  1.00  0.00     0.116 C 
HETATM   12  C14 UNL     1      23.656   3.206  52.658  1.00  0.00     0.035 C 
HETATM   13  C15 UNL     1      23.750   2.981  50.192  1.00  0.00     0.116 C 
HETATM   14  C16 UNL     1      24.676   3.981  49.639  1.00  0.00    -0.036 A 
HETATM   15  C17 UNL     1      26.006   3.538  49.577  1.00  0.00     0.009 A 
HETATM   16  C18 UNL     1      27.098   4.245  49.116  1.00  0.00     0.001 A 
HETATM   17  C19 UNL     1      26.862   5.528  48.667  1.00  0.00     0.001 A 
HETATM   18  C20 UNL     1      25.556   5.973  48.724  1.00  0.00     0.010 A 
HETATM   19  C21 UNL     1      24.438   5.264  49.190  1.00  0.00    -0.029 A 
HETATM   20  H5  UNL     1      21.199   5.098  49.416  1.00  0.00     0.154 HD
ENDROOT
BRANCH  10  21
HETATM   21  C7  UNL     1      21.004   2.307  52.465  1.00  0.00     0.159 C 
BRANCH  21  22
HETATM   22  C8  UNL     1      20.785   0.809  52.590  1.00  0.00    -0.000 A 
HETATM   23  C9  UNL     1      19.652   0.287  51.730  1.00  0.00     0.021 C 
HETATM   24  C10 UNL     1      20.808   0.299  53.946  1.00  0.00     0.022 A 
HETATM   25  C11 UNL     1      21.914  -0.365  53.733  1.00  0.00     0.092 A 
HETATM   26  F1  UNL     1      22.735  -1.183  54.463  1.00  0.00    -0.211 F 
HETATM   27  C12 UNL     1      22.045   0.056  52.336  1.00  0.00     0.084 A 
ENDBRANCH  21  22
ENDBRANCH  10  21
TORSDOF 2
ENDMDL
MODEL 3
REMARK VINA RESULT:      -8.5      2.763      5.212
REMARK  2 active torsions:
REMARK  status: ('A' for Active; 'I' for Inactive)
REMARK    1  A    between atoms: N4_10  and  C7_11 
REMARK    2  A    between atoms: C7_11  and  C8_12 
ROOT
HETATM    1  C1  UNL     1      23.718   7.333  50.259  1.00  0.00     0.037 C 
HETATM    2  C2  UNL     1      24.057   5.988  50.869  1.00  0.00     0.106 C 
HETATM    3  N1  UNL     1      22.837   5.205  50.811  1.00  0.00    -0.407 N 
HETATM    4  C3  UNL     1      22.197   4.913  49.629  1.00  0.00     0.109 A 
HETATM    5  C4  UNL     1      21.516   4.831  48.532  1.00  0.00     0.045 A 
HETATM    6  C5  UNL     1      22.185   3.552  48.655  1.00  0.00     0.139 A 
HETATM    7  N2  UNL     1      22.859   2.516  48.958  1.00  0.00    -0.265 NA
HETATM    8  C6  UNL     1      23.636   2.513  50.159  1.00  0.00     0.152 C 
HETATM    9  N3  UNL     1      22.893   2.035  51.109  1.00  0.00    -0.161 NA
HETATM   10  N4  UNL     1      23.628   2.017  52.310  1.00  0.00    -0.297 N 
HETATM   11  C13 UNL     1      24.743   2.918  52.155  1.00  0.00     0.116 C 
HETATM   12  C14 UNL     1      25.980   2.400  52.883  1.00  0.00     0.035 C 
HETATM   13  C15 UNL     1      24.974   2.855  50.665  1.00  0.00     0.116 C 
HETATM   14  C16 UNL     1      25.586   4.058  50.082  1.00  0.00    -0.036 A 
HETATM   15  C17 UNL     1      26.741   3.791  49.332  1.00  0.00     0.009 A 
HETATM   16  C18 UNL     1      27.536   4.705  48.672  1.00  0.00     0.001 A 
HETATM   17  C19 UNL     1      27.159   6.030  48.757  1.00  0.00     0.001 A 
HETATM   18  C20 UNL     1      26.023   6.304  49.492  1.00  0.00     0.010 A 
HETATM   19  C21 UNL     1      25.207   5.383  50.167  1.00  0.00    -0.029 A 
HETATM   20  H5  UNL     1      22.395   4.824  51.700  1.00  0.00     0.154 HD
ENDROOT
BRANCH  10  21
HETATM   21  C7  UNL     1      23.491   1.313  53.596  1.00  0.00     0.159 C 
BRANCH  21  22
HETATM   22  C8  UNL     1      23.374  -0.184  53.370  1.00  0.00    -0.000 A 
HETATM   23  C9  UNL     1      24.642  -0.820  52.838  1.00  0.00     0.021 C 
HETATM   24  C10 UNL     1      22.154  -0.609  52.710  1.00  0.00     0.022 A 
HETATM   25  C11 UNL     1      21.727  -1.222  53.782  1.00  0.00     0.092 A 
HETATM   26  F1  UNL     1      20.619  -1.947  54.133  1.00  0.00    -0.211 F 
HETATM   27  C12 UNL     1      22.895  -0.881  54.597  1.00  0.00     0.084 A 
ENDBRANCH  21  22
ENDBRANCH  10  21
TORSDOF 2
ENDMDL
MODEL 4
REMARK VINA RESULT:      -8.1      3.720      6.328
REMARK  2 active torsions:
REMARK  status: ('A' for Active; 'I' for Inactive)
REMARK    1  A    between atoms: N4_10  and  C7_11 
REMARK    2  A    between atoms: C7_11  and  C8_12 
ROOT
HETATM    1  C1  UNL     1      23.121   1.694  53.012  1.00  0.00     0.037 C 
HETATM    2  C2  UNL     1      23.238   2.873  52.069  1.00  0.00     0.106 C 
HETATM    3  N1  UNL     1      24.613   3.329  52.168  1.00  0.00    -0.407 N 
HETATM    4  C3  UNL     1      25.685   2.522  51.870  1.00  0.00     0.109 A 
HETATM    5  C4  UNL     1      26.667   1.685  51.780  1.00  0.00     0.045 A 
HETATM    6  C5  UNL     1      26.656   2.386  50.514  1.00  0.00     0.139 A 
HETATM    7  N2  UNL     1      26.467   3.117  49.489  1.00  0.00    -0.265 NA
HETATM    8  C6  UNL     1      25.409   4.079  49.501  1.00  0.00     0.152 C 
HETATM    9  N3  UNL     1      25.899   5.200  49.935  1.00  0.00    -0.161 NA
HETATM   10  N4  UNL     1      24.881   6.173  49.960  1.00  0.00    -0.297 N 
HETATM   11  C13 UNL     1      23.614   5.484  49.926  1.00  0.00     0.116 C 
HETATM   12  C14 UNL     1      22.580   6.266  49.122  1.00  0.00     0.035 C 
HETATM   13  C15 UNL     1      23.980   4.223  49.184  1.00  0.00     0.116 C 
HETATM   14  C16 UNL     1      23.140   3.056  49.493  1.00  0.00    -0.036 A 
HETATM   15  C17 UNL     1      22.580   2.453  48.356  1.00  0.00     0.009 A 
HETATM   16  C18 UNL     1      21.748   1.353  48.322  1.00  0.00     0.001 A 
HETATM   17  C19 UNL     1      21.426   0.780  49.536  1.00  0.00     0.001 A 
HETATM   18  C20 UNL     1      21.971   1.367  50.660  1.00  0.00     0.010 A 
HETATM   19  C21 UNL     1      22.819   2.484  50.707  1.00  0.00    -0.029 A 
HETATM   20  H5  UNL     1      24.833   4.323  52.479  1.00  0.00     0.154 HD
ENDROOT
BRANCH  10  21
HETATM   21  C7  UNL     1      24.858   7.645  50.012  1.00  0.00     0.159 C 
BRANCH  21  22
HETATM   22  C8  UNL     1      25.787   8.225  48.960  1.00  0.00    -0.000 A 
HETATM   23  C9  UNL     1      25.541   7.685  47.567  1.00  0.00     0.021 C 
HETATM   24  C10 UNL     1      27.182   8.298  49.350  1.00  0.00     0.022 A 
HETATM   25  C11 UNL     1      27.163   9.605  49.366  1.00  0.00     0.092 A 
HETATM   26  F1  UNL     1      28.060  10.606  49.631  1.00  0.00    -0.211 F 
HETATM   27  C12 UNL     1      25.756   9.715  48.975  1.00  0.00     0.084 A 
ENDBRANCH  21  22
ENDBRANCH  10  21
TORSDOF 2
ENDMDL
MODEL 5
REMARK VINA RESULT:      -7.9      1.628      3.477
REMARK  2 active torsions:
REMARK  status: ('A' for Active; 'I' for Inactive)
REMARK    1  A    between atoms: N4_10  and  C7_11 
REMARK    2  A    between atoms: C7_11  and  C8_12 
ROOT
HETATM    1  C1  UNL     1      19.849   4.754  51.091  1.00  0.00     0.037 C 
HETATM    2  C2  UNL     1      21.203   4.090  51.240  1.00  0.00     0.106 C 
HETATM    3  N1  UNL     1      21.048   3.098  52.287  1.00  0.00    -0.407 N 
HETATM    4  C3  UNL     1      20.147   2.063  52.202  1.00  0.00     0.109 A 
HETATM    5  C4  UNL     1      19.158   1.229  52.182  1.00  0.00     0.045 A 
HETATM    6  C5  UNL     1      20.312   0.451  51.785  1.00  0.00     0.139 A 
HETATM    7  N2  UNL     1      21.443  -0.038  51.463  1.00  0.00    -0.265 NA
HETATM    8  C6  UNL     1      22.596   0.809  51.466  1.00  0.00     0.152 C 
HETATM    9  N3  UNL     1      23.144   0.726  52.640  1.00  0.00    -0.161 NA
HETATM   10  N4  UNL     1      24.286   1.549  52.679  1.00  0.00    -0.297 N 
HETATM   11  C13 UNL     1      24.183   2.495  51.594  1.00  0.00     0.116 C 
HETATM   12  C14 UNL     1      25.552   2.802  50.995  1.00  0.00     0.035 C 
HETATM   13  C15 UNL     1      23.360   1.717  50.598  1.00  0.00     0.116 C 
HETATM   14  C16 UNL     1      22.560   2.540  49.678  1.00  0.00    -0.036 A 
HETATM   15  C17 UNL     1      22.780   2.243  48.324  1.00  0.00     0.009 A 
HETATM   16  C18 UNL     1      22.188   2.844  47.233  1.00  0.00     0.001 A 
HETATM   17  C19 UNL     1      21.280   3.849  47.495  1.00  0.00     0.001 A 
HETATM   18  C20 UNL     1      21.056   4.150  48.824  1.00  0.00     0.010 A 
HETATM   19  C21 UNL     1      21.652   3.546  49.942  1.00  0.00    -0.029 A 
HETATM   20  H5  UNL     1      21.642   3.143  53.169  1.00  0.00     0.154 HD
ENDROOT
BRANCH  10  21
HETATM   21  C7  UNL     1      25.475   1.629  53.545  1.00  0.00     0.159 C 
BRANCH  21  22
HETATM   22  C8  UNL     1      25.996   0.237  53.857  1.00  0.00    -0.000 A 
HETATM   23  C9  UNL     1      24.994  -0.639  54.581  1.00  0.00     0.021 C 
HETATM   24  C10 UNL     1      27.343   0.194  54.391  1.00  0.00     0.022 A 
HETATM   25  C11 UNL     1      27.804  -0.395  53.319  1.00  0.00     0.092 A 
HETATM   26  F1  UNL     1      29.021  -0.853  52.887  1.00  0.00    -0.211 F 
HETATM   27  C12 UNL     1      26.512  -0.435  52.631  1.00  0.00     0.084 A 
ENDBRANCH  21  22
ENDBRANCH  10  21
TORSDOF 2
ENDMDL
MODEL 6
REMARK VINA RESULT:      -7.8      2.894      5.600
REMARK  2 active torsions:
REMARK  status: ('A' for Active; 'I' for Inactive)
REMARK    1  A    between atoms: N4_10  and  C7_11 
REMARK    2  A    between atoms: C7_11  and  C8_12 
ROOT
HETATM    1  C1  UNL     1      22.248   7.168  50.118  1.00  0.00     0.037 C 
HETATM    2  C2  UNL     1      22.753   5.831  50.622  1.00  0.00     0.106 C 
HETATM    3  N1  UNL     1      21.731   4.861  50.276  1.00  0.00    -0.407 N 
HETATM    4  C3  UNL     1      21.336   4.631  48.979  1.00  0.00     0.109 A 
HETATM    5  C4  UNL     1      20.847   4.584  47.782  1.00  0.00     0.045 A 
HETATM    6  C5  UNL     1      21.729   3.439  47.871  1.00  0.00     0.139 A 
HETATM    7  N2  UNL     1      22.543   2.505  48.164  1.00  0.00    -0.265 NA
HETATM    8  C6  UNL     1      23.126   2.471  49.470  1.00  0.00     0.152 C 
HETATM    9  N3  UNL     1      22.363   1.740  50.224  1.00  0.00    -0.161 NA
HETATM   10  N4  UNL     1      22.910   1.684  51.521  1.00  0.00    -0.297 N 
HETATM   11  C13 UNL     1      23.838   2.780  51.655  1.00  0.00     0.116 C 
HETATM   12  C14 UNL     1      25.035   2.390  52.516  1.00  0.00     0.035 C 
HETATM   13  C15 UNL     1      24.285   2.968  50.227  1.00  0.00     0.116 C 
HETATM   14  C16 UNL     1      24.727   4.330  49.890  1.00  0.00    -0.036 A 
HETATM   15  C17 UNL     1      26.007   4.378  49.317  1.00  0.00     0.009 A 
HETATM   16  C18 UNL     1      26.693   5.502  48.905  1.00  0.00     0.001 A 
HETATM   17  C19 UNL     1      26.055   6.714  49.073  1.00  0.00     0.001 A 
HETATM   18  C20 UNL     1      24.795   6.678  49.635  1.00  0.00     0.010 A 
HETATM   19  C21 UNL     1      24.088   5.542  50.058  1.00  0.00    -0.029 A 
HETATM   20  H5  UNL     1      21.251   4.287  51.032  1.00  0.00     0.154 HD
ENDROOT
BRANCH  10  21
HETATM   21  C7  UNL     1      22.732   0.793  52.680  1.00  0.00     0.159 C 
BRANCH  21  22
HETATM   22  C8  UNL     1      21.279   0.785  53.123  1.00  0.00    -0.000 A 
HETATM   23  C9  UNL     1      20.602   2.136  53.009  1.00  0.00     0.021 C 
HETATM   24  C10 UNL     1      21.022   0.076  54.361  1.00  0.00     0.022 A 
HETATM   25  C11 UNL     1      20.339  -0.854  53.745  1.00  0.00     0.092 A 
HETATM   26  F1  UNL     1      19.672  -1.996  54.105  1.00  0.00    -0.211 F 
HETATM   27  C12 UNL     1      20.503  -0.269  52.413  1.00  0.00     0.084 A 
ENDBRANCH  21  22
ENDBRANCH  10  21
TORSDOF 2
ENDMDL
MODEL 7
REMARK VINA RESULT:      -7.8      3.573      6.930
REMARK  2 active torsions:
REMARK  status: ('A' for Active; 'I' for Inactive)
REMARK    1  A    between atoms: N4_10  and  C7_11 
REMARK    2  A    between atoms: C7_11  and  C8_12 
ROOT
HETATM    1  C1  UNL     1      22.540   5.034  52.050  1.00  0.00     0.037 C 
HETATM    2  C2  UNL     1      21.872   3.685  52.225  1.00  0.00     0.106 C 
HETATM    3  N1  UNL     1      21.065   3.481  51.036  1.00  0.00    -0.407 N 
HETATM    4  C3  UNL     1      21.602   3.456  49.770  1.00  0.00     0.109 A 
HETATM    5  C4  UNL     1      22.103   3.640  48.592  1.00  0.00     0.045 A 
HETATM    6  C5  UNL     1      22.021   2.203  48.744  1.00  0.00     0.139 A 
HETATM    7  N2  UNL     1      21.860   0.986  49.084  1.00  0.00    -0.265 NA
HETATM    8  C6  UNL     1      21.303   0.687  50.367  1.00  0.00     0.152 C 
HETATM    9  N3  UNL     1      20.017   0.586  50.226  1.00  0.00    -0.161 NA
HETATM   10  N4  UNL     1      19.435   0.290  51.473  1.00  0.00    -0.297 N 
HETATM   11  C13 UNL     1      20.389   0.640  52.497  1.00  0.00     0.116 C 
HETATM   12  C14 UNL     1      20.320  -0.331  53.673  1.00  0.00     0.035 C 
HETATM   13  C15 UNL     1      21.694   0.452  51.765  1.00  0.00     0.116 C 
HETATM   14  C16 UNL     1      22.807   1.275  52.262  1.00  0.00    -0.036 A 
HETATM   15  C17 UNL     1      23.953   0.532  52.584  1.00  0.00     0.009 A 
HETATM   16  C18 UNL     1      25.147   1.016  53.077  1.00  0.00     0.001 A 
HETATM   17  C19 UNL     1      25.229   2.378  53.278  1.00  0.00     0.001 A 
HETATM   18  C20 UNL     1      24.107   3.118  52.964  1.00  0.00     0.010 A 
HETATM   19  C21 UNL     1      22.888   2.638  52.462  1.00  0.00    -0.029 A 
HETATM   20  H5  UNL     1      20.014   3.340  51.113  1.00  0.00     0.154 HD
ENDROOT
BRANCH  10  21
HETATM   21  C7  UNL     1      18.140  -0.263  51.905  1.00  0.00     0.159 C 
BRANCH  21  22
HETATM   22  C8  UNL     1      17.004   0.381  51.128  1.00  0.00    -0.000 A 
HETATM   23  C9  UNL     1      16.734  -0.276  49.791  1.00  0.00     0.021 C 
HETATM   24  C10 UNL     1      17.025   1.831  51.104  1.00  0.00     0.022 A 
HETATM   25  C11 UNL     1      15.938   1.910  51.825  1.00  0.00     0.092 A 
HETATM   26  F1  UNL     1      15.158   2.914  52.334  1.00  0.00    -0.211 F 
HETATM   27  C12 UNL     1      15.764   0.461  51.950  1.00  0.00     0.084 A 
ENDBRANCH  21  22
ENDBRANCH  10  21
TORSDOF 2
ENDMDL
MODEL 8
REMARK VINA RESULT:      -7.5     11.173     13.288
REMARK  2 active torsions:
REMARK  status: ('A' for Active; 'I' for Inactive)
REMARK    1  A    between atoms: N4_10  and  C7_11 
REMARK    2  A    between atoms: C7_11  and  C8_12 
ROOT
HETATM    1  C1  UNL     1      33.114   3.262  47.040  1.00  0.00     0.037 C 
HETATM    2  C2  UNL     1      32.571   4.662  46.836  1.00  0.00     0.106 C 
HETATM    3  N1  UNL     1      32.855   5.383  48.063  1.00  0.00    -0.407 N 
HETATM    4  C3  UNL     1      34.132   5.558  48.543  1.00  0.00     0.109 A 
HETATM    5  C4  UNL     1      35.314   5.529  49.068  1.00  0.00     0.045 A 
HETATM    6  C5  UNL     1      35.202   6.842  48.468  1.00  0.00     0.139 A 
HETATM    7  N2  UNL     1      34.893   7.928  47.879  1.00  0.00    -0.265 NA
HETATM    8  C6  UNL     1      33.602   8.054  47.277  1.00  0.00     0.152 C 
HETATM    9  N3  UNL     1      32.802   8.565  48.161  1.00  0.00    -0.161 NA
HETATM   10  N4  UNL     1      31.518   8.704  47.600  1.00  0.00    -0.297 N 
HETATM   11  C13 UNL     1      31.449   7.845  46.443  1.00  0.00     0.116 C 
HETATM   12  C14 UNL     1      30.602   8.471  45.338  1.00  0.00     0.035 C 
HETATM   13  C15 UNL     1      32.894   7.810  46.011  1.00  0.00     0.116 C 
HETATM   14  C16 UNL     1      33.293   6.597  45.282  1.00  0.00    -0.036 A 
HETATM   15  C17 UNL     1      33.898   6.862  44.044  1.00  0.00     0.009 A 
HETATM   16  C18 UNL     1      34.370   5.939  43.134  1.00  0.00     0.001 A 
HETATM   17  C19 UNL     1      34.234   4.608  43.472  1.00  0.00     0.001 A 
HETATM   18  C20 UNL     1      33.640   4.337  44.688  1.00  0.00     0.010 A 
HETATM   19  C21 UNL     1      33.156   5.267  45.622  1.00  0.00    -0.029 A 
HETATM   20  H5  UNL     1      32.066   5.807  48.637  1.00  0.00     0.154 HD
ENDROOT
BRANCH  10  21
HETATM   21  C7  UNL     1      30.321   9.493  47.938  1.00  0.00     0.159 C 
BRANCH  21  22
HETATM   22  C8  UNL     1      30.653  10.975  47.962  1.00  0.00    -0.000 A 
HETATM   23  C9  UNL     1      31.871  11.338  47.138  1.00  0.00     0.021 C 
HETATM   24  C10 UNL     1      30.596  11.593  49.272  1.00  0.00     0.022 A 
HETATM   25  C11 UNL     1      29.561  12.320  48.940  1.00  0.00     0.092 A 
HETATM   26  F1  UNL     1      28.769  13.255  49.553  1.00  0.00    -0.211 F 
HETATM   27  C12 UNL     1      29.475  11.799  47.573  1.00  0.00     0.084 A 
ENDBRANCH  21  22
ENDBRANCH  10  21
TORSDOF 2
ENDMDL
MODEL 9
REMARK VINA RESULT:      -7.1      8.233      9.973
REMARK  2 active torsions:
REMARK  status: ('A' for Active; 'I' for Inactive)
REMARK    1  A    between atoms: N4_10  and  C7_11 
REMARK    2  A    between atoms: C7_11  and  C8_12 
ROOT
HETATM    1  C1  UNL     1      28.742   9.725  44.269  1.00  0.00     0.037 C 
HETATM    2  C2  UNL     1      29.049   8.730  45.369  1.00  0.00     0.106 C 
HETATM    3  N1  UNL     1      30.102   9.329  46.168  1.00  0.00    -0.407 N 
HETATM    4  C3  UNL     1      29.952  10.538  46.807  1.00  0.00     0.109 A 
HETATM    5  C4  UNL     1      29.852  11.759  47.223  1.00  0.00     0.045 A 
HETATM    6  C5  UNL     1      29.599  10.943  48.392  1.00  0.00     0.139 A 
HETATM    7  N2  UNL     1      29.410  10.048  49.278  1.00  0.00    -0.265 NA
HETATM    8  C6  UNL     1      29.510   8.669  48.911  1.00  0.00     0.152 C 
HETATM    9  N3  UNL     1      30.735   8.294  49.112  1.00  0.00    -0.161 NA
HETATM   10  N4  UNL     1      30.869   6.937  48.761  1.00  0.00    -0.297 N 
HETATM   11  C13 UNL     1      29.754   6.591  47.914  1.00  0.00     0.116 C 
HETATM   12  C14 UNL     1      29.292   5.158  48.165  1.00  0.00     0.035 C 
HETATM   13  C15 UNL     1      28.700   7.553  48.401  1.00  0.00     0.116 C 
HETATM   14  C16 UNL     1      27.680   7.911  47.403  1.00  0.00    -0.036 A 
HETATM   15  C17 UNL     1      26.365   7.700  47.846  1.00  0.00     0.009 A 
HETATM   16  C18 UNL     1      25.202   7.932  47.142  1.00  0.00     0.001 A 
HETATM   17  C19 UNL     1      25.340   8.424  45.860  1.00  0.00     0.001 A 
HETATM   18  C20 UNL     1      26.630   8.635  45.415  1.00  0.00     0.010 A 
HETATM   19  C21 UNL     1      27.820   8.403  46.122  1.00  0.00    -0.029 A 
HETATM   20  H5  UNL     1      31.038   8.839  46.286  1.00  0.00     0.154 HD
ENDROOT
BRANCH  10  21
HETATM   21  C7  UNL     1      31.852   5.882  49.065  1.00  0.00     0.159 C 
BRANCH  21  22
HETATM   22  C8  UNL     1      32.984   5.907  48.053  1.00  0.00    -0.000 A 
HETATM   23  C9  UNL     1      32.631   5.257  46.731  1.00  0.00     0.021 C 
HETATM   24  C10 UNL     1      34.285   5.548  48.582  1.00  0.00     0.022 A 
HETATM   25  C11 UNL     1      34.746   6.760  48.411  1.00  0.00     0.092 A 
HETATM   26  F1  UNL     1      35.932   7.409  48.631  1.00  0.00    -0.211 F 
HETATM   27  C12 UNL     1      33.500   7.290  47.852  1.00  0.00     0.084 A 
ENDBRANCH  21  22
ENDBRANCH  10  21
TORSDOF 2
ENDMDL
