MODEL 1
REMARK VINA RESULT:      -9.2      0.000      0.000
REMARK  1 active torsions:
REMARK  status: ('A' for Active; 'I' for Inactive)
REMARK    1  A    between atoms: C12_17  and  C13_18 
ROOT
HETATM    1  C1  UNL     1      23.133   0.195  53.553  1.00  0.00     0.063 C 
HETATM    2  C2  UNL     1      24.420   0.541  53.839  1.00  0.00     0.058 C 
HETATM    3  C3  UNL     1      24.945  -0.684  54.523  1.00  0.00     0.174 C 
HETATM    4  N1  UNL     1      26.388  -0.664  54.745  1.00  0.00    -0.403 N 
HETATM    5  C4  UNL     1      26.725  -0.156  53.421  1.00  0.00     0.057 A 
HETATM    6  C5  UNL     1      26.361  -0.968  52.392  1.00  0.00     0.036 A 
HETATM    7  C6  UNL     1      26.604   0.190  51.735  1.00  0.00     0.055 A 
HETATM    8  C7  UNL     1      27.006   1.387  52.211  1.00  0.00    -0.055 A 
HETATM    9  C8  UNL     1      27.370   2.143  53.291  1.00  0.00     0.003 A 
HETATM   10  C9  UNL     1      27.136   0.998  54.025  1.00  0.00     0.005 A 
HETATM   11  C10 UNL     1      26.811   2.449  51.139  1.00  0.00     0.158 C 
HETATM   12  N2  UNL     1      25.679   3.282  51.628  1.00  0.00    -0.349 N 
HETATM   13  C11 UNL     1      24.697   2.320  52.108  1.00  0.00     0.268 C 
HETATM   14  N3  UNL     1      24.686   1.884  53.358  1.00  0.00    -0.210 NA
HETATM   15  O1  UNL     1      23.745   1.862  51.182  1.00  0.00    -0.174 OA
HETATM   16  N4  UNL     1      22.475   1.361  51.491  1.00  0.00    -0.124 NA
HETATM   17  C12 UNL     1      22.154   0.576  52.495  1.00  0.00     0.098 C 
HETATM   18  H4  UNL     1      26.769  -0.986  55.689  1.00  0.00     0.154 HD
HETATM   19  H11 UNL     1      25.409   4.300  51.718  1.00  0.00     0.163 HD
ENDROOT
BRANCH  17  20
HETATM   20  C13 UNL     1      20.794   0.117  52.484  1.00  0.00     0.012 A 
HETATM   21  C14 UNL     1      20.049   0.445  51.372  1.00  0.00     0.017 A 
HETATM   22  C15 UNL     1      18.727   0.021  51.322  1.00  0.00     0.020 A 
HETATM   23  C16 UNL     1      18.096  -0.709  52.305  1.00  0.00     0.116 A 
HETATM   24  N5  UNL     1      18.866  -1.005  53.373  1.00  0.00    -0.272 NA
HETATM   25  C17 UNL     1      20.150  -0.608  53.449  1.00  0.00     0.130 A 
ENDBRANCH  17  20
TORSDOF 1
ENDMDL
MODEL 2
REMARK VINA RESULT:      -9.1      3.066      4.400
REMARK  1 active torsions:
REMARK  status: ('A' for Active; 'I' for Inactive)
REMARK    1  A    between atoms: C12_17  and  C13_18 
ROOT
HETATM    1  C1  UNL     1      24.678   2.103  51.971  1.00  0.00     0.063 C 
HETATM    2  C2  UNL     1      25.183   1.454  53.057  1.00  0.00     0.058 C 
HETATM    3  C3  UNL     1      24.234   0.307  53.226  1.00  0.00     0.174 C 
HETATM    4  N1  UNL     1      24.674  -0.685  54.202  1.00  0.00    -0.403 N 
HETATM    5  C4  UNL     1      26.059  -0.721  53.749  1.00  0.00     0.057 A 
HETATM    6  C5  UNL     1      26.226  -1.135  52.463  1.00  0.00     0.036 A 
HETATM    7  C6  UNL     1      27.434  -0.580  52.716  1.00  0.00     0.055 A 
HETATM    8  C7  UNL     1      27.898   0.011  53.837  1.00  0.00    -0.055 A 
HETATM    9  C8  UNL     1      27.663   0.393  55.130  1.00  0.00     0.003 A 
HETATM   10  C9  UNL     1      26.409  -0.151  54.939  1.00  0.00     0.005 A 
HETATM   11  C10 UNL     1      29.180   0.767  53.517  1.00  0.00     0.158 C 
HETATM   12  N2  UNL     1      28.807   2.205  53.603  1.00  0.00    -0.349 N 
HETATM   13  C11 UNL     1      27.531   2.295  52.907  1.00  0.00     0.268 C 
HETATM   14  N3  UNL     1      26.373   2.139  53.530  1.00  0.00    -0.210 NA
HETATM   15  O1  UNL     1      27.573   2.557  51.528  1.00  0.00    -0.174 OA
HETATM   16  N4  UNL     1      26.553   3.153  50.775  1.00  0.00    -0.124 NA
HETATM   17  C12 UNL     1      25.259   2.950  50.889  1.00  0.00     0.098 C 
HETATM   18  H4  UNL     1      23.964  -1.076  54.896  1.00  0.00     0.154 HD
HETATM   19  H11 UNL     1      29.181   3.111  53.998  1.00  0.00     0.163 HD
ENDROOT
BRANCH  17  20
HETATM   20  C13 UNL     1      24.461   3.603  49.892  1.00  0.00     0.012 A 
HETATM   21  C14 UNL     1      23.434   2.861  49.351  1.00  0.00     0.017 A 
HETATM   22  C15 UNL     1      22.637   3.457  48.380  1.00  0.00     0.020 A 
HETATM   23  C16 UNL     1      22.794   4.743  47.912  1.00  0.00     0.116 A 
HETATM   24  N5  UNL     1      23.812   5.428  48.473  1.00  0.00    -0.272 NA
HETATM   25  C17 UNL     1      24.601   4.878  49.415  1.00  0.00     0.130 A 
ENDBRANCH  17  20
TORSDOF 1
ENDMDL
MODEL 3
REMARK VINA RESULT:      -8.6      1.904      6.341
REMARK  1 active torsions:
REMARK  status: ('A' for Active; 'I' for Inactive)
REMARK    1  A    between atoms: C12_17  and  C13_18 
ROOT
HETATM    1  C1  UNL     1      24.446   1.520  52.808  1.00  0.00     0.063 C 
HETATM    2  C2  UNL     1      23.243   2.093  52.525  1.00  0.00     0.058 C 
HETATM    3  C3  UNL     1      23.590   3.071  51.444  1.00  0.00     0.174 C 
HETATM    4  N1  UNL     1      22.429   3.674  50.798  1.00  0.00    -0.403 N 
HETATM    5  C4  UNL     1      21.674   2.433  50.682  1.00  0.00     0.057 A 
HETATM    6  C5  UNL     1      22.267   1.477  49.915  1.00  0.00     0.036 A 
HETATM    7  C6  UNL     1      21.330   0.746  50.563  1.00  0.00     0.055 A 
HETATM    8  C7  UNL     1      20.410   1.128  51.473  1.00  0.00    -0.055 A 
HETATM    9  C8  UNL     1      19.856   2.140  52.208  1.00  0.00     0.003 A 
HETATM   10  C9  UNL     1      20.790   2.945  51.587  1.00  0.00     0.005 A 
HETATM   11  C10 UNL     1      19.823  -0.103  52.147  1.00  0.00     0.158 C 
HETATM   12  N2  UNL     1      20.366  -0.075  53.534  1.00  0.00    -0.349 N 
HETATM   13  C11 UNL     1      21.774   0.257  53.369  1.00  0.00     0.268 C 
HETATM   14  N3  UNL     1      22.210   1.507  53.360  1.00  0.00    -0.210 NA
HETATM   15  O1  UNL     1      22.669  -0.815  53.217  1.00  0.00    -0.174 OA
HETATM   16  N4  UNL     1      24.034  -0.794  53.528  1.00  0.00    -0.124 NA
HETATM   17  C12 UNL     1      24.881   0.189  53.321  1.00  0.00     0.098 C 
HETATM   18  H4  UNL     1      22.435   4.724  50.602  1.00  0.00     0.154 HD
HETATM   19  H11 UNL     1      20.039  -0.217  54.528  1.00  0.00     0.163 HD
ENDROOT
BRANCH  17  20
HETATM   20  C13 UNL     1      26.248  -0.125  53.625  1.00  0.00     0.012 A 
HETATM   21  C14 UNL     1      26.917  -0.894  52.697  1.00  0.00     0.017 A 
HETATM   22  C15 UNL     1      28.243  -1.222  52.953  1.00  0.00     0.020 A 
HETATM   23  C16 UNL     1      28.948  -0.835  54.071  1.00  0.00     0.116 A 
HETATM   24  N5  UNL     1      28.251  -0.083  54.948  1.00  0.00    -0.272 NA
HETATM   25  C17 UNL     1      26.966   0.250  54.727  1.00  0.00     0.130 A 
ENDBRANCH  17  20
TORSDOF 1
ENDMDL
MODEL 4
REMARK VINA RESULT:      -8.1      2.719      6.283
REMARK  1 active torsions:
REMARK  status: ('A' for Active; 'I' for Inactive)
REMARK    1  A    between atoms: C12_17  and  C13_18 
ROOT
HETATM    1  C1  UNL     1      24.977   1.470  52.088  1.00  0.00     0.063 C 
HETATM    2  C2  UNL     1      23.907   2.107  51.537  1.00  0.00     0.058 C 
HETATM    3  C3  UNL     1      22.847   1.935  52.582  1.00  0.00     0.174 C 
HETATM    4  N1  UNL     1      21.642   2.722  52.337  1.00  0.00    -0.403 N 
HETATM    5  C4  UNL     1      22.346   3.941  51.960  1.00  0.00     0.057 A 
HETATM    6  C5  UNL     1      23.132   4.469  52.938  1.00  0.00     0.036 A 
HETATM    7  C6  UNL     1      23.594   5.128  51.850  1.00  0.00     0.055 A 
HETATM    8  C7  UNL     1      23.211   5.043  50.559  1.00  0.00    -0.055 A 
HETATM    9  C8  UNL     1      22.383   4.476  49.629  1.00  0.00     0.003 A 
HETATM   10  C9  UNL     1      21.867   3.765  50.694  1.00  0.00     0.005 A 
HETATM   11  C10 UNL     1      24.248   5.725  49.678  1.00  0.00     0.158 C 
HETATM   12  N2  UNL     1      24.922   4.614  48.952  1.00  0.00    -0.349 N 
HETATM   13  C11 UNL     1      25.156   3.599  49.971  1.00  0.00     0.268 C 
HETATM   14  N3  UNL     1      24.272   2.652  50.241  1.00  0.00    -0.210 NA
HETATM   15  O1  UNL     1      26.374   3.663  50.667  1.00  0.00    -0.174 OA
HETATM   16  N4  UNL     1      27.018   2.589  51.293  1.00  0.00    -0.124 NA
HETATM   17  C12 UNL     1      26.457   1.619  51.982  1.00  0.00     0.098 C 
HETATM   18  H4  UNL     1      20.689   2.264  52.482  1.00  0.00     0.154 HD
HETATM   19  H11 UNL     1      25.252   4.373  47.978  1.00  0.00     0.163 HD
ENDROOT
BRANCH  17  20
HETATM   20  C13 UNL     1      27.383   0.726  52.619  1.00  0.00     0.012 A 
HETATM   21  C14 UNL     1      28.498   1.306  53.183  1.00  0.00     0.017 A 
HETATM   22  C15 UNL     1      29.420   0.476  53.810  1.00  0.00     0.020 A 
HETATM   23  C16 UNL     1      29.306  -0.893  53.913  1.00  0.00     0.116 A 
HETATM   24  N5  UNL     1      28.197  -1.412  53.346  1.00  0.00    -0.272 NA
HETATM   25  C17 UNL     1      27.287  -0.634  52.731  1.00  0.00     0.130 A 
ENDBRANCH  17  20
TORSDOF 1
ENDMDL
MODEL 5
REMARK VINA RESULT:      -7.9      3.305      7.174
REMARK  1 active torsions:
REMARK  status: ('A' for Active; 'I' for Inactive)
REMARK    1  A    between atoms: C12_17  and  C13_18 
ROOT
HETATM    1  C1  UNL     1      26.253   3.581  49.899  1.00  0.00     0.063 C 
HETATM    2  C2  UNL     1      25.498   2.616  50.495  1.00  0.00     0.058 C 
HETATM    3  C3  UNL     1      26.502   1.881  51.329  1.00  0.00     0.174 C 
HETATM    4  N1  UNL     1      25.911   0.918  52.253  1.00  0.00    -0.403 N 
HETATM    5  C4  UNL     1      24.837   1.795  52.701  1.00  0.00     0.057 A 
HETATM    6  C5  UNL     1      25.254   2.933  53.320  1.00  0.00     0.036 A 
HETATM    7  C6  UNL     1      23.962   3.239  53.059  1.00  0.00     0.055 A 
HETATM    8  C7  UNL     1      23.004   2.507  52.453  1.00  0.00    -0.055 A 
HETATM    9  C8  UNL     1      22.652   1.332  51.846  1.00  0.00     0.003 A 
HETATM   10  C9  UNL     1      23.960   0.956  52.076  1.00  0.00     0.005 A 
HETATM   11  C10 UNL     1      21.828   3.405  52.098  1.00  0.00     0.158 C 
HETATM   12  N2  UNL     1      21.870   3.522  50.615  1.00  0.00    -0.349 N 
HETATM   13  C11 UNL     1      23.276   3.742  50.305  1.00  0.00     0.268 C 
HETATM   14  N3  UNL     1      24.114   2.744  50.074  1.00  0.00    -0.210 NA
HETATM   15  O1  UNL     1      23.719   5.074  50.258  1.00  0.00    -0.174 OA
HETATM   16  N4  UNL     1      24.821   5.548  49.537  1.00  0.00    -0.124 NA
HETATM   17  C12 UNL     1      25.986   4.956  49.388  1.00  0.00     0.098 C 
HETATM   18  H4  UNL     1      26.360  -0.046  52.350  1.00  0.00     0.154 HD
HETATM   19  H11 UNL     1      21.215   3.492  49.786  1.00  0.00     0.163 HD
ENDROOT
BRANCH  17  20
HETATM   20  C13 UNL     1      26.972   5.742  48.701  1.00  0.00     0.012 A 
HETATM   21  C14 UNL     1      28.219   5.172  48.566  1.00  0.00     0.017 A 
HETATM   22  C15 UNL     1      29.203   5.899  47.908  1.00  0.00     0.020 A 
HETATM   23  C16 UNL     1      29.028   7.157  47.373  1.00  0.00     0.116 A 
HETATM   24  N5  UNL     1      27.791   7.671  47.530  1.00  0.00    -0.272 NA
HETATM   25  C17 UNL     1      26.818   6.990  48.163  1.00  0.00     0.130 A 
ENDBRANCH  17  20
TORSDOF 1
ENDMDL
MODEL 6
REMARK VINA RESULT:      -7.7      2.473      6.390
REMARK  1 active torsions:
REMARK  status: ('A' for Active; 'I' for Inactive)
REMARK    1  A    between atoms: C12_17  and  C13_18 
ROOT
HETATM    1  C1  UNL     1      25.540   2.580  51.819  1.00  0.00     0.063 C 
HETATM    2  C2  UNL     1      24.539   3.436  51.470  1.00  0.00     0.058 C 
HETATM    3  C3  UNL     1      25.147   4.209  50.340  1.00  0.00     0.174 C 
HETATM    4  N1  UNL     1      24.198   5.059  49.627  1.00  0.00    -0.403 N 
HETATM    5  C4  UNL     1      23.135   4.064  49.570  1.00  0.00     0.057 A 
HETATM    6  C5  UNL     1      23.452   2.934  48.881  1.00  0.00     0.036 A 
HETATM    7  C6  UNL     1      22.347   2.529  49.549  1.00  0.00     0.055 A 
HETATM    8  C7  UNL     1      21.559   3.206  50.410  1.00  0.00    -0.055 A 
HETATM    9  C8  UNL     1      21.295   4.377  51.066  1.00  0.00     0.003 A 
HETATM   10  C9  UNL     1      22.417   4.856  50.420  1.00  0.00     0.005 A 
HETATM   11  C10 UNL     1      20.655   2.228  51.145  1.00  0.00     0.158 C 
HETATM   12  N2  UNL     1      21.174   2.202  52.540  1.00  0.00    -0.349 N 
HETATM   13  C11 UNL     1      22.621   2.127  52.391  1.00  0.00     0.268 C 
HETATM   14  N3  UNL     1      23.380   3.209  52.315  1.00  0.00    -0.210 NA
HETATM   15  O1  UNL     1      23.192   0.846  52.329  1.00  0.00    -0.174 OA
HETATM   16  N4  UNL     1      24.509   0.517  52.673  1.00  0.00    -0.124 NA
HETATM   17  C12 UNL     1      25.593   1.219  52.426  1.00  0.00     0.098 C 
HETATM   18  H4  UNL     1      24.491   6.052  49.367  1.00  0.00     0.154 HD
HETATM   19  H11 UNL     1      20.814   2.221  53.533  1.00  0.00     0.163 HD
ENDROOT
BRANCH  17  20
HETATM   20  C13 UNL     1      26.821   0.567  52.783  1.00  0.00     0.012 A 
HETATM   21  C14 UNL     1      26.850  -0.802  52.632  1.00  0.00     0.017 A 
HETATM   22  C15 UNL     1      28.021  -1.472  52.967  1.00  0.00     0.020 A 
HETATM   23  C16 UNL     1      29.165  -0.870  53.443  1.00  0.00     0.116 A 
HETATM   24  N5  UNL     1      29.086   0.471  53.572  1.00  0.00    -0.272 NA
HETATM   25  C17 UNL     1      27.966   1.147  53.256  1.00  0.00     0.130 A 
ENDBRANCH  17  20
TORSDOF 1
ENDMDL
MODEL 7
REMARK VINA RESULT:      -7.6      1.884      6.155
REMARK  1 active torsions:
REMARK  status: ('A' for Active; 'I' for Inactive)
REMARK    1  A    between atoms: C12_17  and  C13_18 
ROOT
HETATM    1  C1  UNL     1      23.813   0.611  52.529  1.00  0.00     0.063 C 
HETATM    2  C2  UNL     1      22.647   0.709  51.832  1.00  0.00     0.058 C 
HETATM    3  C3  UNL     1      21.703  -0.115  52.653  1.00  0.00     0.174 C 
HETATM    4  N1  UNL     1      20.307  -0.000  52.241  1.00  0.00    -0.403 N 
HETATM    5  C4  UNL     1      20.330   1.448  52.075  1.00  0.00     0.057 A 
HETATM    6  C5  UNL     1      20.604   2.145  53.211  1.00  0.00     0.036 A 
HETATM    7  C6  UNL     1      20.797   3.097  52.269  1.00  0.00     0.055 A 
HETATM    8  C7  UNL     1      20.678   3.025  50.927  1.00  0.00    -0.055 A 
HETATM    9  C8  UNL     1      20.381   2.266  49.828  1.00  0.00     0.003 A 
HETATM   10  C9  UNL     1      20.172   1.245  50.734  1.00  0.00     0.005 A 
HETATM   11  C10 UNL     1      21.321   4.250  50.294  1.00  0.00     0.158 C 
HETATM   12  N2  UNL     1      22.554   3.737  49.636  1.00  0.00    -0.349 N 
HETATM   13  C11 UNL     1      23.144   2.834  50.616  1.00  0.00     0.268 C 
HETATM   14  N3  UNL     1      22.843   1.546  50.661  1.00  0.00    -0.210 NA
HETATM   15  O1  UNL     1      24.058   3.389  51.526  1.00  0.00    -0.174 OA
HETATM   16  N4  UNL     1      25.076   2.695  52.192  1.00  0.00    -0.124 NA
HETATM   17  C12 UNL     1      25.009   1.486  52.705  1.00  0.00     0.098 C 
HETATM   18  H4  UNL     1      19.713  -0.885  52.179  1.00  0.00     0.154 HD
HETATM   19  H11 UNL     1      23.081   3.836  48.726  1.00  0.00     0.163 HD
ENDROOT
BRANCH  17  20
HETATM   20  C13 UNL     1      26.171   1.085  53.444  1.00  0.00     0.012 A 
HETATM   21  C14 UNL     1      27.318   1.814  53.219  1.00  0.00     0.017 A 
HETATM   22  C15 UNL     1      28.468   1.458  53.914  1.00  0.00     0.020 A 
HETATM   23  C16 UNL     1      28.551   0.424  54.820  1.00  0.00     0.116 A 
HETATM   24  N5  UNL     1      27.403  -0.259  55.007  1.00  0.00    -0.272 NA
HETATM   25  C17 UNL     1      26.275   0.062  54.347  1.00  0.00     0.130 A 
ENDBRANCH  17  20
TORSDOF 1
ENDMDL
MODEL 8
REMARK VINA RESULT:      -7.6      7.704     10.510
REMARK  1 active torsions:
REMARK  status: ('A' for Active; 'I' for Inactive)
REMARK    1  A    between atoms: C12_17  and  C13_18 
ROOT
HETATM    1  C1  UNL     1      30.328   5.151  47.923  1.00  0.00     0.063 C 
HETATM    2  C2  UNL     1      31.670   4.929  47.842  1.00  0.00     0.058 C 
HETATM    3  C3  UNL     1      31.753   3.749  46.924  1.00  0.00     0.174 C 
HETATM    4  N1  UNL     1      33.110   3.434  46.488  1.00  0.00    -0.403 N 
HETATM    5  C4  UNL     1      33.494   4.814  46.220  1.00  0.00     0.057 A 
HETATM    6  C5  UNL     1      32.760   5.430  45.254  1.00  0.00     0.036 A 
HETATM    7  C6  UNL     1      33.361   6.491  45.839  1.00  0.00     0.055 A 
HETATM    8  C7  UNL     1      34.227   6.535  46.873  1.00  0.00    -0.055 A 
HETATM    9  C8  UNL     1      34.944   5.850  47.815  1.00  0.00     0.003 A 
HETATM   10  C9  UNL     1      34.362   4.723  47.270  1.00  0.00     0.005 A 
HETATM   11  C10 UNL     1      34.352   7.968  47.368  1.00  0.00     0.158 C 
HETATM   12  N2  UNL     1      33.666   7.977  48.690  1.00  0.00    -0.349 N 
HETATM   13  C11 UNL     1      32.441   7.220  48.471  1.00  0.00     0.268 C 
HETATM   14  N3  UNL     1      32.379   5.909  48.645  1.00  0.00    -0.210 NA
HETATM   15  O1  UNL     1      31.308   7.943  48.063  1.00  0.00    -0.174 OA
HETATM   16  N4  UNL     1      29.976   7.561  48.262  1.00  0.00    -0.124 NA
HETATM   17  C12 UNL     1      29.474   6.350  48.160  1.00  0.00     0.098 C 
HETATM   18  H4  UNL     1      33.425   2.414  46.478  1.00  0.00     0.154 HD
HETATM   19  H11 UNL     1      33.809   8.350  49.668  1.00  0.00     0.163 HD
ENDROOT
BRANCH  17  20
HETATM   20  C13 UNL     1      28.046   6.282  48.292  1.00  0.00     0.012 A 
HETATM   21  C14 UNL     1      27.538   5.116  48.823  1.00  0.00     0.017 A 
HETATM   22  C15 UNL     1      26.160   5.009  48.967  1.00  0.00     0.020 A 
HETATM   23  C16 UNL     1      25.253   5.985  48.619  1.00  0.00     0.116 A 
HETATM   24  N5  UNL     1      25.799   7.107  48.105  1.00  0.00    -0.272 NA
HETATM   25  C17 UNL     1      27.130   7.240  47.953  1.00  0.00     0.130 A 
ENDBRANCH  17  20
TORSDOF 1
ENDMDL
MODEL 9
REMARK VINA RESULT:      -7.2      3.383      5.402
REMARK  1 active torsions:
REMARK  status: ('A' for Active; 'I' for Inactive)
REMARK    1  A    between atoms: C12_17  and  C13_18 
ROOT
HETATM    1  C1  UNL     1      22.285   2.237  50.886  1.00  0.00     0.063 C 
HETATM    2  C2  UNL     1      22.524   3.136  49.890  1.00  0.00     0.058 C 
HETATM    3  C3  UNL     1      21.165   3.333  49.291  1.00  0.00     0.174 C 
HETATM    4  N1  UNL     1      21.097   4.429  48.329  1.00  0.00    -0.403 N 
HETATM    5  C4  UNL     1      21.874   5.366  49.130  1.00  0.00     0.057 A 
HETATM    6  C5  UNL     1      21.318   5.684  50.331  1.00  0.00     0.036 A 
HETATM    7  C6  UNL     1      22.585   6.125  50.506  1.00  0.00     0.055 A 
HETATM    8  C7  UNL     1      23.637   6.097  49.662  1.00  0.00    -0.055 A 
HETATM    9  C8  UNL     1      24.128   5.757  48.431  1.00  0.00     0.003 A 
HETATM   10  C9  UNL     1      22.855   5.281  48.185  1.00  0.00     0.005 A 
HETATM   11  C10 UNL     1      24.914   6.399  50.433  1.00  0.00     0.158 C 
HETATM   12  N2  UNL     1      25.650   5.106  50.476  1.00  0.00    -0.349 N 
HETATM   13  C11 UNL     1      24.632   4.117  50.804  1.00  0.00     0.268 C 
HETATM   14  N3  UNL     1      23.933   3.487  49.873  1.00  0.00    -0.210 NA
HETATM   15  O1  UNL     1      24.415   3.850  52.165  1.00  0.00    -0.174 OA
HETATM   16  N4  UNL     1      23.893   2.665  52.696  1.00  0.00    -0.124 NA
HETATM   17  C12 UNL     1      22.915   1.937  52.204  1.00  0.00     0.098 C 
HETATM   18  H4  UNL     1      20.566   4.280  47.415  1.00  0.00     0.154 HD
HETATM   19  H11 UNL     1      26.629   4.733  50.345  1.00  0.00     0.163 HD
ENDROOT
BRANCH  17  20
HETATM   20  C13 UNL     1      22.507   0.842  53.036  1.00  0.00     0.012 A 
HETATM   21  C14 UNL     1      21.162   0.764  53.325  1.00  0.00     0.017 A 
HETATM   22  C15 UNL     1      20.725  -0.281  54.130  1.00  0.00     0.020 A 
HETATM   23  C16 UNL     1      21.537  -1.256  54.665  1.00  0.00     0.116 A 
HETATM   24  N5  UNL     1      22.845  -1.137  54.353  1.00  0.00    -0.272 NA
HETATM   25  C17 UNL     1      23.297  -0.135  53.577  1.00  0.00     0.130 A 
ENDBRANCH  17  20
TORSDOF 1
ENDMDL
