MODEL 1
REMARK VINA RESULT:     -10.2      0.000      0.000
REMARK  4 active torsions:
REMARK  status: ('A' for Active; 'I' for Inactive)
REMARK    1  A    between atoms: C2_2  and  C3_3 
REMARK       I    between atoms: C3_3  and  N1_5 
REMARK    2  A    between atoms: C7_9  and  N2_10 
REMARK    3  A    between atoms: C8_12  and  C9_13 
REMARK    4  A    between atoms: C21_26  and  N4_27 
ROOT
HETATM    1  N2  UNL     1      22.631   1.977  51.085  1.00  0.00    -0.244 N 
HETATM    2  N3  UNL     1      23.509   1.277  51.766  1.00  0.00    -0.169 NA
HETATM    3  C8  UNL     1      24.755   1.717  51.557  1.00  0.00     0.102 A 
HETATM    4  C20 UNL     1      24.562   2.758  50.687  1.00  0.00     0.088 A 
HETATM    5  C21 UNL     1      25.376   3.676  50.099  1.00  0.00     0.139 A 
HETATM    6  N5  UNL     1      24.959   4.654  49.292  1.00  0.00    -0.224 NA
HETATM    7  C22 UNL     1      23.643   4.803  48.995  1.00  0.00     0.237 A 
HETATM    8  N6  UNL     1      22.828   3.907  49.572  1.00  0.00    -0.222 NA
HETATM    9  C23 UNL     1      23.247   2.938  50.375  1.00  0.00     0.164 A 
ENDROOT
BRANCH   3  10
HETATM   10  C9  UNL     1      26.009   1.245  52.195  1.00  0.00    -0.018 C 
HETATM   11  C10 UNL     1      26.972   1.841  52.783  1.00  0.00     0.057 C 
HETATM   12  C11 UNL     1      27.961   2.693  53.409  1.00  0.00     0.008 C 
HETATM   13  C12 UNL     1      29.015   2.124  53.956  1.00  0.00     0.132 C 
HETATM   14  O2  UNL     1      29.916   1.076  54.380  1.00  0.00    -0.350 OA
HETATM   15  C13 UNL     1      29.553  -0.102  53.761  1.00  0.00     0.174 C 
HETATM   16  C14 UNL     1      30.100  -1.395  54.063  1.00  0.00     0.010 C 
HETATM   17  C17 UNL     1      28.105  -0.439  54.030  1.00  0.00     0.020 C 
HETATM   18  C15 UNL     1      29.376  -2.052  53.090  1.00  0.00     0.010 C 
HETATM   19  C16 UNL     1      28.043  -1.367  53.091  1.00  0.00    -0.037 C 
HETATM   20  C18 UNL     1      26.756  -1.303  52.408  1.00  0.00     0.012 C 
HETATM   21  C19 UNL     1      26.125  -0.180  52.151  1.00  0.00     0.011 C 
ENDBRANCH   3  10
BRANCH   1  22
HETATM   22  C7  UNL     1      21.199   1.691  51.139  1.00  0.00     0.130 C 
HETATM   23  C6  UNL     1      20.435   2.992  51.240  1.00  0.00     0.030 C 
HETATM   24  C5  UNL     1      19.072   2.785  51.884  1.00  0.00     0.022 C 
HETATM   25  C4  UNL     1      18.646   1.370  51.477  1.00  0.00     0.126 C 
HETATM   26  N1  UNL     1      19.464   0.459  52.242  1.00  0.00    -0.347 N 
HETATM   27  C3  UNL     1      18.956  -0.660  52.976  1.00  0.00     0.242 C 
HETATM   28  C24 UNL     1      20.875   0.724  52.243  1.00  0.00     0.153 C 
HETATM   29  O1  UNL     1      19.455  -1.568  53.697  1.00  0.00    -0.268 OA
BRANCH  27  30
HETATM   30  C2  UNL     1      17.525  -0.893  52.949  1.00  0.00     0.064 C 
HETATM   31  C1  UNL     1      17.146  -2.144  53.071  1.00  0.00     0.017 C 
ENDBRANCH  27  30
ENDBRANCH   1  22
BRANCH   5  32
HETATM   32  N4  UNL     1      26.760   3.780  50.335  1.00  0.00    -0.383 N 
HETATM   33  H20 UNL     1      26.939   4.622  50.891  1.00  0.00     0.157 HD
HETATM   34  H21 UNL     1      27.776   3.855  50.509  1.00  0.00     0.157 HD
ENDBRANCH   5  32
TORSDOF 4
ENDMDL
MODEL 2
REMARK VINA RESULT:     -10.0      2.463      4.192
REMARK  4 active torsions:
REMARK  status: ('A' for Active; 'I' for Inactive)
REMARK    1  A    between atoms: C2_2  and  C3_3 
REMARK       I    between atoms: C3_3  and  N1_5 
REMARK    2  A    between atoms: C7_9  and  N2_10 
REMARK    3  A    between atoms: C8_12  and  C9_13 
REMARK    4  A    between atoms: C21_26  and  N4_27 
ROOT
HETATM    1  N2  UNL     1      21.918   0.740  51.581  1.00  0.00    -0.244 N 
HETATM    2  N3  UNL     1      23.207   0.992  51.573  1.00  0.00    -0.169 NA
HETATM    3  C8  UNL     1      23.816   0.466  52.641  1.00  0.00     0.102 A 
HETATM    4  C20 UNL     1      22.783  -0.139  53.307  1.00  0.00     0.088 A 
HETATM    5  C21 UNL     1      22.683  -0.895  54.434  1.00  0.00     0.139 A 
HETATM    6  N5  UNL     1      21.549  -1.430  54.892  1.00  0.00    -0.224 NA
HETATM    7  C22 UNL     1      20.375  -1.247  54.236  1.00  0.00     0.237 A 
HETATM    8  N6  UNL     1      20.459  -0.507  53.120  1.00  0.00    -0.222 NA
HETATM    9  C23 UNL     1      21.589   0.020  52.669  1.00  0.00     0.164 A 
ENDROOT
BRANCH   3  10
HETATM   10  C9  UNL     1      25.266   0.465  52.957  1.00  0.00    -0.018 C 
HETATM   11  C10 UNL     1      26.087   1.374  53.315  1.00  0.00     0.057 C 
HETATM   12  C11 UNL     1      26.857   2.535  53.707  1.00  0.00     0.008 C 
HETATM   13  C12 UNL     1      28.135   2.372  53.980  1.00  0.00     0.132 C 
HETATM   14  O2  UNL     1      29.402   1.699  54.159  1.00  0.00    -0.350 OA
HETATM   15  C13 UNL     1      29.315   0.433  53.618  1.00  0.00     0.174 C 
HETATM   16  C14 UNL     1      30.310  -0.593  53.757  1.00  0.00     0.010 C 
HETATM   17  C17 UNL     1      28.160  -0.339  54.213  1.00  0.00     0.020 C 
HETATM   18  C15 UNL     1      29.640  -1.504  52.967  1.00  0.00     0.010 C 
HETATM   19  C16 UNL     1      28.194  -1.290  53.296  1.00  0.00    -0.037 C 
HETATM   20  C18 UNL     1      26.837  -1.687  52.936  1.00  0.00     0.012 C 
HETATM   21  C19 UNL     1      25.831  -0.846  52.858  1.00  0.00     0.011 C 
ENDBRANCH   3  10
BRANCH   1  22
HETATM   22  C7  UNL     1      21.027   1.211  50.523  1.00  0.00     0.130 C 
HETATM   23  C6  UNL     1      21.831   1.441  49.262  1.00  0.00     0.030 C 
HETATM   24  C5  UNL     1      21.151   2.452  48.350  1.00  0.00     0.022 C 
HETATM   25  C4  UNL     1      19.649   2.269  48.596  1.00  0.00     0.126 C 
HETATM   26  N1  UNL     1      19.374   2.829  49.897  1.00  0.00    -0.347 N 
HETATM   27  C3  UNL     1      18.308   3.744  50.173  1.00  0.00     0.242 C 
HETATM   28  C24 UNL     1      20.248   2.419  50.960  1.00  0.00     0.153 C 
HETATM   29  O1  UNL     1      17.882   4.351  51.194  1.00  0.00    -0.268 OA
BRANCH  27  30
HETATM   30  C2  UNL     1      17.449   4.133  49.073  1.00  0.00     0.064 C 
HETATM   31  C1  UNL     1      16.202   3.728  49.148  1.00  0.00     0.017 C 
ENDBRANCH  27  30
ENDBRANCH   1  22
BRANCH   5  32
HETATM   32  N4  UNL     1      23.779  -1.297  55.221  1.00  0.00    -0.383 N 
HETATM   33  H20 UNL     1      24.604  -0.757  54.941  1.00  0.00     0.157 HD
HETATM   34  H21 UNL     1      24.583  -1.592  55.800  1.00  0.00     0.157 HD
ENDBRANCH   5  32
TORSDOF 4
ENDMDL
MODEL 3
REMARK VINA RESULT:     -10.0      2.543      5.245
REMARK  4 active torsions:
REMARK  status: ('A' for Active; 'I' for Inactive)
REMARK    1  A    between atoms: C2_2  and  C3_3 
REMARK       I    between atoms: C3_3  and  N1_5 
REMARK    2  A    between atoms: C7_9  and  N2_10 
REMARK    3  A    between atoms: C8_12  and  C9_13 
REMARK    4  A    between atoms: C21_26  and  N4_27 
ROOT
HETATM    1  N2  UNL     1      22.904   2.229  50.599  1.00  0.00    -0.244 N 
HETATM    2  N3  UNL     1      24.197   2.142  50.816  1.00  0.00    -0.169 NA
HETATM    3  C8  UNL     1      24.464   1.398  51.894  1.00  0.00     0.102 A 
HETATM    4  C20 UNL     1      23.215   1.029  52.320  1.00  0.00     0.088 A 
HETATM    5  C21 UNL     1      22.740   0.238  53.321  1.00  0.00     0.139 A 
HETATM    6  N5  UNL     1      21.449  -0.021  53.536  1.00  0.00    -0.224 NA
HETATM    7  C22 UNL     1      20.487   0.505  52.736  1.00  0.00     0.237 A 
HETATM    8  N6  UNL     1      20.941   1.282  51.741  1.00  0.00    -0.222 NA
HETATM    9  C23 UNL     1      22.226   1.536  51.531  1.00  0.00     0.164 A 
ENDROOT
BRANCH   3  10
HETATM   10  C9  UNL     1      25.793   1.001  52.423  1.00  0.00    -0.018 C 
HETATM   11  C10 UNL     1      26.762   1.652  52.937  1.00  0.00     0.057 C 
HETATM   12  C11 UNL     1      27.745   2.560  53.489  1.00  0.00     0.008 C 
HETATM   13  C12 UNL     1      28.873   2.054  53.943  1.00  0.00     0.132 C 
HETATM   14  O2  UNL     1      29.869   1.062  54.282  1.00  0.00    -0.350 OA
HETATM   15  C13 UNL     1      29.529  -0.133  53.682  1.00  0.00     0.174 C 
HETATM   16  C14 UNL     1      30.176  -1.392  53.925  1.00  0.00     0.010 C 
HETATM   17  C17 UNL     1      28.131  -0.561  54.065  1.00  0.00     0.020 C 
HETATM   18  C15 UNL     1      29.417  -2.086  53.007  1.00  0.00     0.010 C 
HETATM   19  C16 UNL     1      28.049  -1.485  53.124  1.00  0.00    -0.037 C 
HETATM   20  C18 UNL     1      26.708  -1.497  52.548  1.00  0.00     0.012 C 
HETATM   21  C19 UNL     1      25.991  -0.414  52.355  1.00  0.00     0.011 C 
ENDBRANCH   3  10
BRANCH   1  22
HETATM   22  C7  UNL     1      22.353   2.992  49.482  1.00  0.00     0.130 C 
HETATM   23  C6  UNL     1      22.092   2.057  48.322  1.00  0.00     0.030 C 
HETATM   24  C5  UNL     1      22.102   2.804  46.996  1.00  0.00     0.022 C 
HETATM   25  C4  UNL     1      21.584   4.210  47.323  1.00  0.00     0.126 C 
HETATM   26  N1  UNL     1      22.642   4.882  48.037  1.00  0.00    -0.347 N 
HETATM   27  C3  UNL     1      23.116   6.197  47.727  1.00  0.00     0.242 C 
HETATM   28  C24 UNL     1      23.236   4.153  49.122  1.00  0.00     0.153 C 
HETATM   29  O1  UNL     1      24.000   6.969  48.190  1.00  0.00    -0.268 OA
BRANCH  27  30
HETATM   30  C2  UNL     1      22.491   6.899  46.624  1.00  0.00     0.064 C 
HETATM   31  C1  UNL     1      23.302   7.335  45.688  1.00  0.00     0.017 C 
ENDBRANCH  27  30
ENDBRANCH   1  22
BRANCH   5  32
HETATM   32  N4  UNL     1      23.552  -0.490  54.212  1.00  0.00    -0.383 N 
HETATM   33  H20 UNL     1      24.211  -1.058  53.670  1.00  0.00     0.157 HD
HETATM   34  H21 UNL     1      24.147  -1.024  54.866  1.00  0.00     0.157 HD
ENDBRANCH   5  32
TORSDOF 4
ENDMDL
MODEL 4
REMARK VINA RESULT:      -9.5      3.951      7.902
REMARK  4 active torsions:
REMARK  status: ('A' for Active; 'I' for Inactive)
REMARK    1  A    between atoms: C2_2  and  C3_3 
REMARK       I    between atoms: C3_3  and  N1_5 
REMARK    2  A    between atoms: C7_9  and  N2_10 
REMARK    3  A    between atoms: C8_12  and  C9_13 
REMARK    4  A    between atoms: C21_26  and  N4_27 
ROOT
HETATM    1  N2  UNL     1      25.309   2.859  50.530  1.00  0.00    -0.244 N 
HETATM    2  N3  UNL     1      26.138   3.869  50.392  1.00  0.00    -0.169 NA
HETATM    3  C8  UNL     1      25.620   4.826  49.614  1.00  0.00     0.102 A 
HETATM    4  C20 UNL     1      24.391   4.315  49.290  1.00  0.00     0.088 A 
HETATM    5  C21 UNL     1      23.324   4.769  48.578  1.00  0.00     0.139 A 
HETATM    6  N5  UNL     1      22.179   4.102  48.416  1.00  0.00    -0.224 NA
HETATM    7  C22 UNL     1      21.997   2.879  48.977  1.00  0.00     0.237 A 
HETATM    8  N6  UNL     1      23.039   2.421  49.687  1.00  0.00    -0.222 NA
HETATM    9  C23 UNL     1      24.174   3.089  49.845  1.00  0.00     0.164 A 
ENDROOT
BRANCH   3  10
HETATM   10  C9  UNL     1      26.206   6.148  49.280  1.00  0.00    -0.018 C 
HETATM   11  C10 UNL     1      25.885   7.349  49.569  1.00  0.00     0.057 C 
HETATM   12  C11 UNL     1      25.360   8.627  49.999  1.00  0.00     0.008 C 
HETATM   13  C12 UNL     1      26.006   9.717  49.641  1.00  0.00     0.132 C 
HETATM   14  O2  UNL     1      27.018  10.547  49.026  1.00  0.00    -0.350 OA
HETATM   15  C13 UNL     1      27.756   9.775  48.153  1.00  0.00     0.174 C 
HETATM   16  C14 UNL     1      28.957  10.201  47.489  1.00  0.00     0.010 C 
HETATM   17  C17 UNL     1      28.342   8.568  48.849  1.00  0.00     0.020 C 
HETATM   18  C15 UNL     1      29.110   9.030  46.776  1.00  0.00     0.010 C 
HETATM   19  C16 UNL     1      28.671   7.956  47.725  1.00  0.00    -0.037 C 
HETATM   20  C18 UNL     1      28.415   6.524  47.840  1.00  0.00     0.012 C 
HETATM   21  C19 UNL     1      27.393   6.019  48.492  1.00  0.00     0.011 C 
ENDBRANCH   3  10
BRANCH   1  22
HETATM   22  C7  UNL     1      25.643   1.683  51.329  1.00  0.00     0.130 C 
HETATM   23  C6  UNL     1      24.488   1.365  52.253  1.00  0.00     0.030 C 
HETATM   24  C5  UNL     1      24.955   0.590  53.477  1.00  0.00     0.022 C 
HETATM   25  C4  UNL     1      26.148  -0.243  52.993  1.00  0.00     0.126 C 
HETATM   26  N1  UNL     1      27.242   0.677  52.803  1.00  0.00    -0.347 N 
HETATM   27  C3  UNL     1      28.565   0.474  53.312  1.00  0.00     0.242 C 
HETATM   28  C24 UNL     1      26.948   1.864  52.051  1.00  0.00     0.153 C 
HETATM   29  O1  UNL     1      29.653   1.113  53.279  1.00  0.00    -0.268 OA
BRANCH  27  30
HETATM   30  C2  UNL     1      28.821  -0.737  54.066  1.00  0.00     0.064 C 
HETATM   31  C1  UNL     1      29.541  -1.651  53.457  1.00  0.00     0.017 C 
ENDBRANCH  27  30
ENDBRANCH   1  22
BRANCH   5  32
HETATM   32  N4  UNL     1      23.245   6.046  47.990  1.00  0.00    -0.383 N 
HETATM   33  H20 UNL     1      24.194   6.415  47.871  1.00  0.00     0.157 HD
HETATM   34  H21 UNL     1      23.187   6.983  47.557  1.00  0.00     0.157 HD
ENDBRANCH   5  32
TORSDOF 4
ENDMDL
MODEL 5
REMARK VINA RESULT:      -9.4      3.955      8.071
REMARK  4 active torsions:
REMARK  status: ('A' for Active; 'I' for Inactive)
REMARK    1  A    between atoms: C2_2  and  C3_3 
REMARK       I    between atoms: C3_3  and  N1_5 
REMARK    2  A    between atoms: C7_9  and  N2_10 
REMARK    3  A    between atoms: C8_12  and  C9_13 
REMARK    4  A    between atoms: C21_26  and  N4_27 
ROOT
HETATM    1  N2  UNL     1      25.195   5.605  49.824  1.00  0.00    -0.244 N 
HETATM    2  N3  UNL     1      25.430   4.442  50.387  1.00  0.00    -0.169 NA
HETATM    3  C8  UNL     1      24.401   4.047  51.144  1.00  0.00     0.102 A 
HETATM    4  C20 UNL     1      23.505   5.072  50.990  1.00  0.00     0.088 A 
HETATM    5  C21 UNL     1      22.240   5.311  51.429  1.00  0.00     0.139 A 
HETATM    6  N5  UNL     1      21.518   6.390  51.117  1.00  0.00    -0.224 NA
HETATM    7  C22 UNL     1      22.020   7.356  50.307  1.00  0.00     0.237 A 
HETATM    8  N6  UNL     1      23.266   7.132  49.862  1.00  0.00    -0.222 NA
HETATM    9  C23 UNL     1      23.977   6.057  50.174  1.00  0.00     0.164 A 
ENDROOT
BRANCH   3  10
HETATM   10  C9  UNL     1      24.246   2.767  51.879  1.00  0.00    -0.018 C 
HETATM   11  C10 UNL     1      23.336   1.874  51.904  1.00  0.00     0.057 C 
HETATM   12  C11 UNL     1      22.201   0.981  51.797  1.00  0.00     0.008 C 
HETATM   13  C12 UNL     1      22.219  -0.135  52.496  1.00  0.00     0.132 C 
HETATM   14  O2  UNL     1      22.700  -1.152  53.403  1.00  0.00    -0.350 OA
HETATM   15  C13 UNL     1      23.787  -0.657  54.092  1.00  0.00     0.174 C 
HETATM   16  C14 UNL     1      24.641  -1.429  54.952  1.00  0.00     0.010 C 
HETATM   17  C17 UNL     1      24.860  -0.169  53.147  1.00  0.00     0.020 C 
HETATM   18  C15 UNL     1      25.421  -0.355  55.326  1.00  0.00     0.010 C 
HETATM   19  C16 UNL     1      25.533   0.476  54.084  1.00  0.00    -0.037 C 
HETATM   20  C18 UNL     1      26.041   1.738  53.558  1.00  0.00     0.012 C 
HETATM   21  C19 UNL     1      25.381   2.487  52.704  1.00  0.00     0.011 C 
ENDBRANCH   3  10
BRANCH   1  22
HETATM   22  C7  UNL     1      26.168   6.257  48.951  1.00  0.00     0.130 C 
HETATM   23  C6  UNL     1      27.287   5.287  48.642  1.00  0.00     0.030 C 
HETATM   24  C5  UNL     1      28.569   6.021  48.275  1.00  0.00     0.022 C 
HETATM   25  C4  UNL     1      28.110   7.316  47.594  1.00  0.00     0.126 C 
HETATM   26  N1  UNL     1      27.585   8.164  48.636  1.00  0.00    -0.347 N 
HETATM   27  C3  UNL     1      27.937   9.541  48.811  1.00  0.00     0.242 C 
HETATM   28  C24 UNL     1      26.650   7.553  49.538  1.00  0.00     0.153 C 
HETATM   29  O1  UNL     1      27.623  10.457  49.620  1.00  0.00    -0.268 OA
BRANCH  27  30
HETATM   30  C2  UNL     1      28.884  10.120  47.879  1.00  0.00     0.064 C 
HETATM   31  C1  UNL     1      30.081  10.369  48.358  1.00  0.00     0.017 C 
ENDBRANCH  27  30
ENDBRANCH   1  22
BRANCH   5  32
HETATM   32  N4  UNL     1      21.481   4.408  52.198  1.00  0.00    -0.383 N 
HETATM   33  H20 UNL     1      21.686   4.564  53.190  1.00  0.00     0.157 HD
HETATM   34  H21 UNL     1      20.923   3.745  52.762  1.00  0.00     0.157 HD
ENDBRANCH   5  32
TORSDOF 4
ENDMDL
MODEL 6
REMARK VINA RESULT:      -9.4      5.782      7.431
REMARK  4 active torsions:
REMARK  status: ('A' for Active; 'I' for Inactive)
REMARK    1  A    between atoms: C2_2  and  C3_3 
REMARK       I    between atoms: C3_3  and  N1_5 
REMARK    2  A    between atoms: C7_9  and  N2_10 
REMARK    3  A    between atoms: C8_12  and  C9_13 
REMARK    4  A    between atoms: C21_26  and  N4_27 
ROOT
HETATM    1  N2  UNL     1      27.129   5.308  48.754  1.00  0.00    -0.244 N 
HETATM    2  N3  UNL     1      28.325   4.765  48.722  1.00  0.00    -0.169 NA
HETATM    3  C8  UNL     1      29.206   5.556  48.100  1.00  0.00     0.102 A 
HETATM    4  C20 UNL     1      28.442   6.641  47.755  1.00  0.00     0.088 A 
HETATM    5  C21 UNL     1      28.693   7.833  47.150  1.00  0.00     0.139 A 
HETATM    6  N5  UNL     1      27.781   8.787  46.943  1.00  0.00    -0.224 NA
HETATM    7  C22 UNL     1      26.494   8.622  47.342  1.00  0.00     0.237 A 
HETATM    8  N6  UNL     1      26.234   7.452  47.945  1.00  0.00    -0.222 NA
HETATM    9  C23 UNL     1      27.144   6.509  48.149  1.00  0.00     0.164 A 
ENDROOT
BRANCH   3  10
HETATM   10  C9  UNL     1      30.663   5.339  47.924  1.00  0.00    -0.018 C 
HETATM   11  C10 UNL     1      31.698   5.968  48.324  1.00  0.00     0.057 C 
HETATM   12  C11 UNL     1      32.739   6.815  48.867  1.00  0.00     0.008 C 
HETATM   13  C12 UNL     1      33.993   6.478  48.646  1.00  0.00     0.132 C 
HETATM   14  O2  UNL     1      35.121   5.719  48.154  1.00  0.00    -0.350 OA
HETATM   15  C13 UNL     1      34.670   4.798  47.231  1.00  0.00     0.174 C 
HETATM   16  C14 UNL     1      35.466   3.750  46.655  1.00  0.00     0.010 C 
HETATM   17  C17 UNL     1      33.590   3.918  47.817  1.00  0.00     0.020 C 
HETATM   18  C15 UNL     1      34.461   3.289  45.830  1.00  0.00     0.010 C 
HETATM   19  C16 UNL     1      33.213   3.433  46.647  1.00  0.00    -0.037 C 
HETATM   20  C18 UNL     1      31.760   3.301  46.605  1.00  0.00     0.012 C 
HETATM   21  C19 UNL     1      30.937   4.157  47.167  1.00  0.00     0.011 C 
ENDBRANCH   3  10
BRANCH   1  22
HETATM   22  C7  UNL     1      25.989   4.639  49.376  1.00  0.00     0.130 C 
HETATM   23  C6  UNL     1      25.094   5.676  50.018  1.00  0.00     0.030 C 
HETATM   24  C5  UNL     1      24.268   5.073  51.146  1.00  0.00     0.022 C 
HETATM   25  C4  UNL     1      24.026   3.617  50.731  1.00  0.00     0.126 C 
HETATM   26  N1  UNL     1      25.282   2.927  50.898  1.00  0.00    -0.347 N 
HETATM   27  C3  UNL     1      25.433   1.677  51.579  1.00  0.00     0.242 C 
HETATM   28  C24 UNL     1      26.436   3.568  50.330  1.00  0.00     0.153 C 
HETATM   29  O1  UNL     1      26.396   0.905  51.845  1.00  0.00    -0.268 OA
BRANCH  27  30
HETATM   30  C2  UNL     1      24.245   1.064  52.137  1.00  0.00     0.064 C 
HETATM   31  C1  UNL     1      24.418   0.386  53.248  1.00  0.00     0.017 C 
ENDBRANCH  27  30
ENDBRANCH   1  22
BRANCH   5  32
HETATM   32  N4  UNL     1      29.969   8.265  46.741  1.00  0.00    -0.383 N 
HETATM   33  H20 UNL     1      30.077   9.255  46.986  1.00  0.00     0.157 HD
HETATM   34  H21 UNL     1      30.906   8.582  46.442  1.00  0.00     0.157 HD
ENDBRANCH   5  32
TORSDOF 4
ENDMDL
MODEL 7
REMARK VINA RESULT:      -9.4      2.523      9.257
REMARK  4 active torsions:
REMARK  status: ('A' for Active; 'I' for Inactive)
REMARK    1  A    between atoms: C2_2  and  C3_3 
REMARK       I    between atoms: C3_3  and  N1_5 
REMARK    2  A    between atoms: C7_9  and  N2_10 
REMARK    3  A    between atoms: C8_12  and  C9_13 
REMARK    4  A    between atoms: C21_26  and  N4_27 
ROOT
HETATM    1  N2  UNL     1      23.315   1.045  52.864  1.00  0.00    -0.244 N 
HETATM    2  N3  UNL     1      22.407   1.623  52.110  1.00  0.00    -0.169 NA
HETATM    3  C8  UNL     1      21.199   1.077  52.293  1.00  0.00     0.102 A 
HETATM    4  C20 UNL     1      21.446   0.113  53.234  1.00  0.00     0.088 A 
HETATM    5  C21 UNL     1      20.676  -0.781  53.912  1.00  0.00     0.139 A 
HETATM    6  N5  UNL     1      21.132  -1.626  54.840  1.00  0.00    -0.224 NA
HETATM    7  C22 UNL     1      22.445  -1.647  55.181  1.00  0.00     0.237 A 
HETATM    8  N6  UNL     1      23.216  -0.768  54.524  1.00  0.00    -0.222 NA
HETATM    9  C23 UNL     1      22.757   0.071  53.604  1.00  0.00     0.164 A 
ENDROOT
BRANCH   3  10
HETATM   10  C9  UNL     1      19.909   1.494  51.690  1.00  0.00    -0.018 C 
HETATM   11  C10 UNL     1      19.321   2.619  51.567  1.00  0.00     0.057 C 
HETATM   12  C11 UNL     1      18.817   3.976  51.530  1.00  0.00     0.008 C 
HETATM   13  C12 UNL     1      17.662   4.194  50.936  1.00  0.00     0.132 C 
HETATM   14  O2  UNL     1      16.439   3.915  50.216  1.00  0.00    -0.350 OA
HETATM   15  C13 UNL     1      16.240   2.550  50.189  1.00  0.00     0.174 C 
HETATM   16  C14 UNL     1      15.230   1.879  49.419  1.00  0.00     0.010 C 
HETATM   17  C17 UNL     1      17.434   1.834  49.601  1.00  0.00     0.020 C 
HETATM   18  C15 UNL     1      15.550   0.622  49.888  1.00  0.00     0.010 C 
HETATM   19  C16 UNL     1      17.044   0.639  50.010  1.00  0.00    -0.037 C 
HETATM   20  C18 UNL     1      18.193  -0.135  50.466  1.00  0.00     0.012 C 
HETATM   21  C19 UNL     1      19.212   0.388  51.108  1.00  0.00     0.011 C 
ENDBRANCH   3  10
BRANCH   1  22
HETATM   22  C7  UNL     1      24.716   1.457  52.846  1.00  0.00     0.130 C 
HETATM   23  C6  UNL     1      24.993   2.225  51.572  1.00  0.00     0.030 C 
HETATM   24  C5  UNL     1      26.467   2.161  51.197  1.00  0.00     0.022 C 
HETATM   25  C4  UNL     1      27.217   2.074  52.532  1.00  0.00     0.126 C 
HETATM   26  N1  UNL     1      26.996   0.743  53.042  1.00  0.00    -0.347 N 
HETATM   27  C3  UNL     1      28.031  -0.118  53.529  1.00  0.00     0.242 C 
HETATM   28  C24 UNL     1      25.635   0.285  53.045  1.00  0.00     0.153 C 
HETATM   29  O1  UNL     1      28.084  -1.284  54.007  1.00  0.00    -0.268 OA
BRANCH  27  30
HETATM   30  C2  UNL     1      29.391   0.382  53.508  1.00  0.00     0.064 C 
HETATM   31  C1  UNL     1      30.337  -0.528  53.524  1.00  0.00     0.017 C 
ENDBRANCH  27  30
ENDBRANCH   1  22
BRANCH   5  32
HETATM   32  N4  UNL     1      19.276  -0.873  53.797  1.00  0.00    -0.383 N 
HETATM   33  H20 UNL     1      18.923  -0.019  53.352  1.00  0.00     0.157 HD
HETATM   34  H21 UNL     1      18.248  -0.941  53.712  1.00  0.00     0.157 HD
ENDBRANCH   5  32
TORSDOF 4
ENDMDL
MODEL 8
REMARK VINA RESULT:      -9.3      2.961      5.616
REMARK  4 active torsions:
REMARK  status: ('A' for Active; 'I' for Inactive)
REMARK    1  A    between atoms: C2_2  and  C3_3 
REMARK       I    between atoms: C3_3  and  N1_5 
REMARK    2  A    between atoms: C7_9  and  N2_10 
REMARK    3  A    between atoms: C8_12  and  C9_13 
REMARK    4  A    between atoms: C21_26  and  N4_27 
ROOT
HETATM    1  N2  UNL     1      22.850   2.239  50.710  1.00  0.00    -0.244 N 
HETATM    2  N3  UNL     1      23.283   3.352  50.162  1.00  0.00    -0.169 NA
HETATM    3  C8  UNL     1      24.532   3.634  50.545  1.00  0.00     0.102 A 
HETATM    4  C20 UNL     1      24.833   2.588  51.378  1.00  0.00     0.088 A 
HETATM    5  C21 UNL     1      25.938   2.207  52.074  1.00  0.00     0.139 A 
HETATM    6  N5  UNL     1      26.026   1.099  52.813  1.00  0.00    -0.224 NA
HETATM    7  C22 UNL     1      24.976   0.245  52.919  1.00  0.00     0.237 A 
HETATM    8  N6  UNL     1      23.881   0.605  52.233  1.00  0.00    -0.222 NA
HETATM    9  C23 UNL     1      23.800   1.707  51.499  1.00  0.00     0.164 A 
ENDROOT
BRANCH   3  10
HETATM   10  C9  UNL     1      25.395   4.754  50.093  1.00  0.00    -0.018 C 
HETATM   11  C10 UNL     1      26.464   4.812  49.399  1.00  0.00     0.057 C 
HETATM   12  C11 UNL     1      27.665   4.670  48.603  1.00  0.00     0.008 C 
HETATM   13  C12 UNL     1      28.314   5.762  48.257  1.00  0.00     0.132 C 
HETATM   14  O2  UNL     1      28.630   7.169  48.151  1.00  0.00    -0.350 OA
HETATM   15  C13 UNL     1      27.849   7.870  49.047  1.00  0.00     0.174 C 
HETATM   16  C14 UNL     1      27.752   9.302  49.112  1.00  0.00     0.010 C 
HETATM   17  C17 UNL     1      26.380   7.588  48.831  1.00  0.00     0.020 C 
HETATM   18  C15 UNL     1      26.905   9.305  50.201  1.00  0.00     0.010 C 
HETATM   19  C16 UNL     1      26.007   8.127  49.978  1.00  0.00    -0.037 C 
HETATM   20  C18 UNL     1      24.941   7.332  50.580  1.00  0.00     0.012 C 
HETATM   21  C19 UNL     1      24.885   6.022  50.513  1.00  0.00     0.011 C 
ENDBRANCH   3  10
BRANCH   1  22
HETATM   22  C7  UNL     1      21.511   1.715  50.453  1.00  0.00     0.130 C 
HETATM   23  C6  UNL     1      20.682   2.781  49.770  1.00  0.00     0.030 C 
HETATM   24  C5  UNL     1      19.195   2.561  50.007  1.00  0.00     0.022 C 
HETATM   25  C4  UNL     1      19.027   1.041  50.122  1.00  0.00     0.126 C 
HETATM   26  N1  UNL     1      19.578   0.663  51.401  1.00  0.00    -0.347 N 
HETATM   27  C3  UNL     1      18.914  -0.180  52.349  1.00  0.00     0.242 C 
HETATM   28  C24 UNL     1      20.880   1.185  51.709  1.00  0.00     0.153 C 
HETATM   29  O1  UNL     1      19.182  -0.636  53.495  1.00  0.00    -0.268 OA
BRANCH  27  30
HETATM   30  C2  UNL     1      17.601  -0.686  52.000  1.00  0.00     0.064 C 
HETATM   31  C1  UNL     1      17.088  -1.567  52.827  1.00  0.00     0.017 C 
ENDBRANCH  27  30
ENDBRANCH   1  22
BRANCH   5  32
HETATM   32  N4  UNL     1      27.173   2.882  52.038  1.00  0.00    -0.383 N 
HETATM   33  H20 UNL     1      27.464   3.093  52.998  1.00  0.00     0.157 HD
HETATM   34  H21 UNL     1      28.080   3.377  52.010  1.00  0.00     0.157 HD
ENDBRANCH   5  32
TORSDOF 4
ENDMDL
MODEL 9
REMARK VINA RESULT:      -9.3      2.663      5.068
REMARK  4 active torsions:
REMARK  status: ('A' for Active; 'I' for Inactive)
REMARK    1  A    between atoms: C2_2  and  C3_3 
REMARK       I    between atoms: C3_3  and  N1_5 
REMARK    2  A    between atoms: C7_9  and  N2_10 
REMARK    3  A    between atoms: C8_12  and  C9_13 
REMARK    4  A    between atoms: C21_26  and  N4_27 
ROOT
HETATM    1  N2  UNL     1      21.710   1.310  51.820  1.00  0.00    -0.244 N 
HETATM    2  N3  UNL     1      23.018   1.420  51.766  1.00  0.00    -0.169 NA
HETATM    3  C8  UNL     1      23.611   0.687  52.714  1.00  0.00     0.102 A 
HETATM    4  C20 UNL     1      22.547   0.109  53.355  1.00  0.00     0.088 A 
HETATM    5  C21 UNL     1      22.413  -0.783  54.373  1.00  0.00     0.139 A 
HETATM    6  N5  UNL     1      21.248  -1.252  54.825  1.00  0.00    -0.224 NA
HETATM    7  C22 UNL     1      20.073  -0.854  54.273  1.00  0.00     0.237 A 
HETATM    8  N6  UNL     1      20.190   0.022  53.264  1.00  0.00    -0.222 NA
HETATM    9  C23 UNL     1      21.351   0.484  52.818  1.00  0.00     0.164 A 
ENDROOT
BRANCH   3  10
HETATM   10  C9  UNL     1      25.064   0.485  52.936  1.00  0.00    -0.018 C 
HETATM   11  C10 UNL     1      25.835  -0.527  52.839  1.00  0.00     0.057 C 
HETATM   12  C11 UNL     1      26.537  -1.782  52.675  1.00  0.00     0.008 C 
HETATM   13  C12 UNL     1      27.837  -1.799  52.886  1.00  0.00     0.132 C 
HETATM   14  O2  UNL     1      29.159  -1.312  53.212  1.00  0.00    -0.350 OA
HETATM   15  C13 UNL     1      29.046  -0.053  53.764  1.00  0.00     0.174 C 
HETATM   16  C14 UNL     1      30.148   0.823  54.053  1.00  0.00     0.010 C 
HETATM   17  C17 UNL     1      28.295   0.883  52.846  1.00  0.00     0.020 C 
HETATM   18  C15 UNL     1      29.361   1.811  54.607  1.00  0.00     0.010 C 
HETATM   19  C16 UNL     1      28.116   1.808  53.772  1.00  0.00    -0.037 C 
HETATM   20  C18 UNL     1      26.784   2.390  53.649  1.00  0.00     0.012 C 
HETATM   21  C19 UNL     1      25.719   1.701  53.311  1.00  0.00     0.011 C 
ENDBRANCH   3  10
BRANCH   1  22
HETATM   22  C7  UNL     1      20.831   2.018  50.892  1.00  0.00     0.130 C 
HETATM   23  C6  UNL     1      20.805   1.281  49.571  1.00  0.00     0.030 C 
HETATM   24  C5  UNL     1      20.437   2.212  48.425  1.00  0.00     0.022 C 
HETATM   25  C4  UNL     1      19.498   3.256  49.041  1.00  0.00     0.126 C 
HETATM   26  N1  UNL     1      20.320   4.118  49.856  1.00  0.00    -0.347 N 
HETATM   27  C3  UNL     1      20.282   5.548  49.812  1.00  0.00     0.242 C 
HETATM   28  C24 UNL     1      21.224   3.462  50.759  1.00  0.00     0.153 C 
HETATM   29  O1  UNL     1      20.883   6.486  50.405  1.00  0.00    -0.268 OA
BRANCH  27  30
HETATM   30  C2  UNL     1      19.356   6.171  48.887  1.00  0.00     0.064 C 
HETATM   31  C1  UNL     1      19.495   7.466  48.722  1.00  0.00     0.017 C 
ENDBRANCH  27  30
ENDBRANCH   1  22
BRANCH   5  32
HETATM   32  N4  UNL     1      23.491  -1.408  55.030  1.00  0.00    -0.383 N 
HETATM   33  H20 UNL     1      23.284  -2.407  55.129  1.00  0.00     0.157 HD
HETATM   34  H21 UNL     1      24.282  -1.865  55.512  1.00  0.00     0.157 HD
ENDBRANCH   5  32
TORSDOF 4
ENDMDL
