MODEL 1
REMARK VINA RESULT:      -9.6      0.000      0.000
REMARK  7 active torsions:
REMARK  status: ('A' for Active; 'I' for Inactive)
REMARK    1  A    between atoms: C4_4  and  N1_5 
REMARK    2  A    between atoms: N1_5  and  C5_6 
REMARK    3  A    between atoms: C13_18  and  C14_19 
REMARK    4  A    between atoms: C14_19  and  C15_20 
REMARK    5  A    between atoms: C15_20  and  N5_21 
REMARK    6  A    between atoms: N5_21  and  O2_22 
REMARK    7  A    between atoms: N5_21  and  C16_23 
ROOT
HETATM    1  C5  UNL     1      26.390   2.824  51.487  1.00  0.00     0.165 A 
HETATM    2  N2  UNL     1      26.969   3.398  50.424  1.00  0.00    -0.221 NA
HETATM    3  C6  UNL     1      26.248   3.718  49.341  1.00  0.00     0.235 A 
HETATM    4  N3  UNL     1      24.905   3.476  49.277  1.00  0.00    -0.243 NA
HETATM    5  C7  UNL     1      24.275   2.894  50.336  1.00  0.00     0.074 A 
HETATM    6  C8  UNL     1      25.022   2.570  51.440  1.00  0.00     0.140 A 
HETATM    7  O1  UNL     1      24.268   1.988  52.442  1.00  0.00    -0.339 OA
HETATM    8  C9  UNL     1      23.194   1.172  52.092  1.00  0.00     0.141 C 
HETATM    9  C10 UNL     1      22.463   0.583  53.243  1.00  0.00     0.063 C 
HETATM   10  C11 UNL     1      21.294  -0.235  52.813  1.00  0.00     0.272 C 
HETATM   11  N4  UNL     1      20.469   0.381  51.781  1.00  0.00     0.084 N 
HETATM   12  C12 UNL     1      21.336   0.769  50.685  1.00  0.00     0.282 C 
HETATM   13  C13 UNL     1      22.146   1.923  51.223  1.00  0.00     0.019 C 
HETATM   14  C22 UNL     1      22.836   2.694  50.139  1.00  0.00     0.076 C 
HETATM   15  H12 UNL     1      19.848  -0.369  51.414  1.00  0.00     0.315 HD
ENDROOT
BRANCH  13  16
HETATM   16  C14 UNL     1      21.328   2.781  52.117  1.00  0.00     0.036 C 
BRANCH  16  17
HETATM   17  C15 UNL     1      21.158   4.204  51.832  1.00  0.00     0.157 C 
BRANCH  17  18
HETATM   18  N5  UNL     1      22.205   5.144  51.930  1.00  0.00    -0.261 N 
BRANCH  18  19
HETATM   19  O2  UNL     1      22.914   5.123  53.123  1.00  0.00    -0.287 OA
HETATM   20  H19 UNL     1      23.670   5.743  53.019  1.00  0.00     0.244 HD
ENDBRANCH  18  19
BRANCH  18  21
HETATM   21  C16 UNL     1      22.893   6.183  51.270  1.00  0.00     0.055 C 
HETATM   22  C17 UNL     1      24.155   6.562  51.223  1.00  0.00     0.005 C 
HETATM   23  C18 UNL     1      24.339   7.743  50.361  1.00  0.00     0.034 C 
HETATM   24  C19 UNL     1      22.960   8.198  50.031  1.00  0.00     0.040 C 
HETATM   25  C20 UNL     1      22.086   7.062  50.446  1.00  0.00    -0.051 C 
HETATM   26  C21 UNL     1      20.830   6.999  50.061  1.00  0.00     0.041 C 
ENDBRANCH  18  21
ENDBRANCH  17  18
ENDBRANCH  16  17
ENDBRANCH  13  16
BRANCH   1  27
HETATM   27  N1  UNL     1      27.061   2.447  52.677  1.00  0.00    -0.339 N 
HETATM   28  H5  UNL     1      27.069   3.130  53.493  1.00  0.00     0.167 HD
BRANCH  27  29
HETATM   29  C4  UNL     1      27.755   1.244  52.954  1.00  0.00     0.034 A 
HETATM   30  C3  UNL     1      27.201  -0.007  52.646  1.00  0.00     0.039 A 
HETATM   31  C2  UNL     1      27.849  -1.184  52.899  1.00  0.00    -0.021 A 
HETATM   32  C1  UNL     1      27.190  -2.464  52.541  1.00  0.00     0.051 C 
HETATM   33  C25 UNL     1      29.087  -1.207  53.474  1.00  0.00     0.122 A 
HETATM   34  C24 UNL     1      29.680  -0.002  53.798  1.00  0.00     0.045 A 
HETATM   35  F1  UNL     1      29.723  -2.378  53.721  1.00  0.00    -0.206 F 
HETATM   36  C23 UNL     1      28.990   1.155  53.525  1.00  0.00     0.032 A 
ENDBRANCH  27  29
ENDBRANCH   1  27
TORSDOF 7
ENDMDL
MODEL 2
REMARK VINA RESULT:      -9.1      1.926      3.071
REMARK  7 active torsions:
REMARK  status: ('A' for Active; 'I' for Inactive)
REMARK    1  A    between atoms: C4_4  and  N1_5 
REMARK    2  A    between atoms: N1_5  and  C5_6 
REMARK    3  A    between atoms: C13_18  and  C14_19 
REMARK    4  A    between atoms: C14_19  and  C15_20 
REMARK    5  A    between atoms: C15_20  and  N5_21 
REMARK    6  A    between atoms: N5_21  and  O2_22 
REMARK    7  A    between atoms: N5_21  and  C16_23 
ROOT
HETATM    1  C5  UNL     1      26.356   2.778  51.528  1.00  0.00     0.165 A 
HETATM    2  N2  UNL     1      26.881   3.376  50.450  1.00  0.00    -0.221 NA
HETATM    3  C6  UNL     1      26.115   3.676  49.392  1.00  0.00     0.235 A 
HETATM    4  N3  UNL     1      24.780   3.386  49.368  1.00  0.00    -0.243 NA
HETATM    5  C7  UNL     1      24.205   2.777  50.444  1.00  0.00     0.074 A 
HETATM    6  C8  UNL     1      24.998   2.476  51.522  1.00  0.00     0.140 A 
HETATM    7  O1  UNL     1      24.296   1.862  52.543  1.00  0.00    -0.339 OA
HETATM    8  C9  UNL     1      23.241   1.010  52.222  1.00  0.00     0.141 C 
HETATM    9  C10 UNL     1      22.568   0.390  53.393  1.00  0.00     0.063 C 
HETATM   10  C11 UNL     1      21.416  -0.466  52.995  1.00  0.00     0.272 C 
HETATM   11  N4  UNL     1      20.538   0.125  51.993  1.00  0.00     0.084 N 
HETATM   12  C12 UNL     1      21.355   0.548  50.873  1.00  0.00     0.282 C 
HETATM   13  C13 UNL     1      22.141   1.728  51.392  1.00  0.00     0.019 C 
HETATM   14  C22 UNL     1      22.768   2.528  50.290  1.00  0.00     0.076 C 
HETATM   15  H12 UNL     1      19.932  -0.645  51.641  1.00  0.00     0.315 HD
ENDROOT
BRANCH  13  16
HETATM   16  C14 UNL     1      21.321   2.552  52.315  1.00  0.00     0.036 C 
BRANCH  16  17
HETATM   17  C15 UNL     1      20.941   3.916  51.957  1.00  0.00     0.157 C 
BRANCH  17  18
HETATM   18  N5  UNL     1      19.802   4.225  51.184  1.00  0.00    -0.261 N 
BRANCH  18  19
HETATM   19  O2  UNL     1      19.896   5.382  50.423  1.00  0.00    -0.287 OA
HETATM   20  H19 UNL     1      20.852   5.534  50.249  1.00  0.00     0.244 HD
ENDBRANCH  18  19
BRANCH  18  21
HETATM   21  C16 UNL     1      18.499   3.819  50.828  1.00  0.00     0.055 C 
HETATM   22  C17 UNL     1      17.299   4.055  51.320  1.00  0.00     0.005 C 
HETATM   23  C18 UNL     1      16.248   3.364  50.550  1.00  0.00     0.034 C 
HETATM   24  C19 UNL     1      16.981   2.470  49.613  1.00  0.00     0.040 C 
HETATM   25  C20 UNL     1      18.393   2.947  49.674  1.00  0.00    -0.051 C 
HETATM   26  C21 UNL     1      19.277   2.564  48.777  1.00  0.00     0.041 C 
ENDBRANCH  18  21
ENDBRANCH  17  18
ENDBRANCH  16  17
ENDBRANCH  13  16
BRANCH   1  27
HETATM   27  N1  UNL     1      27.078   2.419  52.694  1.00  0.00    -0.339 N 
HETATM   28  H5  UNL     1      27.126   3.118  53.495  1.00  0.00     0.167 HD
BRANCH  27  29
HETATM   29  C4  UNL     1      27.774   1.217  52.964  1.00  0.00     0.034 A 
HETATM   30  C3  UNL     1      27.221  -0.035  52.655  1.00  0.00     0.039 A 
HETATM   31  C2  UNL     1      27.872  -1.211  52.902  1.00  0.00    -0.021 A 
HETATM   32  C1  UNL     1      27.214  -2.491  52.545  1.00  0.00     0.051 C 
HETATM   33  C25 UNL     1      29.113  -1.234  53.469  1.00  0.00     0.122 A 
HETATM   34  C24 UNL     1      29.707  -0.029  53.793  1.00  0.00     0.045 A 
HETATM   35  F1  UNL     1      29.753  -2.404  53.710  1.00  0.00    -0.206 F 
HETATM   36  C23 UNL     1      29.013   1.128  53.527  1.00  0.00     0.032 A 
ENDBRANCH  27  29
ENDBRANCH   1  27
TORSDOF 7
ENDMDL
MODEL 3
REMARK VINA RESULT:      -9.0      2.649      6.630
REMARK  7 active torsions:
REMARK  status: ('A' for Active; 'I' for Inactive)
REMARK    1  A    between atoms: C4_4  and  N1_5 
REMARK    2  A    between atoms: N1_5  and  C5_6 
REMARK    3  A    between atoms: C13_18  and  C14_19 
REMARK    4  A    between atoms: C14_19  and  C15_20 
REMARK    5  A    between atoms: C15_20  and  N5_21 
REMARK    6  A    between atoms: N5_21  and  O2_22 
REMARK    7  A    between atoms: N5_21  and  C16_23 
ROOT
HETATM    1  C5  UNL     1      20.786   2.582  50.165  1.00  0.00     0.165 A 
HETATM    2  N2  UNL     1      20.218   1.967  49.119  1.00  0.00    -0.221 NA
HETATM    3  C6  UNL     1      20.679   2.162  47.876  1.00  0.00     0.235 A 
HETATM    4  N3  UNL     1      21.738   2.988  47.626  1.00  0.00    -0.243 NA
HETATM    5  C7  UNL     1      22.346   3.634  48.661  1.00  0.00     0.074 A 
HETATM    6  C8  UNL     1      21.866   3.427  49.929  1.00  0.00     0.140 A 
HETATM    7  O1  UNL     1      22.568   4.137  50.886  1.00  0.00    -0.339 OA
HETATM    8  C9  UNL     1      23.083   5.390  50.556  1.00  0.00     0.141 C 
HETATM    9  C10 UNL     1      23.802   6.074  51.661  1.00  0.00     0.063 C 
HETATM   10  C11 UNL     1      24.377   7.381  51.238  1.00  0.00     0.272 C 
HETATM   11  N4  UNL     1      25.061   7.355  49.951  1.00  0.00     0.084 N 
HETATM   12  C12 UNL     1      24.159   6.779  48.973  1.00  0.00     0.282 C 
HETATM   13  C13 UNL     1      24.061   5.321  49.350  1.00  0.00     0.019 C 
HETATM   14  C22 UNL     1      23.470   4.485  48.255  1.00  0.00     0.076 C 
HETATM   15  H12 UNL     1      25.203   8.348  49.672  1.00  0.00     0.315 HD
ENDROOT
BRANCH  13  16
HETATM   16  C14 UNL     1      25.366   4.805  49.836  1.00  0.00     0.036 C 
BRANCH  16  17
HETATM   17  C15 UNL     1      25.663   3.375  49.793  1.00  0.00     0.157 C 
BRANCH  17  18
HETATM   18  N5  UNL     1      26.265   2.677  50.861  1.00  0.00    -0.261 N 
BRANCH  18  19
HETATM   19  O2  UNL     1      27.465   3.206  51.316  1.00  0.00    -0.287 OA
HETATM   20  H19 UNL     1      28.153   2.515  51.181  1.00  0.00     0.244 HD
ENDBRANCH  18  19
BRANCH  18  21
HETATM   21  C16 UNL     1      26.151   1.576  51.734  1.00  0.00     0.055 C 
HETATM   22  C17 UNL     1      26.668   0.364  51.753  1.00  0.00     0.005 C 
HETATM   23  C18 UNL     1      26.206  -0.409  52.921  1.00  0.00     0.034 C 
HETATM   24  C19 UNL     1      25.137   0.424  53.535  1.00  0.00     0.040 C 
HETATM   25  C20 UNL     1      25.285   1.757  52.883  1.00  0.00    -0.051 C 
HETATM   26  C21 UNL     1      24.682   2.821  53.370  1.00  0.00     0.041 C 
ENDBRANCH  18  21
ENDBRANCH  17  18
ENDBRANCH  16  17
ENDBRANCH  13  16
BRANCH   1  27
HETATM   27  N1  UNL     1      20.375   2.444  51.514  1.00  0.00    -0.339 N 
HETATM   28  H5  UNL     1      19.961   3.290  52.007  1.00  0.00     0.167 HD
BRANCH  27  29
HETATM   29  C4  UNL     1      20.437   1.296  52.340  1.00  0.00     0.034 A 
HETATM   30  C3  UNL     1      19.344   0.425  52.468  1.00  0.00     0.039 A 
HETATM   31  C2  UNL     1      19.377  -0.691  53.256  1.00  0.00    -0.021 A 
HETATM   32  C1  UNL     1      18.175  -1.557  53.334  1.00  0.00     0.051 C 
HETATM   33  C25 UNL     1      20.490  -1.026  53.972  1.00  0.00     0.122 A 
HETATM   34  C24 UNL     1      21.597  -0.204  53.883  1.00  0.00     0.045 A 
HETATM   35  F1  UNL     1      20.515  -2.135  54.750  1.00  0.00    -0.206 F 
HETATM   36  C23 UNL     1      21.517   0.908  53.078  1.00  0.00     0.032 A 
ENDBRANCH  27  29
ENDBRANCH   1  27
TORSDOF 7
ENDMDL
MODEL 4
REMARK VINA RESULT:      -8.9      4.164      7.601
REMARK  7 active torsions:
REMARK  status: ('A' for Active; 'I' for Inactive)
REMARK    1  A    between atoms: C4_4  and  N1_5 
REMARK    2  A    between atoms: N1_5  and  C5_6 
REMARK    3  A    between atoms: C13_18  and  C14_19 
REMARK    4  A    between atoms: C14_19  and  C15_20 
REMARK    5  A    between atoms: C15_20  and  N5_21 
REMARK    6  A    between atoms: N5_21  and  O2_22 
REMARK    7  A    between atoms: N5_21  and  C16_23 
ROOT
HETATM    1  C5  UNL     1      19.944  -0.880  53.723  1.00  0.00     0.165 A 
HETATM    2  N2  UNL     1      20.776  -1.623  54.466  1.00  0.00    -0.221 NA
HETATM    3  C6  UNL     1      22.103  -1.526  54.314  1.00  0.00     0.235 A 
HETATM    4  N3  UNL     1      22.660  -0.673  53.404  1.00  0.00    -0.243 NA
HETATM    5  C7  UNL     1      21.851   0.102  52.626  1.00  0.00     0.074 A 
HETATM    6  C8  UNL     1      20.494  -0.005  52.790  1.00  0.00     0.140 A 
HETATM    7  O1  UNL     1      19.788   0.831  51.945  1.00  0.00    -0.339 OA
HETATM    8  C9  UNL     1      20.295   1.091  50.673  1.00  0.00     0.141 C 
HETATM    9  C10 UNL     1      19.450   1.986  49.841  1.00  0.00     0.063 C 
HETATM   10  C11 UNL     1      20.065   2.274  48.515  1.00  0.00     0.272 C 
HETATM   11  N4  UNL     1      21.485   2.600  48.563  1.00  0.00     0.084 N 
HETATM   12  C12 UNL     1      22.163   1.549  49.297  1.00  0.00     0.282 C 
HETATM   13  C13 UNL     1      21.713   1.725  50.727  1.00  0.00     0.019 C 
HETATM   14  C22 UNL     1      22.576   0.973  51.696  1.00  0.00     0.076 C 
HETATM   15  H12 UNL     1      21.833   2.546  47.583  1.00  0.00     0.315 HD
ENDROOT
BRANCH  13  16
HETATM   16  C14 UNL     1      21.570   3.163  51.070  1.00  0.00     0.036 C 
BRANCH  16  17
HETATM   17  C15 UNL     1      22.460   3.787  52.046  1.00  0.00     0.157 C 
BRANCH  17  18
HETATM   18  N5  UNL     1      23.649   4.458  51.693  1.00  0.00    -0.261 N 
BRANCH  18  19
HETATM   19  O2  UNL     1      24.046   5.462  52.565  1.00  0.00    -0.287 OA
HETATM   20  H19 UNL     1      25.030   5.493  52.538  1.00  0.00     0.244 HD
ENDBRANCH  18  19
BRANCH  18  21
HETATM   21  C16 UNL     1      24.692   4.545  50.748  1.00  0.00     0.055 C 
HETATM   22  C17 UNL     1      25.015   5.421  49.817  1.00  0.00     0.005 C 
HETATM   23  C18 UNL     1      26.232   5.020  49.088  1.00  0.00     0.034 C 
HETATM   24  C19 UNL     1      26.521   3.636  49.553  1.00  0.00     0.040 C 
HETATM   25  C20 UNL     1      25.653   3.459  50.753  1.00  0.00    -0.051 C 
HETATM   26  C21 UNL     1      25.839   2.454  51.582  1.00  0.00     0.041 C 
ENDBRANCH  18  21
ENDBRANCH  17  18
ENDBRANCH  16  17
ENDBRANCH  13  16
BRANCH   1  27
HETATM   27  N1  UNL     1      18.530  -0.908  53.806  1.00  0.00    -0.339 N 
HETATM   28  H5  UNL     1      18.026  -0.045  54.169  1.00  0.00     0.167 HD
BRANCH  27  29
HETATM   29  C4  UNL     1      17.648  -1.961  53.462  1.00  0.00     0.034 A 
HETATM   30  C3  UNL     1      16.519  -1.739  52.660  1.00  0.00     0.039 A 
HETATM   31  C2  UNL     1      15.653  -2.736  52.309  1.00  0.00    -0.021 A 
HETATM   32  C1  UNL     1      14.483  -2.413  51.458  1.00  0.00     0.051 C 
HETATM   33  C25 UNL     1      15.841  -4.022  52.727  1.00  0.00     0.122 A 
HETATM   34  C24 UNL     1      16.938  -4.299  53.520  1.00  0.00     0.045 A 
HETATM   35  F1  UNL     1      14.978  -5.006  52.375  1.00  0.00    -0.206 F 
HETATM   36  C23 UNL     1      17.781  -3.263  53.846  1.00  0.00     0.032 A 
ENDBRANCH  27  29
ENDBRANCH   1  27
TORSDOF 7
ENDMDL
MODEL 5
REMARK VINA RESULT:      -8.8      2.654      5.278
REMARK  7 active torsions:
REMARK  status: ('A' for Active; 'I' for Inactive)
REMARK    1  A    between atoms: C4_4  and  N1_5 
REMARK    2  A    between atoms: N1_5  and  C5_6 
REMARK    3  A    between atoms: C13_18  and  C14_19 
REMARK    4  A    between atoms: C14_19  and  C15_20 
REMARK    5  A    between atoms: C15_20  and  N5_21 
REMARK    6  A    between atoms: N5_21  and  O2_22 
REMARK    7  A    between atoms: N5_21  and  C16_23 
ROOT
HETATM    1  C5  UNL     1      23.285   2.756  51.550  1.00  0.00     0.165 A 
HETATM    2  N2  UNL     1      22.178   2.742  52.305  1.00  0.00    -0.221 NA
HETATM    3  C6  UNL     1      21.367   3.808  52.353  1.00  0.00     0.235 A 
HETATM    4  N3  UNL     1      21.633   4.943  51.640  1.00  0.00    -0.243 NA
HETATM    5  C7  UNL     1      22.749   5.001  50.859  1.00  0.00     0.074 A 
HETATM    6  C8  UNL     1      23.571   3.904  50.817  1.00  0.00     0.140 A 
HETATM    7  O1  UNL     1      24.664   4.090  49.991  1.00  0.00    -0.339 OA
HETATM    8  C9  UNL     1      25.229   5.361  49.892  1.00  0.00     0.141 C 
HETATM    9  C10 UNL     1      26.408   5.446  48.993  1.00  0.00     0.063 C 
HETATM   10  C11 UNL     1      26.937   6.834  48.882  1.00  0.00     0.272 C 
HETATM   11  N4  UNL     1      25.917   7.858  48.695  1.00  0.00     0.084 N 
HETATM   12  C12 UNL     1      24.924   7.701  49.741  1.00  0.00     0.282 C 
HETATM   13  C13 UNL     1      24.203   6.420  49.399  1.00  0.00     0.019 C 
HETATM   14  C22 UNL     1      22.912   6.272  50.146  1.00  0.00     0.076 C 
HETATM   15  H12 UNL     1      26.382   8.774  48.867  1.00  0.00     0.315 HD
ENDROOT
BRANCH  13  16
HETATM   16  C14 UNL     1      24.046   6.269  47.930  1.00  0.00     0.036 C 
BRANCH  16  17
HETATM   17  C15 UNL     1      22.740   5.970  47.349  1.00  0.00     0.157 C 
BRANCH  17  18
HETATM   18  N5  UNL     1      22.286   4.658  47.095  1.00  0.00    -0.261 N 
BRANCH  18  19
HETATM   19  O2  UNL     1      22.067   4.353  45.759  1.00  0.00    -0.287 OA
HETATM   20  H19 UNL     1      21.267   3.782  45.722  1.00  0.00     0.244 HD
ENDBRANCH  18  19
BRANCH  18  21
HETATM   21  C16 UNL     1      21.934   3.423  47.676  1.00  0.00     0.055 C 
HETATM   22  C17 UNL     1      22.525   2.247  47.757  1.00  0.00     0.005 C 
HETATM   23  C18 UNL     1      21.700   1.271  48.493  1.00  0.00     0.034 C 
HETATM   24  C19 UNL     1      20.387   1.945  48.686  1.00  0.00     0.040 C 
HETATM   25  C20 UNL     1      20.650   3.374  48.347  1.00  0.00    -0.051 C 
HETATM   26  C21 UNL     1      19.785   4.315  48.660  1.00  0.00     0.041 C 
ENDBRANCH  18  21
ENDBRANCH  17  18
ENDBRANCH  16  17
ENDBRANCH  13  16
BRANCH   1  27
HETATM   27  N1  UNL     1      24.205   1.685  51.431  1.00  0.00    -0.339 N 
HETATM   28  H5  UNL     1      24.197   1.106  50.539  1.00  0.00     0.167 HD
BRANCH  27  29
HETATM   29  C4  UNL     1      25.177   1.251  52.365  1.00  0.00     0.034 A 
HETATM   30  C3  UNL     1      26.372   1.960  52.561  1.00  0.00     0.039 A 
HETATM   31  C2  UNL     1      27.326   1.566  53.457  1.00  0.00    -0.021 A 
HETATM   32  C1  UNL     1      28.562   2.374  53.599  1.00  0.00     0.051 C 
HETATM   33  C25 UNL     1      27.167   0.447  54.221  1.00  0.00     0.122 A 
HETATM   34  C24 UNL     1      26.008  -0.290  54.071  1.00  0.00     0.045 A 
HETATM   35  F1  UNL     1      28.117   0.063  55.108  1.00  0.00    -0.206 F 
HETATM   36  C23 UNL     1      25.077   0.145  53.157  1.00  0.00     0.032 A 
ENDBRANCH  27  29
ENDBRANCH   1  27
TORSDOF 7
ENDMDL
MODEL 6
REMARK VINA RESULT:      -8.8      3.356      6.656
REMARK  7 active torsions:
REMARK  status: ('A' for Active; 'I' for Inactive)
REMARK    1  A    between atoms: C4_4  and  N1_5 
REMARK    2  A    between atoms: N1_5  and  C5_6 
REMARK    3  A    between atoms: C13_18  and  C14_19 
REMARK    4  A    between atoms: C14_19  and  C15_20 
REMARK    5  A    between atoms: C15_20  and  N5_21 
REMARK    6  A    between atoms: N5_21  and  O2_22 
REMARK    7  A    between atoms: N5_21  and  C16_23 
ROOT
HETATM    1  C5  UNL     1      26.414   2.861  50.691  1.00  0.00     0.165 A 
HETATM    2  N2  UNL     1      27.300   2.539  51.643  1.00  0.00    -0.221 NA
HETATM    3  C6  UNL     1      26.890   2.129  52.851  1.00  0.00     0.235 A 
HETATM    4  N3  UNL     1      25.563   2.024  53.159  1.00  0.00    -0.243 NA
HETATM    5  C7  UNL     1      24.627   2.342  52.221  1.00  0.00     0.074 A 
HETATM    6  C8  UNL     1      25.058   2.760  50.987  1.00  0.00     0.140 A 
HETATM    7  O1  UNL     1      24.014   3.051  50.129  1.00  0.00    -0.339 OA
HETATM    8  C9  UNL     1      22.839   3.590  50.652  1.00  0.00     0.141 C 
HETATM    9  C10 UNL     1      21.789   3.882  49.642  1.00  0.00     0.063 C 
HETATM   10  C11 UNL     1      20.539   4.404  50.260  1.00  0.00     0.272 C 
HETATM   11  N4  UNL     1      20.100   3.679  51.446  1.00  0.00     0.084 N 
HETATM   12  C12 UNL     1      21.215   3.611  52.370  1.00  0.00     0.282 C 
HETATM   13  C13 UNL     1      22.196   2.665  51.722  1.00  0.00     0.019 C 
HETATM   14  C22 UNL     1      23.244   2.181  52.680  1.00  0.00     0.076 C 
HETATM   15  H12 UNL     1      19.375   4.271  51.903  1.00  0.00     0.315 HD
ENDROOT
BRANCH  13  16
HETATM   16  C14 UNL     1      21.493   1.560  51.024  1.00  0.00     0.036 C 
BRANCH  16  17
HETATM   17  C15 UNL     1      21.275   0.278  51.689  1.00  0.00     0.157 C 
BRANCH  17  18
HETATM   18  N5  UNL     1      20.187   0.026  52.551  1.00  0.00    -0.261 N 
BRANCH  18  19
HETATM   19  O2  UNL     1      20.290   0.588  53.816  1.00  0.00    -0.287 OA
HETATM   20  H19 UNL     1      20.590   1.517  53.694  1.00  0.00     0.244 HD
ENDBRANCH  18  19
BRANCH  18  21
HETATM   21  C16 UNL     1      18.934  -0.608  52.679  1.00  0.00     0.055 C 
HETATM   22  C17 UNL     1      18.477  -1.591  53.428  1.00  0.00     0.005 C 
HETATM   23  C18 UNL     1      17.054  -1.868  53.156  1.00  0.00     0.034 C 
HETATM   24  C19 UNL     1      16.725  -1.050  51.957  1.00  0.00     0.040 C 
HETATM   25  C20 UNL     1      17.875  -0.111  51.822  1.00  0.00    -0.051 C 
HETATM   26  C21 UNL     1      17.804   0.938  51.031  1.00  0.00     0.041 C 
ENDBRANCH  18  21
ENDBRANCH  17  18
ENDBRANCH  16  17
ENDBRANCH  13  16
BRANCH   1  27
HETATM   27  N1  UNL     1      26.743   3.305  49.386  1.00  0.00    -0.339 N 
HETATM   28  H5  UNL     1      26.841   2.579  48.613  1.00  0.00     0.167 HD
BRANCH  27  29
HETATM   29  C4  UNL     1      26.972   4.628  48.936  1.00  0.00     0.034 A 
HETATM   30  C3  UNL     1      28.239   5.044  48.500  1.00  0.00     0.039 A 
HETATM   31  C2  UNL     1      28.488   6.313  48.058  1.00  0.00    -0.021 A 
HETATM   32  C1  UNL     1      29.858   6.669  47.615  1.00  0.00     0.051 C 
HETATM   33  C25 UNL     1      27.505   7.259  48.016  1.00  0.00     0.122 A 
HETATM   34  C24 UNL     1      26.237   6.904  48.434  1.00  0.00     0.045 A 
HETATM   35  F1  UNL     1      27.759   8.515  47.577  1.00  0.00    -0.206 F 
HETATM   36  C23 UNL     1      26.035   5.616  48.871  1.00  0.00     0.032 A 
ENDBRANCH  27  29
ENDBRANCH   1  27
TORSDOF 7
ENDMDL
MODEL 7
REMARK VINA RESULT:      -8.7      8.129     11.572
REMARK  7 active torsions:
REMARK  status: ('A' for Active; 'I' for Inactive)
REMARK    1  A    between atoms: C4_4  and  N1_5 
REMARK    2  A    between atoms: N1_5  and  C5_6 
REMARK    3  A    between atoms: C13_18  and  C14_19 
REMARK    4  A    between atoms: C14_19  and  C15_20 
REMARK    5  A    between atoms: C15_20  and  N5_21 
REMARK    6  A    between atoms: N5_21  and  O2_22 
REMARK    7  A    between atoms: N5_21  and  C16_23 
ROOT
HETATM    1  C5  UNL     1      32.675   8.244  44.523  1.00  0.00     0.165 A 
HETATM    2  N2  UNL     1      32.448   8.044  43.218  1.00  0.00    -0.221 NA
HETATM    3  C6  UNL     1      32.488   6.811  42.696  1.00  0.00     0.235 A 
HETATM    4  N3  UNL     1      32.759   5.716  43.467  1.00  0.00    -0.243 NA
HETATM    5  C7  UNL     1      32.996   5.873  44.800  1.00  0.00     0.074 A 
HETATM    6  C8  UNL     1      32.952   7.140  45.323  1.00  0.00     0.140 A 
HETATM    7  O1  UNL     1      33.210   7.163  46.681  1.00  0.00    -0.339 OA
HETATM    8  C9  UNL     1      34.111   6.243  47.215  1.00  0.00     0.141 C 
HETATM    9  C10 UNL     1      34.327   6.368  48.680  1.00  0.00     0.063 C 
HETATM   10  C11 UNL     1      35.256   5.328  49.205  1.00  0.00     0.272 C 
HETATM   11  N4  UNL     1      35.000   3.981  48.710  1.00  0.00     0.084 N 
HETATM   12  C12 UNL     1      34.955   4.035  47.261  1.00  0.00     0.282 C 
HETATM   13  C13 UNL     1      33.679   4.775  46.942  1.00  0.00     0.019 C 
HETATM   14  C22 UNL     1      33.269   4.619  45.509  1.00  0.00     0.076 C 
HETATM   15  H12 UNL     1      35.836   3.412  48.957  1.00  0.00     0.315 HD
ENDROOT
BRANCH  13  16
HETATM   16  C14 UNL     1      32.600   4.420  47.898  1.00  0.00     0.036 C 
BRANCH  16  17
HETATM   17  C15 UNL     1      31.196   4.576  47.528  1.00  0.00     0.157 C 
BRANCH  17  18
HETATM   18  N5  UNL     1      30.341   5.532  48.116  1.00  0.00    -0.261 N 
BRANCH  18  19
HETATM   19  O2  UNL     1      30.588   5.806  49.454  1.00  0.00    -0.287 OA
HETATM   20  H19 UNL     1      29.793   5.517  49.958  1.00  0.00     0.244 HD
ENDBRANCH  18  19
BRANCH  18  21
HETATM   21  C16 UNL     1      29.251   6.399  47.899  1.00  0.00     0.055 C 
HETATM   22  C17 UNL     1      29.131   7.611  47.395  1.00  0.00     0.005 C 
HETATM   23  C18 UNL     1      27.729   8.068  47.400  1.00  0.00     0.034 C 
HETATM   24  C19 UNL     1      26.992   7.041  48.187  1.00  0.00     0.040 C 
HETATM   25  C20 UNL     1      27.948   5.902  48.296  1.00  0.00    -0.051 C 
HETATM   26  C21 UNL     1      27.544   4.715  48.696  1.00  0.00     0.041 C 
ENDBRANCH  18  21
ENDBRANCH  17  18
ENDBRANCH  16  17
ENDBRANCH  13  16
BRANCH   1  27
HETATM   27  N1  UNL     1      32.657   9.504  45.171  1.00  0.00    -0.339 N 
HETATM   28  H5  UNL     1      33.561  10.064  45.216  1.00  0.00     0.167 HD
BRANCH  27  29
HETATM   29  C4  UNL     1      31.567  10.158  45.795  1.00  0.00     0.034 A 
HETATM   30  C3  UNL     1      31.611  10.525  47.148  1.00  0.00     0.039 A 
HETATM   31  C2  UNL     1      30.576  11.159  47.776  1.00  0.00    -0.021 A 
HETATM   32  C1  UNL     1      30.705  11.510  49.211  1.00  0.00     0.051 C 
HETATM   33  C25 UNL     1      29.427  11.476  47.111  1.00  0.00     0.122 A 
HETATM   34  C24 UNL     1      29.329  11.139  45.775  1.00  0.00     0.045 A 
HETATM   35  F1  UNL     1      28.405  12.106  47.740  1.00  0.00    -0.206 F 
HETATM   36  C23 UNL     1      30.396  10.502  45.187  1.00  0.00     0.032 A 
ENDBRANCH  27  29
ENDBRANCH   1  27
TORSDOF 7
ENDMDL
MODEL 8
REMARK VINA RESULT:      -8.5      2.855      5.400
REMARK  7 active torsions:
REMARK  status: ('A' for Active; 'I' for Inactive)
REMARK    1  A    between atoms: C4_4  and  N1_5 
REMARK    2  A    between atoms: N1_5  and  C5_6 
REMARK    3  A    between atoms: C13_18  and  C14_19 
REMARK    4  A    between atoms: C14_19  and  C15_20 
REMARK    5  A    between atoms: C15_20  and  N5_21 
REMARK    6  A    between atoms: N5_21  and  O2_22 
REMARK    7  A    between atoms: N5_21  and  C16_23 
ROOT
HETATM    1  C5  UNL     1      23.582  -0.521  53.537  1.00  0.00     0.165 A 
HETATM    2  N2  UNL     1      22.923  -1.145  54.523  1.00  0.00    -0.221 NA
HETATM    3  C6  UNL     1      21.687  -0.763  54.870  1.00  0.00     0.235 A 
HETATM    4  N3  UNL     1      21.052   0.269  54.239  1.00  0.00    -0.243 NA
HETATM    5  C7  UNL     1      21.685   0.932  53.230  1.00  0.00     0.074 A 
HETATM    6  C8  UNL     1      22.950   0.532  52.882  1.00  0.00     0.140 A 
HETATM    7  O1  UNL     1      23.480   1.283  51.849  1.00  0.00    -0.339 OA
HETATM    8  C9  UNL     1      23.150   2.634  51.755  1.00  0.00     0.141 C 
HETATM    9  C10 UNL     1      23.788   3.349  50.620  1.00  0.00     0.063 C 
HETATM   10  C11 UNL     1      23.358   4.773  50.536  1.00  0.00     0.272 C 
HETATM   11  N4  UNL     1      21.925   4.986  50.701  1.00  0.00     0.084 N 
HETATM   12  C12 UNL     1      21.511   4.330  51.926  1.00  0.00     0.282 C 
HETATM   13  C13 UNL     1      21.617   2.854  51.629  1.00  0.00     0.019 C 
HETATM   14  C22 UNL     1      20.892   2.014  52.637  1.00  0.00     0.076 C 
HETATM   15  H12 UNL     1      21.794   6.007  50.855  1.00  0.00     0.315 HD
ENDROOT
BRANCH  13  16
HETATM   16  C14 UNL     1      21.216   2.560  50.230  1.00  0.00     0.036 C 
BRANCH  16  17
HETATM   17  C15 UNL     1      20.445   1.360  49.913  1.00  0.00     0.157 C 
BRANCH  17  18
HETATM   18  N5  UNL     1      19.050   1.368  49.702  1.00  0.00    -0.261 N 
BRANCH  18  19
HETATM   19  O2  UNL     1      18.627   2.022  48.553  1.00  0.00    -0.287 OA
HETATM   20  H19 UNL     1      19.157   2.847  48.480  1.00  0.00     0.244 HD
ENDBRANCH  18  19
BRANCH  18  21
HETATM   21  C16 UNL     1      17.801   0.956  50.209  1.00  0.00     0.055 C 
HETATM   22  C17 UNL     1      17.080  -0.142  50.089  1.00  0.00     0.005 C 
HETATM   23  C18 UNL     1      15.816  -0.050  50.843  1.00  0.00     0.034 C 
HETATM   24  C19 UNL     1      15.738   1.366  51.292  1.00  0.00     0.040 C 
HETATM   25  C20 UNL     1      17.108   1.907  51.056  1.00  0.00    -0.051 C 
HETATM   26  C21 UNL     1      17.484   3.053  51.582  1.00  0.00     0.041 C 
ENDBRANCH  18  21
ENDBRANCH  17  18
ENDBRANCH  16  17
ENDBRANCH  13  16
BRANCH   1  27
HETATM   27  N1  UNL     1      24.888  -0.847  53.094  1.00  0.00    -0.339 N 
HETATM   28  H5  UNL     1      25.007  -1.663  52.423  1.00  0.00     0.167 HD
BRANCH  27  29
HETATM   29  C4  UNL     1      26.113  -0.220  53.429  1.00  0.00     0.034 A 
HETATM   30  C3  UNL     1      27.337  -0.895  53.309  1.00  0.00     0.039 A 
HETATM   31  C2  UNL     1      28.535  -0.314  53.621  1.00  0.00    -0.021 A 
HETATM   32  C1  UNL     1      29.782  -1.101  53.467  1.00  0.00     0.051 C 
HETATM   33  C25 UNL     1      28.606   0.972  54.073  1.00  0.00     0.122 A 
HETATM   34  C24 UNL     1      27.431   1.685  54.209  1.00  0.00     0.045 A 
HETATM   35  F1  UNL     1      29.797   1.541  54.379  1.00  0.00    -0.206 F 
HETATM   36  C23 UNL     1      26.251   1.058  53.883  1.00  0.00     0.032 A 
ENDBRANCH  27  29
ENDBRANCH   1  27
TORSDOF 7
ENDMDL
MODEL 9
REMARK VINA RESULT:      -8.5      1.339      2.118
REMARK  7 active torsions:
REMARK  status: ('A' for Active; 'I' for Inactive)
REMARK    1  A    between atoms: C4_4  and  N1_5 
REMARK    2  A    between atoms: N1_5  and  C5_6 
REMARK    3  A    between atoms: C13_18  and  C14_19 
REMARK    4  A    between atoms: C14_19  and  C15_20 
REMARK    5  A    between atoms: C15_20  and  N5_21 
REMARK    6  A    between atoms: N5_21  and  O2_22 
REMARK    7  A    between atoms: N5_21  and  C16_23 
ROOT
HETATM    1  C5  UNL     1      26.120   2.588  51.327  1.00  0.00     0.165 A 
HETATM    2  N2  UNL     1      27.101   3.177  50.630  1.00  0.00    -0.221 NA
HETATM    3  C6  UNL     1      26.831   3.867  49.513  1.00  0.00     0.235 A 
HETATM    4  N3  UNL     1      25.555   3.997  49.043  1.00  0.00    -0.243 NA
HETATM    5  C7  UNL     1      24.526   3.414  49.720  1.00  0.00     0.074 A 
HETATM    6  C8  UNL     1      24.814   2.711  50.862  1.00  0.00     0.140 A 
HETATM    7  O1  UNL     1      23.686   2.171  51.453  1.00  0.00    -0.339 OA
HETATM    8  C9  UNL     1      22.638   1.740  50.642  1.00  0.00     0.141 C 
HETATM    9  C10 UNL     1      21.484   1.160  51.377  1.00  0.00     0.063 C 
HETATM   10  C11 UNL     1      20.373   0.767  50.466  1.00  0.00     0.272 C 
HETATM   11  N4  UNL     1      20.048   1.755  49.445  1.00  0.00     0.084 N 
HETATM   12  C12 UNL     1      21.271   2.099  48.746  1.00  0.00     0.282 C 
HETATM   13  C13 UNL     1      22.081   2.884  49.749  1.00  0.00     0.019 C 
HETATM   14  C22 UNL     1      23.210   3.635  49.111  1.00  0.00     0.076 C 
HETATM   15  H12 UNL     1      19.438   1.272  48.751  1.00  0.00     0.315 HD
ENDROOT
BRANCH  13  16
HETATM   16  C14 UNL     1      21.207   3.746  50.585  1.00  0.00     0.036 C 
BRANCH  16  17
HETATM   17  C15 UNL     1      21.767   4.867  51.335  1.00  0.00     0.157 C 
BRANCH  17  18
HETATM   18  N5  UNL     1      21.972   6.147  50.780  1.00  0.00    -0.261 N 
BRANCH  18  19
HETATM   19  O2  UNL     1      21.477   7.206  51.529  1.00  0.00    -0.287 OA
HETATM   20  H19 UNL     1      22.004   8.001  51.285  1.00  0.00     0.244 HD
ENDBRANCH  18  19
BRANCH  18  21
HETATM   21  C16 UNL     1      22.514   6.864  49.693  1.00  0.00     0.055 C 
HETATM   22  C17 UNL     1      22.015   7.342  48.570  1.00  0.00     0.005 C 
HETATM   23  C18 UNL     1      23.043   8.026  47.764  1.00  0.00     0.034 C 
HETATM   24  C19 UNL     1      24.331   7.725  48.446  1.00  0.00     0.040 C 
HETATM   25  C20 UNL     1      23.928   7.173  49.772  1.00  0.00    -0.051 C 
HETATM   26  C21 UNL     1      24.803   7.045  50.747  1.00  0.00     0.041 C 
ENDBRANCH  18  21
ENDBRANCH  17  18
ENDBRANCH  16  17
ENDBRANCH  13  16
BRANCH   1  27
HETATM   27  N1  UNL     1      26.299   1.839  52.516  1.00  0.00    -0.339 N 
HETATM   28  H5  UNL     1      25.968   2.259  53.435  1.00  0.00     0.167 HD
BRANCH  27  29
HETATM   29  C4  UNL     1      26.881   0.557  52.669  1.00  0.00     0.034 A 
HETATM   30  C3  UNL     1      28.185   0.398  53.161  1.00  0.00     0.039 A 
HETATM   31  C2  UNL     1      28.770  -0.826  53.323  1.00  0.00    -0.021 A 
HETATM   32  C1  UNL     1      30.154  -0.903  53.849  1.00  0.00     0.051 C 
HETATM   33  C25 UNL     1      28.109  -1.979  53.011  1.00  0.00     0.122 A 
HETATM   34  C24 UNL     1      26.820  -1.882  52.523  1.00  0.00     0.045 A 
HETATM   35  F1  UNL     1      28.695  -3.189  53.175  1.00  0.00    -0.206 F 
HETATM   36  C23 UNL     1      26.273  -0.629  52.377  1.00  0.00     0.032 A 
ENDBRANCH  27  29
ENDBRANCH   1  27
TORSDOF 7
ENDMDL
