MODEL 1
REMARK VINA RESULT:      -7.5      0.000      0.000
REMARK  4 active torsions:
REMARK  status: ('A' for Active; 'I' for Inactive)
REMARK    1  A    between atoms: C1_2  and  O2_3 
REMARK    2  A    between atoms: O2_3  and  C2_4 
REMARK    3  A    between atoms: C8_10  and  S1_11 
REMARK    4  A    between atoms: S1_11  and  C9_14 
ROOT
HETATM    1  C2  UNL     1      24.256  -0.239  53.718  1.00  0.00     0.085 A 
HETATM    2  C3  UNL     1      23.685  -0.994  54.645  1.00  0.00     0.037 A 
HETATM    3  C4  UNL     1      22.244  -0.987  54.880  1.00  0.00    -0.001 A 
HETATM    4  C5  UNL     1      21.521  -0.190  54.127  1.00  0.00    -0.022 A 
HETATM    5  C6  UNL     1      21.952   0.740  53.031  1.00  0.00     0.069 A 
HETATM    6  C7  UNL     1      23.429   0.637  52.895  1.00  0.00    -0.010 A 
HETATM    7  C8  UNL     1      24.030   1.374  51.984  1.00  0.00     0.124 C 
ENDROOT
BRANCH   7   8
HETATM    8  S1  UNL     1      23.283   2.499  50.871  1.00  0.00     0.197 S 
HETATM    9  O3  UNL     1      22.516   1.788  49.793  1.00  0.00    -0.218 OA
HETATM   10  O4  UNL     1      22.348   3.461  51.586  1.00  0.00    -0.218 OA
BRANCH   8  11
HETATM   11  C9  UNL     1      24.514   3.521  50.116  1.00  0.00     0.063 A 
HETATM   12  C10 UNL     1      25.802   2.987  50.107  1.00  0.00     0.025 A 
HETATM   13  C11 UNL     1      26.851   3.673  49.554  1.00  0.00     0.025 A 
HETATM   14  C12 UNL     1      26.597   4.913  49.002  1.00  0.00     0.034 A 
HETATM   15 CL1  UNL     1      27.930   5.819  48.283  1.00  0.00    -0.084 Cl
HETATM   16  C13 UNL     1      25.325   5.464  48.998  1.00  0.00     0.025 A 
HETATM   17  C14 UNL     1      24.275   4.763  49.559  1.00  0.00     0.025 A 
ENDBRANCH   8  11
ENDBRANCH   7   8
BRANCH   1  18
HETATM   18  O2  UNL     1      25.637  -0.325  53.579  1.00  0.00    -0.285 OA
BRANCH  18  19
HETATM   19  C1  UNL     1      26.363   0.109  54.706  1.00  0.00     0.403 C 
HETATM   20  O1  UNL     1      27.513  -0.323  55.005  1.00  0.00    -0.276 OA
ENDBRANCH  18  19
ENDBRANCH   1  18
TORSDOF 4
ENDMDL
MODEL 2
REMARK VINA RESULT:      -7.4      1.663      2.134
REMARK  4 active torsions:
REMARK  status: ('A' for Active; 'I' for Inactive)
REMARK    1  A    between atoms: C1_2  and  O2_3 
REMARK    2  A    between atoms: O2_3  and  C2_4 
REMARK    3  A    between atoms: C8_10  and  S1_11 
REMARK    4  A    between atoms: S1_11  and  C9_14 
ROOT
HETATM    1  C2  UNL     1      26.038   0.774  52.730  1.00  0.00     0.085 A 
HETATM    2  C3  UNL     1      25.595  -0.197  53.516  1.00  0.00     0.037 A 
HETATM    3  C4  UNL     1      24.174  -0.492  53.667  1.00  0.00    -0.001 A 
HETATM    4  C5  UNL     1      23.334   0.254  52.985  1.00  0.00    -0.022 A 
HETATM    5  C6  UNL     1      23.611   1.392  52.048  1.00  0.00     0.069 A 
HETATM    6  C7  UNL     1      25.083   1.587  51.983  1.00  0.00    -0.010 A 
HETATM    7  C8  UNL     1      25.559   2.543  51.213  1.00  0.00     0.124 C 
ENDROOT
BRANCH   7   8
HETATM    8  S1  UNL     1      24.644   3.653  50.218  1.00  0.00     0.197 S 
HETATM    9  O3  UNL     1      23.823   2.930  49.188  1.00  0.00    -0.218 OA
HETATM   10  O4  UNL     1      23.723   4.530  51.052  1.00  0.00    -0.218 OA
BRANCH   8  11
HETATM   11  C9  UNL     1      25.733   4.776  49.392  1.00  0.00     0.063 A 
HETATM   12  C10 UNL     1      27.022   4.294  49.169  1.00  0.00     0.025 A 
HETATM   13  C11 UNL     1      27.968   5.059  48.540  1.00  0.00     0.025 A 
HETATM   14  C12 UNL     1      27.608   6.328  48.131  1.00  0.00     0.034 A 
HETATM   15 CL1  UNL     1      28.807   7.336  47.317  1.00  0.00    -0.084 Cl
HETATM   16  C13 UNL     1      26.333   6.830  48.340  1.00  0.00     0.025 A 
HETATM   17  C14 UNL     1      25.388   6.048  48.976  1.00  0.00     0.025 A 
ENDBRANCH   8  11
ENDBRANCH   7   8
BRANCH   1  18
HETATM   18  O2  UNL     1      27.413   0.968  52.660  1.00  0.00    -0.285 OA
BRANCH  18  19
HETATM   19  C1  UNL     1      28.000   1.412  53.860  1.00  0.00     0.403 C 
HETATM   20  O1  UNL     1      28.212   2.630  54.126  1.00  0.00    -0.276 OA
ENDBRANCH  18  19
ENDBRANCH   1  18
TORSDOF 4
ENDMDL
MODEL 3
REMARK VINA RESULT:      -7.0      1.744      3.557
REMARK  4 active torsions:
REMARK  status: ('A' for Active; 'I' for Inactive)
REMARK    1  A    between atoms: C1_2  and  O2_3 
REMARK    2  A    between atoms: O2_3  and  C2_4 
REMARK    3  A    between atoms: C8_10  and  S1_11 
REMARK    4  A    between atoms: S1_11  and  C9_14 
ROOT
HETATM    1  C2  UNL     1      21.103   0.445  52.485  1.00  0.00     0.085 A 
HETATM    2  C3  UNL     1      20.407  -0.455  53.164  1.00  0.00     0.037 A 
HETATM    3  C4  UNL     1      21.015  -1.312  54.177  1.00  0.00    -0.001 A 
HETATM    4  C5  UNL     1      22.302  -1.158  54.394  1.00  0.00    -0.022 A 
HETATM    5  C6  UNL     1      23.273  -0.213  53.750  1.00  0.00     0.069 A 
HETATM    6  C7  UNL     1      22.532   0.596  52.747  1.00  0.00    -0.010 A 
HETATM    7  C8  UNL     1      23.192   1.499  52.053  1.00  0.00     0.124 C 
ENDROOT
BRANCH   7   8
HETATM    8  S1  UNL     1      24.895   1.883  52.167  1.00  0.00     0.197 S 
HETATM    9  O3  UNL     1      25.286   2.267  53.566  1.00  0.00    -0.218 OA
HETATM   10  O4  UNL     1      25.767   0.722  51.716  1.00  0.00    -0.218 OA
BRANCH   8  11
HETATM   11  C9  UNL     1      25.297   3.218  51.078  1.00  0.00     0.063 A 
HETATM   12  C10 UNL     1      26.438   3.023  50.300  1.00  0.00     0.025 A 
HETATM   13  C11 UNL     1      26.864   3.976  49.413  1.00  0.00     0.025 A 
HETATM   14  C12 UNL     1      26.129   5.141  49.310  1.00  0.00     0.034 A 
HETATM   15 CL1  UNL     1      26.655   6.386  48.176  1.00  0.00    -0.084 Cl
HETATM   16  C13 UNL     1      24.991   5.357  50.071  1.00  0.00     0.025 A 
HETATM   17  C14 UNL     1      24.571   4.388  50.962  1.00  0.00     0.025 A 
ENDBRANCH   8  11
ENDBRANCH   7   8
BRANCH   1  18
HETATM   18  O2  UNL     1      20.423   1.208  51.543  1.00  0.00    -0.285 OA
BRANCH  18  19
HETATM   19  C1  UNL     1      19.570   2.185  52.092  1.00  0.00     0.403 C 
HETATM   20  O1  UNL     1      19.985   3.218  52.693  1.00  0.00    -0.276 OA
ENDBRANCH  18  19
ENDBRANCH   1  18
TORSDOF 4
ENDMDL
MODEL 4
REMARK VINA RESULT:      -6.9      3.989      7.515
REMARK  4 active torsions:
REMARK  status: ('A' for Active; 'I' for Inactive)
REMARK    1  A    between atoms: C1_2  and  O2_3 
REMARK    2  A    between atoms: O2_3  and  C2_4 
REMARK    3  A    between atoms: C8_10  and  S1_11 
REMARK    4  A    between atoms: S1_11  and  C9_14 
ROOT
HETATM    1  C2  UNL     1      28.281   5.988  48.175  1.00  0.00     0.085 A 
HETATM    2  C3  UNL     1      28.606   7.033  47.427  1.00  0.00     0.037 A 
HETATM    3  C4  UNL     1      27.629   8.038  47.022  1.00  0.00    -0.001 A 
HETATM    4  C5  UNL     1      26.392   7.867  47.432  1.00  0.00    -0.022 A 
HETATM    5  C6  UNL     1      25.808   6.771  48.274  1.00  0.00     0.069 A 
HETATM    6  C7  UNL     1      26.900   5.822  48.616  1.00  0.00    -0.010 A 
HETATM    7  C8  UNL     1      26.613   4.772  49.357  1.00  0.00     0.124 C 
ENDROOT
BRANCH   7   8
HETATM    8  S1  UNL     1      25.052   4.337  50.016  1.00  0.00     0.197 S 
HETATM    9  O3  UNL     1      24.502   5.418  50.903  1.00  0.00    -0.218 OA
HETATM   10  O4  UNL     1      24.040   4.041  48.920  1.00  0.00    -0.218 OA
BRANCH   8  11
HETATM   11  C9  UNL     1      25.177   2.840  50.950  1.00  0.00     0.063 A 
HETATM   12  C10 UNL     1      26.469   2.335  51.089  1.00  0.00     0.025 A 
HETATM   13  C11 UNL     1      26.710   1.182  51.788  1.00  0.00     0.025 A 
HETATM   14  C12 UNL     1      25.633   0.530  52.354  1.00  0.00     0.034 A 
HETATM   15 CL1  UNL     1      25.914  -0.958  53.260  1.00  0.00    -0.084 Cl
HETATM   16  C13 UNL     1      24.339   1.012  52.231  1.00  0.00     0.025 A 
HETATM   17  C14 UNL     1      24.109   2.176  51.524  1.00  0.00     0.025 A 
ENDBRANCH   8  11
ENDBRANCH   7   8
BRANCH   1  18
HETATM   18  O2  UNL     1      29.293   5.092  48.502  1.00  0.00    -0.285 OA
BRANCH  18  19
HETATM   19  C1  UNL     1      30.596   5.609  48.367  1.00  0.00     0.403 C 
HETATM   20  O1  UNL     1      31.642   4.937  48.595  1.00  0.00    -0.276 OA
ENDBRANCH  18  19
ENDBRANCH   1  18
TORSDOF 4
ENDMDL
MODEL 5
REMARK VINA RESULT:      -6.9      3.651      5.072
REMARK  4 active torsions:
REMARK  status: ('A' for Active; 'I' for Inactive)
REMARK    1  A    between atoms: C1_2  and  O2_3 
REMARK    2  A    between atoms: O2_3  and  C2_4 
REMARK    3  A    between atoms: C8_10  and  S1_11 
REMARK    4  A    between atoms: S1_11  and  C9_14 
ROOT
HETATM    1  C2  UNL     1      21.582  -0.262  52.593  1.00  0.00     0.085 A 
HETATM    2  C3  UNL     1      21.070  -1.213  53.359  1.00  0.00     0.037 A 
HETATM    3  C4  UNL     1      21.712  -1.652  54.595  1.00  0.00    -0.001 A 
HETATM    4  C5  UNL     1      22.837  -1.059  54.925  1.00  0.00    -0.022 A 
HETATM    5  C6  UNL     1      23.588   0.028  54.215  1.00  0.00     0.069 A 
HETATM    6  C7  UNL     1      22.834   0.380  52.983  1.00  0.00    -0.010 A 
HETATM    7  C8  UNL     1      23.314   1.321  52.198  1.00  0.00     0.124 C 
ENDROOT
BRANCH   7   8
HETATM    8  S1  UNL     1      24.782   2.245  52.429  1.00  0.00     0.197 S 
HETATM    9  O3  UNL     1      25.097   3.096  51.232  1.00  0.00    -0.218 OA
HETATM   10  O4  UNL     1      24.699   3.137  53.657  1.00  0.00    -0.218 OA
BRANCH   8  11
HETATM   11  C9  UNL     1      26.146   1.160  52.732  1.00  0.00     0.063 A 
HETATM   12  C10 UNL     1      27.080   1.629  53.655  1.00  0.00     0.025 A 
HETATM   13  C11 UNL     1      28.186   0.891  53.984  1.00  0.00     0.025 A 
HETATM   14  C12 UNL     1      28.352  -0.336  53.373  1.00  0.00     0.034 A 
HETATM   15 CL1  UNL     1      29.768  -1.309  53.778  1.00  0.00    -0.084 Cl
HETATM   16  C13 UNL     1      27.437  -0.825  52.453  1.00  0.00     0.025 A 
HETATM   17  C14 UNL     1      26.326  -0.070  52.129  1.00  0.00     0.025 A 
ENDBRANCH   8  11
ENDBRANCH   7   8
BRANCH   1  18
HETATM   18  O2  UNL     1      20.887   0.078  51.437  1.00  0.00    -0.285 OA
BRANCH  18  19
HETATM   19  C1  UNL     1      19.548   0.458  51.654  1.00  0.00     0.403 C 
HETATM   20  O1  UNL     1      18.561  -0.129  51.125  1.00  0.00    -0.276 OA
ENDBRANCH  18  19
ENDBRANCH   1  18
TORSDOF 4
ENDMDL
MODEL 6
REMARK VINA RESULT:      -6.8      1.705      2.821
REMARK  4 active torsions:
REMARK  status: ('A' for Active; 'I' for Inactive)
REMARK    1  A    between atoms: C1_2  and  O2_3 
REMARK    2  A    between atoms: O2_3  and  C2_4 
REMARK    3  A    between atoms: C8_10  and  S1_11 
REMARK    4  A    between atoms: S1_11  and  C9_14 
ROOT
HETATM    1  C2  UNL     1      23.843   0.103  53.414  1.00  0.00     0.085 A 
HETATM    2  C3  UNL     1      24.771  -0.515  54.130  1.00  0.00     0.037 A 
HETATM    3  C4  UNL     1      26.008   0.142  54.540  1.00  0.00    -0.001 A 
HETATM    4  C5  UNL     1      26.172   1.391  54.166  1.00  0.00    -0.022 A 
HETATM    5  C6  UNL     1      25.265   2.274  53.362  1.00  0.00     0.069 A 
HETATM    6  C7  UNL     1      24.052   1.491  53.011  1.00  0.00    -0.010 A 
HETATM    7  C8  UNL     1      23.109   2.073  52.299  1.00  0.00     0.124 C 
ENDROOT
BRANCH   7   8
HETATM    8  S1  UNL     1      23.104   3.714  51.693  1.00  0.00     0.197 S 
HETATM    9  O3  UNL     1      21.888   3.993  50.855  1.00  0.00    -0.218 OA
HETATM   10  O4  UNL     1      23.167   4.732  52.820  1.00  0.00    -0.218 OA
BRANCH   8  11
HETATM   11  C9  UNL     1      24.549   4.011  50.717  1.00  0.00     0.063 A 
HETATM   12  C10 UNL     1      24.811   5.352  50.441  1.00  0.00     0.025 A 
HETATM   13  C11 UNL     1      25.898   5.725  49.695  1.00  0.00     0.025 A 
HETATM   14  C12 UNL     1      26.731   4.730  49.221  1.00  0.00     0.034 A 
HETATM   15 CL1  UNL     1      28.139   5.181  48.257  1.00  0.00    -0.084 Cl
HETATM   16  C13 UNL     1      26.492   3.390  49.482  1.00  0.00     0.025 A 
HETATM   17  C14 UNL     1      25.392   3.027  50.235  1.00  0.00     0.025 A 
ENDBRANCH   8  11
ENDBRANCH   7   8
BRANCH   1  18
HETATM   18  O2  UNL     1      22.703  -0.618  53.078  1.00  0.00    -0.285 OA
BRANCH  18  19
HETATM   19  C1  UNL     1      21.784  -0.779  54.133  1.00  0.00     0.403 C 
HETATM   20  O1  UNL     1      21.825  -1.740  54.955  1.00  0.00    -0.276 OA
ENDBRANCH  18  19
ENDBRANCH   1  18
TORSDOF 4
ENDMDL
MODEL 7
REMARK VINA RESULT:      -6.5      4.232      6.798
REMARK  4 active torsions:
REMARK  status: ('A' for Active; 'I' for Inactive)
REMARK    1  A    between atoms: C1_2  and  O2_3 
REMARK    2  A    between atoms: O2_3  and  C2_4 
REMARK    3  A    between atoms: C8_10  and  S1_11 
REMARK    4  A    between atoms: S1_11  and  C9_14 
ROOT
HETATM    1  C2  UNL     1      24.682   1.199  51.962  1.00  0.00     0.085 A 
HETATM    2  C3  UNL     1      26.002   1.152  52.074  1.00  0.00     0.037 A 
HETATM    3  C4  UNL     1      26.673   0.311  53.061  1.00  0.00    -0.001 A 
HETATM    4  C5  UNL     1      25.908  -0.410  53.849  1.00  0.00    -0.022 A 
HETATM    5  C6  UNL     1      24.412  -0.509  53.898  1.00  0.00     0.069 A 
HETATM    6  C7  UNL     1      23.856   0.388  52.851  1.00  0.00    -0.010 A 
HETATM    7  C8  UNL     1      22.549   0.461  52.712  1.00  0.00     0.124 C 
ENDROOT
BRANCH   7   8
HETATM    8  S1  UNL     1      21.338  -0.398  53.637  1.00  0.00     0.197 S 
HETATM    9  O3  UNL     1      21.735  -1.826  53.883  1.00  0.00    -0.218 OA
HETATM   10  O4  UNL     1      21.069   0.273  54.975  1.00  0.00    -0.218 OA
BRANCH   8  11
HETATM   11  C9  UNL     1      19.787  -0.376  52.786  1.00  0.00     0.063 A 
HETATM   12  C10 UNL     1      18.782  -1.147  53.368  1.00  0.00     0.025 A 
HETATM   13  C11 UNL     1      17.531  -1.221  52.813  1.00  0.00     0.025 A 
HETATM   14  C12 UNL     1      17.293  -0.507  51.656  1.00  0.00     0.034 A 
HETATM   15 CL1  UNL     1      15.691  -0.584  50.918  1.00  0.00    -0.084 Cl
HETATM   16  C13 UNL     1      18.275   0.267  51.058  1.00  0.00     0.025 A 
HETATM   17  C14 UNL     1      19.532   0.333  51.628  1.00  0.00     0.025 A 
ENDBRANCH   8  11
ENDBRANCH   7   8
BRANCH   1  18
HETATM   18  O2  UNL     1      24.149   2.035  50.988  1.00  0.00    -0.285 OA
BRANCH  18  19
HETATM   19  C1  UNL     1      24.319   3.410  51.243  1.00  0.00     0.403 C 
HETATM   20  O1  UNL     1      23.812   4.004  52.237  1.00  0.00    -0.276 OA
ENDBRANCH  18  19
ENDBRANCH   1  18
TORSDOF 4
ENDMDL
MODEL 8
REMARK VINA RESULT:      -6.5      2.886      3.897
REMARK  4 active torsions:
REMARK  status: ('A' for Active; 'I' for Inactive)
REMARK    1  A    between atoms: C1_2  and  O2_3 
REMARK    2  A    between atoms: O2_3  and  C2_4 
REMARK    3  A    between atoms: C8_10  and  S1_11 
REMARK    4  A    between atoms: S1_11  and  C9_14 
ROOT
HETATM    1  C2  UNL     1      23.776   0.359  53.240  1.00  0.00     0.085 A 
HETATM    2  C3  UNL     1      24.754  -0.532  53.318  1.00  0.00     0.037 A 
HETATM    3  C4  UNL     1      26.044  -0.337  52.663  1.00  0.00    -0.001 A 
HETATM    4  C5  UNL     1      26.203   0.774  51.979  1.00  0.00    -0.022 A 
HETATM    5  C6  UNL     1      25.243   1.906  51.760  1.00  0.00     0.069 A 
HETATM    6  C7  UNL     1      23.980   1.584  52.474  1.00  0.00    -0.010 A 
HETATM    7  C8  UNL     1      22.987   2.447  52.418  1.00  0.00     0.124 C 
ENDROOT
BRANCH   7   8
HETATM    8  S1  UNL     1      22.965   3.981  51.578  1.00  0.00     0.197 S 
HETATM    9  O3  UNL     1      21.909   4.899  52.124  1.00  0.00    -0.218 OA
HETATM   10  O4  UNL     1      24.311   4.684  51.653  1.00  0.00    -0.218 OA
BRANCH   8  11
HETATM   11  C9  UNL     1      22.667   3.731  49.852  1.00  0.00     0.063 A 
HETATM   12  C10 UNL     1      22.498   4.896  49.106  1.00  0.00     0.025 A 
HETATM   13  C11 UNL     1      22.260   4.849  47.758  1.00  0.00     0.025 A 
HETATM   14  C12 UNL     1      22.191   3.608  47.155  1.00  0.00     0.034 A 
HETATM   15 CL1  UNL     1      21.885   3.516  45.419  1.00  0.00    -0.084 Cl
HETATM   16  C13 UNL     1      22.356   2.435  47.875  1.00  0.00     0.025 A 
HETATM   17  C14 UNL     1      22.595   2.496  49.234  1.00  0.00     0.025 A 
ENDBRANCH   8  11
ENDBRANCH   7   8
BRANCH   1  18
HETATM   18  O2  UNL     1      22.589   0.071  53.904  1.00  0.00    -0.285 OA
BRANCH  18  19
HETATM   19  C1  UNL     1      22.312  -1.305  54.031  1.00  0.00     0.403 C 
HETATM   20  O1  UNL     1      21.676  -1.802  55.004  1.00  0.00    -0.276 OA
ENDBRANCH  18  19
ENDBRANCH   1  18
TORSDOF 4
ENDMDL
MODEL 9
REMARK VINA RESULT:      -6.4      2.566      2.982
REMARK  4 active torsions:
REMARK  status: ('A' for Active; 'I' for Inactive)
REMARK    1  A    between atoms: C1_2  and  O2_3 
REMARK    2  A    between atoms: O2_3  and  C2_4 
REMARK    3  A    between atoms: C8_10  and  S1_11 
REMARK    4  A    between atoms: S1_11  and  C9_14 
ROOT
HETATM    1  C2  UNL     1      24.586   0.694  53.203  1.00  0.00     0.085 A 
HETATM    2  C3  UNL     1      24.169  -0.473  53.671  1.00  0.00     0.037 A 
HETATM    3  C4  UNL     1      22.757  -0.838  53.715  1.00  0.00    -0.001 A 
HETATM    4  C5  UNL     1      21.897   0.049  53.268  1.00  0.00    -0.022 A 
HETATM    5  C6  UNL     1      22.144   1.416  52.701  1.00  0.00     0.069 A 
HETATM    6  C7  UNL     1      23.610   1.661  52.712  1.00  0.00    -0.010 A 
HETATM    7  C8  UNL     1      24.060   2.812  52.254  1.00  0.00     0.124 C 
ENDROOT
BRANCH   7   8
HETATM    8  S1  UNL     1      23.115   4.136  51.611  1.00  0.00     0.197 S 
HETATM    9  O3  UNL     1      21.811   4.295  52.340  1.00  0.00    -0.218 OA
HETATM   10  O4  UNL     1      23.874   5.452  51.672  1.00  0.00    -0.218 OA
BRANCH   8  11
HETATM   11  C9  UNL     1      22.780   3.871  49.894  1.00  0.00     0.063 A 
HETATM   12  C10 UNL     1      22.514   5.026  49.159  1.00  0.00     0.025 A 
HETATM   13  C11 UNL     1      22.238   4.967  47.818  1.00  0.00     0.025 A 
HETATM   14  C12 UNL     1      22.230   3.726  47.212  1.00  0.00     0.034 A 
HETATM   15 CL1  UNL     1      21.877   3.619  45.486  1.00  0.00    -0.084 Cl
HETATM   16  C13 UNL     1      22.492   2.564  47.922  1.00  0.00     0.025 A 
HETATM   17  C14 UNL     1      22.768   2.637  49.273  1.00  0.00     0.025 A 
ENDBRANCH   8  11
ENDBRANCH   7   8
BRANCH   1  18
HETATM   18  O2  UNL     1      25.955   0.938  53.208  1.00  0.00    -0.285 OA
BRANCH  18  19
HETATM   19  C1  UNL     1      26.674   0.201  54.169  1.00  0.00     0.403 C 
HETATM   20  O1  UNL     1      27.307   0.731  55.126  1.00  0.00    -0.276 OA
ENDBRANCH  18  19
ENDBRANCH   1  18
TORSDOF 4
ENDMDL
