MODEL 1
REMARK VINA RESULT:      -9.6      0.000      0.000
REMARK  3 active torsions:
REMARK  status: ('A' for Active; 'I' for Inactive)
REMARK    1  A    between atoms: C7_8  and  C8_9 
REMARK    2  A    between atoms: C8_9  and  C9_10 
REMARK    3  A    between atoms: C9_10  and  C10_11 
ROOT
HETATM    1  C1  UNL     1      21.938   6.161  47.152  1.00  0.00     0.108 A 
HETATM    2  C2  UNL     1      22.445   5.378  48.065  1.00  0.00    -0.043 A 
HETATM    3  C3  UNL     1      21.974   4.076  48.654  1.00  0.00     0.017 C 
HETATM    4  C4  UNL     1      22.939   3.665  49.504  1.00  0.00     0.073 C 
HETATM    5  C5  UNL     1      22.679   2.377  50.236  1.00  0.00    -0.004 C 
HETATM    6 BR1  UNL     1      21.496   0.851  50.644  1.00  0.00    -0.055 Br
HETATM    7  C6  UNL     1      23.664   1.946  51.041  1.00  0.00     0.044 C 
HETATM    8  C7  UNL     1      24.965   2.476  51.344  1.00  0.00     0.055 C 
HETATM    9  N2  UNL     1      24.810   3.499  50.635  1.00  0.00    -0.183 NA
HETATM   10  N3  UNL     1      25.813   4.488  50.454  1.00  0.00    -0.301 N 
HETATM   11  C16 UNL     1      26.119   4.872  49.091  1.00  0.00     0.157 A 
HETATM   12  C17 UNL     1      27.535   4.652  48.817  1.00  0.00     0.029 A 
HETATM   13  C18 UNL     1      28.593   5.300  48.405  1.00  0.00     0.139 A 
HETATM   14  O1  UNL     1      28.209   6.649  48.152  1.00  0.00    -0.335 OA
HETATM   15  C19 UNL     1      26.884   6.967  48.386  1.00  0.00     0.147 A 
HETATM   16  C20 UNL     1      25.774   6.290  48.821  1.00  0.00    -0.021 A 
HETATM   17  C21 UNL     1      24.612   7.173  48.918  1.00  0.00     0.107 C 
HETATM   18  S1  UNL     1      23.344   6.864  47.728  1.00  0.00    -0.184 SA
HETATM   19  H18 UNL     1      26.448   5.065  51.040  1.00  0.00     0.183 HD
ENDROOT
BRANCH   8  20
HETATM   20  C8  UNL     1      26.219   2.248  52.073  1.00  0.00     0.063 C 
BRANCH  20  21
HETATM   21  C9  UNL     1      25.996   2.217  53.546  1.00  0.00     0.035 C 
BRANCH  21  22
HETATM   22  C10 UNL     1      26.451   0.924  54.181  1.00  0.00     0.104 A 
HETATM   23  C11 UNL     1      26.465  -0.203  53.259  1.00  0.00    -0.001 A 
HETATM   24  C12 UNL     1      27.538  -0.994  53.064  1.00  0.00     0.006 A 
HETATM   25  C13 UNL     1      28.850  -0.848  53.740  1.00  0.00    -0.047 A 
HETATM   26  C14 UNL     1      29.850  -1.833  53.354  1.00  0.00     0.049 C 
HETATM   27  C15 UNL     1      28.781   0.176  54.554  1.00  0.00     0.090 A 
HETATM   28  N1  UNL     1      27.731   1.059  54.831  1.00  0.00    -0.391 N 
HETATM   29  H17 UNL     1      27.923   1.816  55.535  1.00  0.00     0.159 HD
ENDBRANCH  21  22
ENDBRANCH  20  21
ENDBRANCH   8  20
TORSDOF 3
ENDMDL
MODEL 2
REMARK VINA RESULT:      -9.2      1.602      1.697
REMARK  3 active torsions:
REMARK  status: ('A' for Active; 'I' for Inactive)
REMARK    1  A    between atoms: C7_8  and  C8_9 
REMARK    2  A    between atoms: C8_9  and  C9_10 
REMARK    3  A    between atoms: C9_10  and  C10_11 
ROOT
HETATM    1  C1  UNL     1      20.665   7.316  49.878  1.00  0.00     0.108 A 
HETATM    2  C2  UNL     1      21.210   6.247  50.391  1.00  0.00    -0.043 A 
HETATM    3  C3  UNL     1      20.640   4.911  50.783  1.00  0.00     0.017 C 
HETATM    4  C4  UNL     1      21.681   4.149  51.182  1.00  0.00     0.073 C 
HETATM    5  C5  UNL     1      21.349   2.757  51.646  1.00  0.00    -0.004 C 
HETATM    6 BR1  UNL     1      20.014   1.358  52.037  1.00  0.00    -0.055 Br
HETATM    7  C6  UNL     1      22.393   1.986  51.993  1.00  0.00     0.044 C 
HETATM    8  C7  UNL     1      23.811   2.224  51.997  1.00  0.00     0.055 C 
HETATM    9  N2  UNL     1      23.700   3.415  51.620  1.00  0.00    -0.183 NA
HETATM   10  N3  UNL     1      24.810   4.265  51.372  1.00  0.00    -0.301 N 
HETATM   11  C16 UNL     1      24.829   4.968  50.105  1.00  0.00     0.157 A 
HETATM   12  C17 UNL     1      26.046   4.638  49.371  1.00  0.00     0.029 A 
HETATM   13  C18 UNL     1      27.075   5.222  48.814  1.00  0.00     0.139 A 
HETATM   14  O1  UNL     1      26.936   6.627  49.003  1.00  0.00    -0.335 OA
HETATM   15  C19 UNL     1      25.815   7.049  49.695  1.00  0.00     0.147 A 
HETATM   16  C20 UNL     1      24.737   6.439  50.282  1.00  0.00    -0.021 A 
HETATM   17  C21 UNL     1      23.856   7.412  50.927  1.00  0.00     0.107 C 
HETATM   18  S1  UNL     1      22.288   7.628  50.142  1.00  0.00    -0.184 SA
HETATM   19  H18 UNL     1      25.682   4.562  51.852  1.00  0.00     0.183 HD
ENDROOT
BRANCH   8  20
HETATM   20  C8  UNL     1      25.131   1.629  52.238  1.00  0.00     0.063 C 
BRANCH  20  21
HETATM   21  C9  UNL     1      25.527   1.739  53.670  1.00  0.00     0.035 C 
BRANCH  21  22
HETATM   22  C10 UNL     1      26.143   0.469  54.208  1.00  0.00     0.104 A 
HETATM   23  C11 UNL     1      26.410  -0.528  53.179  1.00  0.00    -0.001 A 
HETATM   24  C12 UNL     1      27.610  -1.113  53.002  1.00  0.00     0.006 A 
HETATM   25  C13 UNL     1      28.827  -0.843  53.804  1.00  0.00    -0.047 A 
HETATM   26  C14 UNL     1      30.003  -1.607  53.411  1.00  0.00     0.049 C 
HETATM   27  C15 UNL     1      28.531   0.057  54.710  1.00  0.00     0.090 A 
HETATM   28  N1  UNL     1      27.332   0.727  54.981  1.00  0.00    -0.391 N 
HETATM   29  H17 UNL     1      27.345   1.418  55.772  1.00  0.00     0.159 HD
ENDBRANCH  21  22
ENDBRANCH  20  21
ENDBRANCH   8  20
TORSDOF 3
ENDMDL
MODEL 3
REMARK VINA RESULT:      -9.1      3.236      6.984
REMARK  3 active torsions:
REMARK  status: ('A' for Active; 'I' for Inactive)
REMARK    1  A    between atoms: C7_8  and  C8_9 
REMARK    2  A    between atoms: C8_9  and  C9_10 
REMARK    3  A    between atoms: C9_10  and  C10_11 
ROOT
HETATM    1  C1  UNL     1      22.895  -0.623  54.017  1.00  0.00     0.108 A 
HETATM    2  C2  UNL     1      23.338   0.182  53.090  1.00  0.00    -0.043 A 
HETATM    3  C3  UNL     1      22.643   1.174  52.197  1.00  0.00     0.017 C 
HETATM    4  C4  UNL     1      23.608   1.795  51.485  1.00  0.00     0.073 C 
HETATM    5  C5  UNL     1      23.146   2.830  50.497  1.00  0.00    -0.004 C 
HETATM    6 BR1  UNL     1      21.684   3.810  49.605  1.00  0.00    -0.055 Br
HETATM    7  C6  UNL     1      24.113   3.481  49.828  1.00  0.00     0.044 C 
HETATM    8  C7  UNL     1      25.547   3.395  49.877  1.00  0.00     0.055 C 
HETATM    9  N2  UNL     1      25.550   2.464  50.717  1.00  0.00    -0.183 NA
HETATM   10  N3  UNL     1      26.735   1.900  51.259  1.00  0.00    -0.301 N 
HETATM   11  C16 UNL     1      26.811   1.793  52.702  1.00  0.00     0.157 A 
HETATM   12  C17 UNL     1      27.983   2.509  53.194  1.00  0.00     0.029 A 
HETATM   13  C18 UNL     1      29.059   2.307  53.909  1.00  0.00     0.139 A 
HETATM   14  O1  UNL     1      29.060   0.944  54.324  1.00  0.00    -0.335 OA
HETATM   15  C19 UNL     1      27.992   0.172  53.905  1.00  0.00     0.147 A 
HETATM   16  C20 UNL     1      26.865   0.380  53.154  1.00  0.00    -0.021 A 
HETATM   17  C21 UNL     1      26.089  -0.851  52.999  1.00  0.00     0.107 C 
HETATM   18  S1  UNL     1      24.543  -0.865  53.854  1.00  0.00    -0.184 SA
HETATM   19  H18 UNL     1      27.636   1.513  50.917  1.00  0.00     0.183 HD
ENDROOT
BRANCH   8  20
HETATM   20  C8  UNL     1      26.805   3.956  49.369  1.00  0.00     0.063 C 
BRANCH  20  21
HETATM   21  C9  UNL     1      26.702   5.428  49.162  1.00  0.00     0.035 C 
BRANCH  21  22
HETATM   22  C10 UNL     1      27.731   5.957  48.192  1.00  0.00     0.104 A 
HETATM   23  C11 UNL     1      27.966   7.389  48.317  1.00  0.00    -0.001 A 
HETATM   24  C12 UNL     1      29.187   7.934  48.480  1.00  0.00     0.006 A 
HETATM   25  C13 UNL     1      30.462   7.181  48.559  1.00  0.00    -0.047 A 
HETATM   26  C14 UNL     1      31.650   8.004  48.739  1.00  0.00     0.049 C 
HETATM   27  C15 UNL     1      30.194   5.904  48.441  1.00  0.00     0.090 A 
HETATM   28  N1  UNL     1      28.976   5.234  48.272  1.00  0.00    -0.391 N 
HETATM   29  H17 UNL     1      29.019   4.186  48.203  1.00  0.00     0.159 HD
ENDBRANCH  21  22
ENDBRANCH  20  21
ENDBRANCH   8  20
TORSDOF 3
ENDMDL
MODEL 4
REMARK VINA RESULT:      -8.9      3.652      7.269
REMARK  3 active torsions:
REMARK  status: ('A' for Active; 'I' for Inactive)
REMARK    1  A    between atoms: C7_8  and  C8_9 
REMARK    2  A    between atoms: C8_9  and  C9_10 
REMARK    3  A    between atoms: C9_10  and  C10_11 
ROOT
HETATM    1  C1  UNL     1      21.827  -1.059  54.725  1.00  0.00     0.108 A 
HETATM    2  C2  UNL     1      22.713  -0.404  54.025  1.00  0.00    -0.043 A 
HETATM    3  C3  UNL     1      24.211  -0.513  53.935  1.00  0.00     0.017 C 
HETATM    4  C4  UNL     1      24.605   0.359  52.982  1.00  0.00     0.073 C 
HETATM    5  C5  UNL     1      26.084   0.441  52.725  1.00  0.00    -0.004 C 
HETATM    6 BR1  UNL     1      27.928  -0.117  53.152  1.00  0.00    -0.055 Br
HETATM    7  C6  UNL     1      26.467   1.272  51.741  1.00  0.00     0.044 C 
HETATM    8  C7  UNL     1      25.723   2.115  50.844  1.00  0.00     0.055 C 
HETATM    9  N2  UNL     1      24.615   1.832  51.358  1.00  0.00    -0.183 NA
HETATM   10  N3  UNL     1      23.377   2.335  50.879  1.00  0.00    -0.301 N 
HETATM   11  C16 UNL     1      22.326   1.369  50.632  1.00  0.00     0.157 A 
HETATM   12  C17 UNL     1      21.887   1.455  49.243  1.00  0.00     0.029 A 
HETATM   13  C18 UNL     1      20.800   1.642  48.541  1.00  0.00     0.139 A 
HETATM   14  O1  UNL     1      19.716   1.817  49.450  1.00  0.00    -0.335 OA
HETATM   15  C19 UNL     1      20.025   1.760  50.796  1.00  0.00     0.147 A 
HETATM   16  C20 UNL     1      21.164   1.567  51.534  1.00  0.00    -0.021 A 
HETATM   17  C21 UNL     1      20.893   1.650  52.969  1.00  0.00     0.107 C 
HETATM   18  S1  UNL     1      21.033   0.119  53.841  1.00  0.00    -0.184 SA
HETATM   19  H18 UNL     1      22.958   3.252  50.628  1.00  0.00     0.183 HD
ENDROOT
BRANCH   8  20
HETATM   20  C8  UNL     1      25.813   3.032  49.702  1.00  0.00     0.063 C 
BRANCH  20  21
HETATM   21  C9  UNL     1      26.332   4.367  50.113  1.00  0.00     0.035 C 
BRANCH  21  22
HETATM   22  C10 UNL     1      25.316   5.471  49.938  1.00  0.00     0.104 A 
HETATM   23  C11 UNL     1      24.359   5.216  48.869  1.00  0.00    -0.001 A 
HETATM   24  C12 UNL     1      23.024   5.269  49.035  1.00  0.00     0.006 A 
HETATM   25  C13 UNL     1      22.325   5.587  50.305  1.00  0.00    -0.047 A 
HETATM   26  C14 UNL     1      20.871   5.579  50.223  1.00  0.00     0.049 C 
HETATM   27  C15 UNL     1      23.229   5.806  51.227  1.00  0.00     0.090 A 
HETATM   28  N1  UNL     1      24.628   5.776  51.168  1.00  0.00    -0.391 N 
HETATM   29  H17 UNL     1      25.144   5.990  52.058  1.00  0.00     0.159 HD
ENDBRANCH  21  22
ENDBRANCH  20  21
ENDBRANCH   8  20
TORSDOF 3
ENDMDL
MODEL 5
REMARK VINA RESULT:      -8.8      3.843      5.140
REMARK  3 active torsions:
REMARK  status: ('A' for Active; 'I' for Inactive)
REMARK    1  A    between atoms: C7_8  and  C8_9 
REMARK    2  A    between atoms: C8_9  and  C9_10 
REMARK    3  A    between atoms: C9_10  and  C10_11 
ROOT
HETATM    1  C1  UNL     1      17.332  -0.150  51.065  1.00  0.00     0.108 A 
HETATM    2  C2  UNL     1      18.528   0.188  51.465  1.00  0.00    -0.043 A 
HETATM    3  C3  UNL     1      19.438  -0.380  52.519  1.00  0.00     0.017 C 
HETATM    4  C4  UNL     1      20.595   0.312  52.444  1.00  0.00     0.073 C 
HETATM    5  C5  UNL     1      21.666  -0.070  53.428  1.00  0.00    -0.004 C 
HETATM    6 BR1  UNL     1      22.275  -1.165  54.953  1.00  0.00    -0.055 Br
HETATM    7  C6  UNL     1      22.833   0.586  53.316  1.00  0.00     0.044 C 
HETATM    8  C7  UNL     1      23.285   1.603  52.406  1.00  0.00     0.055 C 
HETATM    9  N2  UNL     1      22.184   1.684  51.812  1.00  0.00    -0.183 NA
HETATM   10  N3  UNL     1      21.953   2.539  50.702  1.00  0.00    -0.301 N 
HETATM   11  C16 UNL     1      21.352   1.941  49.527  1.00  0.00     0.157 A 
HETATM   12  C17 UNL     1      22.219   2.137  48.369  1.00  0.00     0.029 A 
HETATM   13  C18 UNL     1      22.189   2.640  47.163  1.00  0.00     0.139 A 
HETATM   14  O1  UNL     1      20.880   3.155  46.936  1.00  0.00    -0.335 OA
HETATM   15  C19 UNL     1      19.978   3.026  47.976  1.00  0.00     0.147 A 
HETATM   16  C20 UNL     1      20.008   2.502  49.242  1.00  0.00    -0.021 A 
HETATM   17  C21 UNL     1      18.730   2.687  49.929  1.00  0.00     0.107 C 
HETATM   18  S1  UNL     1      17.813   1.202  50.203  1.00  0.00    -0.184 SA
HETATM   19  H18 UNL     1      22.095   3.536  50.448  1.00  0.00     0.183 HD
ENDROOT
BRANCH   8  20
HETATM   20  C8  UNL     1      24.427   2.430  51.996  1.00  0.00     0.063 C 
BRANCH  20  21
HETATM   21  C9  UNL     1      25.623   1.596  51.689  1.00  0.00     0.035 C 
BRANCH  21  22
HETATM   22  C10 UNL     1      26.214   0.944  52.916  1.00  0.00     0.104 A 
HETATM   23  C11 UNL     1      26.510  -0.471  52.737  1.00  0.00    -0.001 A 
HETATM   24  C12 UNL     1      27.711  -1.020  52.996  1.00  0.00     0.006 A 
HETATM   25  C13 UNL     1      28.903  -0.291  53.493  1.00  0.00    -0.047 A 
HETATM   26  C14 UNL     1      30.087  -1.115  53.694  1.00  0.00     0.049 C 
HETATM   27  C15 UNL     1      28.582   0.971  53.636  1.00  0.00     0.090 A 
HETATM   28  N1  UNL     1      27.378   1.645  53.397  1.00  0.00    -0.391 N 
HETATM   29  H17 UNL     1      27.368   2.678  53.590  1.00  0.00     0.159 HD
ENDBRANCH  21  22
ENDBRANCH  20  21
ENDBRANCH   8  20
TORSDOF 3
ENDMDL
MODEL 6
REMARK VINA RESULT:      -8.7      3.504      6.867
REMARK  3 active torsions:
REMARK  status: ('A' for Active; 'I' for Inactive)
REMARK    1  A    between atoms: C7_8  and  C8_9 
REMARK    2  A    between atoms: C8_9  and  C9_10 
REMARK    3  A    between atoms: C9_10  and  C10_11 
ROOT
HETATM    1  C1  UNL     1      20.456  -1.258  54.300  1.00  0.00     0.108 A 
HETATM    2  C2  UNL     1      20.820  -0.541  53.272  1.00  0.00    -0.043 A 
HETATM    3  C3  UNL     1      20.031   0.200  52.227  1.00  0.00     0.017 C 
HETATM    4  C4  UNL     1      20.929   0.843  51.449  1.00  0.00     0.073 C 
HETATM    5  C5  UNL     1      20.368   1.646  50.308  1.00  0.00    -0.004 C 
HETATM    6 BR1  UNL     1      18.821   2.264  49.249  1.00  0.00    -0.055 Br
HETATM    7  C6  UNL     1      21.261   2.325  49.569  1.00  0.00     0.044 C 
HETATM    8  C7  UNL     1      22.690   2.456  49.659  1.00  0.00     0.055 C 
HETATM    9  N2  UNL     1      22.788   1.667  50.629  1.00  0.00    -0.183 NA
HETATM   10  N3  UNL     1      24.016   1.366  51.274  1.00  0.00    -0.301 N 
HETATM   11  C16 UNL     1      24.047   1.482  52.718  1.00  0.00     0.157 A 
HETATM   12  C17 UNL     1      25.085   2.425  53.120  1.00  0.00     0.029 A 
HETATM   13  C18 UNL     1      26.148   2.487  53.879  1.00  0.00     0.139 A 
HETATM   14  O1  UNL     1      26.323   1.213  54.494  1.00  0.00    -0.335 OA
HETATM   15  C19 UNL     1      25.392   0.242  54.174  1.00  0.00     0.147 A 
HETATM   16  C20 UNL     1      24.280   0.173  53.377  1.00  0.00    -0.021 A 
HETATM   17  C21 UNL     1      23.691  -1.166  53.393  1.00  0.00     0.107 C 
HETATM   18  S1  UNL     1      22.127  -1.279  54.208  1.00  0.00    -0.184 SA
HETATM   19  H18 UNL     1      24.977   1.068  51.012  1.00  0.00     0.183 HD
ENDROOT
BRANCH   8  20
HETATM   20  C8  UNL     1      23.877   3.113  49.098  1.00  0.00     0.063 C 
BRANCH  20  21
HETATM   21  C9  UNL     1      23.933   4.553  49.476  1.00  0.00     0.035 C 
BRANCH  21  22
HETATM   22  C10 UNL     1      25.305   4.986  49.937  1.00  0.00     0.104 A 
HETATM   23  C11 UNL     1      26.386   4.194  49.366  1.00  0.00    -0.001 A 
HETATM   24  C12 UNL     1      27.444   4.728  48.726  1.00  0.00     0.006 A 
HETATM   25  C13 UNL     1      27.674   6.176  48.501  1.00  0.00    -0.047 A 
HETATM   26  C14 UNL     1      28.897   6.496  47.779  1.00  0.00     0.049 C 
HETATM   27  C15 UNL     1      26.676   6.837  49.032  1.00  0.00     0.090 A 
HETATM   28  N1  UNL     1      25.536   6.391  49.711  1.00  0.00    -0.391 N 
HETATM   29  H17 UNL     1      24.867   7.128  50.047  1.00  0.00     0.159 HD
ENDBRANCH  21  22
ENDBRANCH  20  21
ENDBRANCH   8  20
TORSDOF 3
ENDMDL
MODEL 7
REMARK VINA RESULT:      -8.7      3.812      7.449
REMARK  3 active torsions:
REMARK  status: ('A' for Active; 'I' for Inactive)
REMARK    1  A    between atoms: C7_8  and  C8_9 
REMARK    2  A    between atoms: C8_9  and  C9_10 
REMARK    3  A    between atoms: C9_10  and  C10_11 
ROOT
HETATM    1  C1  UNL     1      21.855  -1.641  54.528  1.00  0.00     0.108 A 
HETATM    2  C2  UNL     1      22.675  -0.767  54.010  1.00  0.00    -0.043 A 
HETATM    3  C3  UNL     1      24.170  -0.618  54.083  1.00  0.00     0.017 C 
HETATM    4  C4  UNL     1      24.494   0.420  53.282  1.00  0.00     0.073 C 
HETATM    5  C5  UNL     1      25.953   0.775  53.208  1.00  0.00    -0.004 C 
HETATM    6 BR1  UNL     1      27.817   0.475  53.782  1.00  0.00    -0.055 Br
HETATM    7  C6  UNL     1      26.276   1.774  52.370  1.00  0.00     0.044 C 
HETATM    8  C7  UNL     1      25.485   2.591  51.490  1.00  0.00     0.055 C 
HETATM    9  N2  UNL     1      24.400   2.068  51.838  1.00  0.00    -0.183 NA
HETATM   10  N3  UNL     1      23.144   2.419  51.277  1.00  0.00    -0.301 N 
HETATM   11  C16 UNL     1      22.308   1.333  50.807  1.00  0.00     0.157 A 
HETATM   12  C17 UNL     1      21.995   1.521  49.394  1.00  0.00     0.029 A 
HETATM   13  C18 UNL     1      20.964   1.616  48.595  1.00  0.00     0.139 A 
HETATM   14  O1  UNL     1      19.785   1.495  49.387  1.00  0.00    -0.335 OA
HETATM   15  C19 UNL     1      19.969   1.320  50.746  1.00  0.00     0.147 A 
HETATM   16  C20 UNL     1      21.048   1.223  51.585  1.00  0.00    -0.021 A 
HETATM   17  C21 UNL     1      20.631   1.079  52.980  1.00  0.00     0.107 C 
HETATM   18  S1  UNL     1      20.954  -0.506  53.690  1.00  0.00    -0.184 SA
HETATM   19  H18 UNL     1      22.596   3.280  51.080  1.00  0.00     0.183 HD
ENDROOT
BRANCH   8  20
HETATM   20  C8  UNL     1      25.520   3.648  50.472  1.00  0.00     0.063 C 
BRANCH  20  21
HETATM   21  C9  UNL     1      26.841   3.698  49.783  1.00  0.00     0.035 C 
BRANCH  21  22
HETATM   22  C10 UNL     1      26.901   4.756  48.707  1.00  0.00     0.104 A 
HETATM   23  C11 UNL     1      26.130   5.951  49.022  1.00  0.00    -0.001 A 
HETATM   24  C12 UNL     1      26.638   7.197  48.987  1.00  0.00     0.006 A 
HETATM   25  C13 UNL     1      28.034   7.548  48.632  1.00  0.00    -0.047 A 
HETATM   26  C14 UNL     1      28.336   8.972  48.670  1.00  0.00     0.049 C 
HETATM   27  C15 UNL     1      28.679   6.442  48.359  1.00  0.00     0.090 A 
HETATM   28  N1  UNL     1      28.257   5.107  48.365  1.00  0.00    -0.391 N 
HETATM   29  H17 UNL     1      28.973   4.383  48.105  1.00  0.00     0.159 HD
ENDBRANCH  21  22
ENDBRANCH  20  21
ENDBRANCH   8  20
TORSDOF 3
ENDMDL
MODEL 8
REMARK VINA RESULT:      -8.5      3.662      5.465
REMARK  3 active torsions:
REMARK  status: ('A' for Active; 'I' for Inactive)
REMARK    1  A    between atoms: C7_8  and  C8_9 
REMARK    2  A    between atoms: C8_9  and  C9_10 
REMARK    3  A    between atoms: C9_10  and  C10_11 
ROOT
HETATM    1  C1  UNL     1      18.723   3.853  48.940  1.00  0.00     0.108 A 
HETATM    2  C2  UNL     1      19.959   3.580  49.256  1.00  0.00    -0.043 A 
HETATM    3  C3  UNL     1      21.242   4.344  49.072  1.00  0.00     0.017 C 
HETATM    4  C4  UNL     1      22.213   3.619  49.669  1.00  0.00     0.073 C 
HETATM    5  C5  UNL     1      23.606   4.182  49.597  1.00  0.00    -0.004 C 
HETATM    6 BR1  UNL     1      24.857   5.574  48.971  1.00  0.00    -0.055 Br
HETATM    7  C6  UNL     1      24.559   3.483  50.235  1.00  0.00     0.044 C 
HETATM    8  C7  UNL     1      24.514   2.275  51.012  1.00  0.00     0.055 C 
HETATM    9  N2  UNL     1      23.288   2.094  50.820  1.00  0.00    -0.183 NA
HETATM   10  N3  UNL     1      22.555   1.018  51.388  1.00  0.00    -0.301 N 
HETATM   11  C16 UNL     1      21.327   1.353  52.081  1.00  0.00     0.157 A 
HETATM   12  C17 UNL     1      21.387   0.876  53.459  1.00  0.00     0.029 A 
HETATM   13  C18 UNL     1      20.724   0.115  54.290  1.00  0.00     0.139 A 
HETATM   14  O1  UNL     1      19.588  -0.400  53.601  1.00  0.00    -0.335 OA
HETATM   15  C19 UNL     1      19.439  -0.013  52.282  1.00  0.00     0.147 A 
HETATM   16  C20 UNL     1      20.134   0.782  51.408  1.00  0.00    -0.021 A 
HETATM   17  C21 UNL     1      19.512   0.794  50.084  1.00  0.00     0.107 C 
HETATM   18  S1  UNL     1      18.765   2.329  49.629  1.00  0.00    -0.184 SA
HETATM   19  H18 UNL     1      22.633  -0.014  51.472  1.00  0.00     0.183 HD
ENDROOT
BRANCH   8  20
HETATM   20  C8  UNL     1      25.293   1.343  51.837  1.00  0.00     0.063 C 
BRANCH  20  21
HETATM   21  C9  UNL     1      25.148   1.646  53.288  1.00  0.00     0.035 C 
BRANCH  21  22
HETATM   22  C10 UNL     1      26.084   0.836  54.153  1.00  0.00     0.104 A 
HETATM   23  C11 UNL     1      26.400  -0.474  53.599  1.00  0.00    -0.001 A 
HETATM   24  C12 UNL     1      27.656  -0.925  53.420  1.00  0.00     0.006 A 
HETATM   25  C13 UNL     1      28.894  -0.178  53.748  1.00  0.00    -0.047 A 
HETATM   26  C14 UNL     1      30.132  -0.888  53.457  1.00  0.00     0.049 C 
HETATM   27  C15 UNL     1      28.554   0.987  54.239  1.00  0.00     0.090 A 
HETATM   28  N1  UNL     1      27.294   1.555  54.466  1.00  0.00    -0.391 N 
HETATM   29  H17 UNL     1      27.279   2.523  54.875  1.00  0.00     0.159 HD
ENDBRANCH  21  22
ENDBRANCH  20  21
ENDBRANCH   8  20
TORSDOF 3
ENDMDL
MODEL 9
REMARK VINA RESULT:      -8.4      4.529      8.372
REMARK  3 active torsions:
REMARK  status: ('A' for Active; 'I' for Inactive)
REMARK    1  A    between atoms: C7_8  and  C8_9 
REMARK    2  A    between atoms: C8_9  and  C9_10 
REMARK    3  A    between atoms: C9_10  and  C10_11 
ROOT
HETATM    1  C1  UNL     1      27.434  -1.100  52.695  1.00  0.00     0.108 A 
HETATM    2  C2  UNL     1      26.630  -0.091  52.496  1.00  0.00    -0.043 A 
HETATM    3  C3  UNL     1      26.668   1.053  51.519  1.00  0.00     0.017 C 
HETATM    4  C4  UNL     1      25.530   1.756  51.703  1.00  0.00     0.073 C 
HETATM    5  C5  UNL     1      25.352   2.974  50.840  1.00  0.00    -0.004 C 
HETATM    6 BR1  UNL     1      26.036   4.206  49.457  1.00  0.00    -0.055 Br
HETATM    7  C6  UNL     1      24.195   3.640  50.990  1.00  0.00     0.044 C 
HETATM    8  C7  UNL     1      23.049   3.409  51.826  1.00  0.00     0.055 C 
HETATM    9  N2  UNL     1      23.552   2.409  52.390  1.00  0.00    -0.183 NA
HETATM   10  N3  UNL     1      22.873   1.632  53.365  1.00  0.00    -0.301 N 
HETATM   11  C16 UNL     1      22.851   0.197  53.164  1.00  0.00     0.157 A 
HETATM   12  C17 UNL     1      21.473  -0.278  53.109  1.00  0.00     0.029 A 
HETATM   13  C18 UNL     1      20.681  -1.139  53.693  1.00  0.00     0.139 A 
HETATM   14  O1  UNL     1      21.431  -1.810  54.701  1.00  0.00    -0.335 OA
HETATM   15  C19 UNL     1      22.753  -1.429  54.842  1.00  0.00     0.147 A 
HETATM   16  C20 UNL     1      23.584  -0.526  54.234  1.00  0.00    -0.021 A 
HETATM   17  C21 UNL     1      24.914  -0.526  54.843  1.00  0.00     0.107 C 
HETATM   18  S1  UNL     1      26.198  -1.180  53.822  1.00  0.00    -0.184 SA
HETATM   19  H18 UNL     1      22.341   1.784  54.244  1.00  0.00     0.183 HD
ENDROOT
BRANCH   8  20
HETATM   20  C8  UNL     1      21.697   3.867  52.170  1.00  0.00     0.063 C 
BRANCH  20  21
HETATM   21  C9  UNL     1      21.067   4.606  51.040  1.00  0.00     0.035 C 
BRANCH  21  22
HETATM   22  C10 UNL     1      19.931   3.842  50.401  1.00  0.00     0.104 A 
HETATM   23  C11 UNL     1      20.337   2.562  49.836  1.00  0.00    -0.001 A 
HETATM   24  C12 UNL     1      19.738   1.393  50.129  1.00  0.00     0.006 A 
HETATM   25  C13 UNL     1      18.593   1.220  51.057  1.00  0.00    -0.047 A 
HETATM   26  C14 UNL     1      18.126  -0.151  51.205  1.00  0.00     0.049 C 
HETATM   27  C15 UNL     1      18.271   2.397  51.534  1.00  0.00     0.090 A 
HETATM   28  N1  UNL     1      18.820   3.664  51.303  1.00  0.00    -0.391 N 
HETATM   29  H17 UNL     1      18.381   4.470  51.814  1.00  0.00     0.159 HD
ENDBRANCH  21  22
ENDBRANCH  20  21
ENDBRANCH   8  20
TORSDOF 3
ENDMDL
