MODEL 1
REMARK VINA RESULT:      -7.6      0.000      0.000
REMARK  8 active torsions:
REMARK  status: ('A' for Active; 'I' for Inactive)
REMARK    1  A    between atoms: C2_2  and  C3_3 
REMARK    2  A    between atoms: C2_2  and  N3_13 
REMARK    3  A    between atoms: C4_4  and  C5_5 
REMARK    4  A    between atoms: C5_5  and  C6_6 
REMARK    5  A    between atoms: C6_6  and  N1_7 
REMARK    6  A    between atoms: N3_13  and  C11_14 
REMARK    7  A    between atoms: C12_15  and  C13_16 
REMARK    8  A    between atoms: C14_17  and  C15_19 
ROOT
HETATM    1  N3  UNL     1      19.922  -1.261  54.073  1.00  0.00    -0.384 N 
HETATM    2  H18 UNL     1      19.438  -1.835  54.824  1.00  0.00     0.160 HD
ENDROOT
BRANCH   1   3
HETATM    3  C2  UNL     1      19.098  -0.396  53.217  1.00  0.00     0.156 C 
HETATM    4  C1  UNL     1      17.889  -1.198  52.819  1.00  0.00     0.046 C 
BRANCH   3   5
HETATM    5  C3  UNL     1      19.896   0.037  52.062  1.00  0.00    -0.082 C 
HETATM    6  C4  UNL     1      20.539   0.409  51.108  1.00  0.00    -0.103 C 
BRANCH   6   7
HETATM    7  C5  UNL     1      21.312   0.887  49.931  1.00  0.00     0.124 C 
BRANCH   7   8
HETATM    8  C6  UNL     1      21.033   2.339  49.661  1.00  0.00     0.286 C 
BRANCH   8   9
HETATM    9  N1  UNL     1      21.665   3.225  50.581  1.00  0.00     0.119 N 
HETATM   10  C7  UNL     1      20.813   4.115  51.298  1.00  0.00     0.304 C 
HETATM   11  C8  UNL     1      21.285   5.479  50.843  1.00  0.00     0.304 C 
HETATM   12  N2  UNL     1      22.714   5.271  50.703  1.00  0.00     0.114 N 
HETATM   13  C9  UNL     1      23.262   5.048  52.017  1.00  0.00     0.312 C 
HETATM   14  C10 UNL     1      22.719   4.007  49.971  1.00  0.00     0.542 C 
ENDBRANCH   8   9
ENDBRANCH   7   8
ENDBRANCH   6   7
ENDBRANCH   3   5
ENDBRANCH   1   3
BRANCH   1  15
HETATM   15  C11 UNL     1      21.322  -1.487  54.084  1.00  0.00     0.084 C 
HETATM   16  C12 UNL     1      22.239  -0.662  54.572  1.00  0.00     0.018 C 
BRANCH  16  17
HETATM   17  C13 UNL     1      23.670  -0.929  54.564  1.00  0.00     0.021 C 
HETATM   18  C14 UNL     1      24.479  -0.143  53.880  1.00  0.00     0.021 C 
HETATM   19 BR1  UNL     1      23.674   1.305  52.942  1.00  0.00    -0.050 Br
BRANCH  18  20
HETATM   20  C15 UNL     1      25.908  -0.343  53.819  1.00  0.00    -0.019 A 
HETATM   21  C16 UNL     1      26.795   0.330  54.630  1.00  0.00     0.016 A 
HETATM   22  C17 UNL     1      28.162   0.158  54.593  1.00  0.00     0.043 A 
HETATM   23  C18 UNL     1      28.679  -0.745  53.688  1.00  0.00     0.116 A 
HETATM   24  F1  UNL     1      30.022  -0.946  53.617  1.00  0.00    -0.206 F 
HETATM   25  C19 UNL     1      27.820  -1.449  52.847  1.00  0.00     0.043 A 
HETATM   26  C20 UNL     1      26.448  -1.232  52.930  1.00  0.00     0.016 A 
ENDBRANCH  18  20
ENDBRANCH  16  17
ENDBRANCH   1  15
TORSDOF 8
ENDMDL
MODEL 2
REMARK VINA RESULT:      -7.1      3.705      6.290
REMARK  8 active torsions:
REMARK  status: ('A' for Active; 'I' for Inactive)
REMARK    1  A    between atoms: C2_2  and  C3_3 
REMARK    2  A    between atoms: C2_2  and  N3_13 
REMARK    3  A    between atoms: C4_4  and  C5_5 
REMARK    4  A    between atoms: C5_5  and  C6_6 
REMARK    5  A    between atoms: C6_6  and  N1_7 
REMARK    6  A    between atoms: N3_13  and  C11_14 
REMARK    7  A    between atoms: C12_15  and  C13_16 
REMARK    8  A    between atoms: C14_17  and  C15_19 
ROOT
HETATM    1  N3  UNL     1      21.278   0.240  51.807  1.00  0.00    -0.384 N 
HETATM    2  H18 UNL     1      20.336   0.254  51.320  1.00  0.00     0.160 HD
ENDROOT
BRANCH   1   3
HETATM    3  C2  UNL     1      21.377  -0.423  53.115  1.00  0.00     0.156 C 
HETATM    4  C1  UNL     1      20.660   0.453  54.106  1.00  0.00     0.046 C 
BRANCH   3   5
HETATM    5  C3  UNL     1      22.794  -0.615  53.451  1.00  0.00    -0.082 C 
HETATM    6  C4  UNL     1      23.955  -0.789  53.740  1.00  0.00    -0.103 C 
BRANCH   6   7
HETATM    7  C5  UNL     1      25.376  -1.022  54.112  1.00  0.00     0.124 C 
BRANCH   7   8
HETATM    8  C6  UNL     1      25.814  -0.062  55.181  1.00  0.00     0.286 C 
BRANCH   8   9
HETATM    9  N1  UNL     1      26.746   0.916  54.726  1.00  0.00     0.119 N 
HETATM   10  C7  UNL     1      26.223   1.971  53.924  1.00  0.00     0.304 C 
HETATM   11  C8  UNL     1      26.940   1.786  52.605  1.00  0.00     0.304 C 
HETATM   12  N2  UNL     1      28.252   1.341  53.037  1.00  0.00     0.114 N 
HETATM   13  C9  UNL     1      28.892   2.438  53.718  1.00  0.00     0.312 C 
HETATM   14  C10 UNL     1      27.870   0.334  54.023  1.00  0.00     0.542 C 
ENDBRANCH   8   9
ENDBRANCH   7   8
ENDBRANCH   6   7
ENDBRANCH   3   5
ENDBRANCH   1   3
BRANCH   1  15
HETATM   15  C11 UNL     1      22.262   0.904  51.032  1.00  0.00     0.084 C 
HETATM   16  C12 UNL     1      22.338   2.212  50.827  1.00  0.00     0.018 C 
BRANCH  16  17
HETATM   17  C13 UNL     1      23.365   2.858  50.021  1.00  0.00     0.021 C 
HETATM   18  C14 UNL     1      24.102   3.818  50.547  1.00  0.00     0.021 C 
HETATM   19 BR1  UNL     1      23.742   4.279  52.358  1.00  0.00    -0.050 Br
BRANCH  18  20
HETATM   20  C15 UNL     1      25.137   4.509  49.813  1.00  0.00    -0.019 A 
HETATM   21  C16 UNL     1      24.981   5.784  49.316  1.00  0.00     0.016 A 
HETATM   22  C17 UNL     1      25.951   6.466  48.614  1.00  0.00     0.043 A 
HETATM   23  C18 UNL     1      27.157   5.834  48.392  1.00  0.00     0.116 A 
HETATM   24  F1  UNL     1      28.143   6.468  47.703  1.00  0.00    -0.206 F 
HETATM   25  C19 UNL     1      27.361   4.543  48.876  1.00  0.00     0.043 A 
HETATM   26  C20 UNL     1      26.343   3.905  49.579  1.00  0.00     0.016 A 
ENDBRANCH  18  20
ENDBRANCH  16  17
ENDBRANCH   1  15
TORSDOF 8
ENDMDL
MODEL 3
REMARK VINA RESULT:      -7.1      1.693      2.570
REMARK  8 active torsions:
REMARK  status: ('A' for Active; 'I' for Inactive)
REMARK    1  A    between atoms: C2_2  and  C3_3 
REMARK    2  A    between atoms: C2_2  and  N3_13 
REMARK    3  A    between atoms: C4_4  and  C5_5 
REMARK    4  A    between atoms: C5_5  and  C6_6 
REMARK    5  A    between atoms: C6_6  and  N1_7 
REMARK    6  A    between atoms: N3_13  and  C11_14 
REMARK    7  A    between atoms: C12_15  and  C13_16 
REMARK    8  A    between atoms: C14_17  and  C15_19 
ROOT
HETATM    1  N3  UNL     1      20.719   0.192  52.159  1.00  0.00    -0.384 N 
HETATM    2  H18 UNL     1      20.033  -0.402  52.709  1.00  0.00     0.160 HD
ENDROOT
BRANCH   1   3
HETATM    3  C2  UNL     1      20.192   1.309  51.362  1.00  0.00     0.156 C 
HETATM    4  C1  UNL     1      18.995   0.787  50.614  1.00  0.00     0.046 C 
BRANCH   3   5
HETATM    5  C3  UNL     1      21.248   1.801  50.468  1.00  0.00    -0.082 C 
HETATM    6  C4  UNL     1      22.125   2.219  49.747  1.00  0.00    -0.103 C 
BRANCH   6   7
HETATM    7  C5  UNL     1      23.211   2.748  48.880  1.00  0.00     0.124 C 
BRANCH   7   8
HETATM    8  C6  UNL     1      24.221   3.509  49.693  1.00  0.00     0.286 C 
BRANCH   8   9
HETATM    9  N1  UNL     1      23.930   4.899  49.811  1.00  0.00     0.119 N 
HETATM   10  C7  UNL     1      24.751   5.790  49.060  1.00  0.00     0.304 C 
HETATM   11  C8  UNL     1      25.423   6.620  50.132  1.00  0.00     0.304 C 
HETATM   12  N2  UNL     1      24.370   6.740  51.123  1.00  0.00     0.114 N 
HETATM   13  C9  UNL     1      23.316   7.546  50.558  1.00  0.00     0.312 C 
HETATM   14  C10 UNL     1      23.918   5.353  51.186  1.00  0.00     0.542 C 
ENDBRANCH   8   9
ENDBRANCH   7   8
ENDBRANCH   6   7
ENDBRANCH   3   5
ENDBRANCH   1   3
BRANCH   1  15
HETATM   15  C11 UNL     1      22.048  -0.268  52.339  1.00  0.00     0.084 C 
HETATM   16  C12 UNL     1      22.830  -0.001  53.377  1.00  0.00     0.018 C 
BRANCH  16  17
HETATM   17  C13 UNL     1      24.192  -0.492  53.526  1.00  0.00     0.021 C 
HETATM   18  C14 UNL     1      25.203   0.353  53.464  1.00  0.00     0.021 C 
HETATM   19 BR1  UNL     1      24.771   2.185  53.178  1.00  0.00    -0.050 Br
BRANCH  18  20
HETATM   20  C15 UNL     1      26.582  -0.056  53.599  1.00  0.00    -0.019 A 
HETATM   21  C16 UNL     1      27.132  -1.091  52.875  1.00  0.00     0.016 A 
HETATM   22  C17 UNL     1      28.443  -1.501  52.984  1.00  0.00     0.043 A 
HETATM   23  C18 UNL     1      29.260  -0.835  53.873  1.00  0.00     0.116 A 
HETATM   24  F1  UNL     1      30.561  -1.207  54.013  1.00  0.00    -0.206 F 
HETATM   25  C19 UNL     1      28.748   0.218  54.627  1.00  0.00     0.043 A 
HETATM   26  C20 UNL     1      27.415   0.587  54.474  1.00  0.00     0.016 A 
ENDBRANCH  18  20
ENDBRANCH  16  17
ENDBRANCH   1  15
TORSDOF 8
ENDMDL
MODEL 4
REMARK VINA RESULT:      -7.1      4.770      7.571
REMARK  8 active torsions:
REMARK  status: ('A' for Active; 'I' for Inactive)
REMARK    1  A    between atoms: C2_2  and  C3_3 
REMARK    2  A    between atoms: C2_2  and  N3_13 
REMARK    3  A    between atoms: C4_4  and  C5_5 
REMARK    4  A    between atoms: C5_5  and  C6_6 
REMARK    5  A    between atoms: C6_6  and  N1_7 
REMARK    6  A    between atoms: N3_13  and  C11_14 
REMARK    7  A    between atoms: C12_15  and  C13_16 
REMARK    8  A    between atoms: C14_17  and  C15_19 
ROOT
HETATM    1  N3  UNL     1      22.693   3.220  51.928  1.00  0.00    -0.384 N 
HETATM    2  H18 UNL     1      22.107   4.018  52.312  1.00  0.00     0.160 HD
ENDROOT
BRANCH   1   3
HETATM    3  C2  UNL     1      22.134   1.861  51.973  1.00  0.00     0.156 C 
HETATM    4  C1  UNL     1      20.760   1.972  52.576  1.00  0.00     0.046 C 
BRANCH   3   5
HETATM    5  C3  UNL     1      23.029   1.000  52.757  1.00  0.00    -0.082 C 
HETATM    6  C4  UNL     1      23.771   0.279  53.385  1.00  0.00    -0.103 C 
BRANCH   6   7
HETATM    7  C5  UNL     1      24.689  -0.618  54.134  1.00  0.00     0.124 C 
BRANCH   7   8
HETATM    8  C6  UNL     1      25.866  -1.010  53.285  1.00  0.00     0.286 C 
BRANCH   8   9
HETATM    9  N1  UNL     1      26.982  -0.133  53.414  1.00  0.00     0.119 N 
HETATM   10  C7  UNL     1      28.224  -0.599  52.894  1.00  0.00     0.304 C 
HETATM   11  C8  UNL     1      29.106  -0.662  54.121  1.00  0.00     0.304 C 
HETATM   12  N2  UNL     1      28.646   0.485  54.881  1.00  0.00     0.114 N 
HETATM   13  C9  UNL     1      29.011   1.675  54.156  1.00  0.00     0.312 C 
HETATM   14  C10 UNL     1      27.201   0.297  54.779  1.00  0.00     0.542 C 
ENDBRANCH   8   9
ENDBRANCH   7   8
ENDBRANCH   6   7
ENDBRANCH   3   5
ENDBRANCH   1   3
BRANCH   1  15
HETATM   15  C11 UNL     1      23.939   3.691  51.443  1.00  0.00     0.084 C 
HETATM   16  C12 UNL     1      24.370   3.602  50.192  1.00  0.00     0.018 C 
BRANCH  16  17
HETATM   17  C13 UNL     1      25.659   4.098  49.731  1.00  0.00     0.021 C 
HETATM   18  C14 UNL     1      25.719   5.213  49.029  1.00  0.00     0.021 C 
HETATM   19 BR1  UNL     1      24.067   6.091  48.676  1.00  0.00    -0.050 Br
BRANCH  18  20
HETATM   20  C15 UNL     1      26.957   5.767  48.533  1.00  0.00    -0.019 A 
HETATM   21  C16 UNL     1      28.152   5.083  48.566  1.00  0.00     0.016 A 
HETATM   22  C17 UNL     1      29.347   5.588  48.100  1.00  0.00     0.043 A 
HETATM   23  C18 UNL     1      29.350   6.860  47.566  1.00  0.00     0.116 A 
HETATM   24  F1  UNL     1      30.506   7.398  47.095  1.00  0.00    -0.206 F 
HETATM   25  C19 UNL     1      28.165   7.590  47.512  1.00  0.00     0.043 A 
HETATM   26  C20 UNL     1      26.989   7.027  47.999  1.00  0.00     0.016 A 
ENDBRANCH  18  20
ENDBRANCH  16  17
ENDBRANCH   1  15
TORSDOF 8
ENDMDL
MODEL 5
REMARK VINA RESULT:      -7.0      1.928      4.925
REMARK  8 active torsions:
REMARK  status: ('A' for Active; 'I' for Inactive)
REMARK    1  A    between atoms: C2_2  and  C3_3 
REMARK    2  A    between atoms: C2_2  and  N3_13 
REMARK    3  A    between atoms: C4_4  and  C5_5 
REMARK    4  A    between atoms: C5_5  and  C6_6 
REMARK    5  A    between atoms: C6_6  and  N1_7 
REMARK    6  A    between atoms: N3_13  and  C11_14 
REMARK    7  A    between atoms: C12_15  and  C13_16 
REMARK    8  A    between atoms: C14_17  and  C15_19 
ROOT
HETATM    1  N3  UNL     1      24.069   4.593  48.954  1.00  0.00    -0.384 N 
HETATM    2  H18 UNL     1      24.353   5.604  49.113  1.00  0.00     0.160 HD
ENDROOT
BRANCH   1   3
HETATM    3  C2  UNL     1      22.758   4.324  48.347  1.00  0.00     0.156 C 
HETATM    4  C1  UNL     1      21.857   5.467  48.727  1.00  0.00     0.046 C 
BRANCH   3   5
HETATM    5  C3  UNL     1      22.263   3.028  48.829  1.00  0.00    -0.082 C 
HETATM    6  C4  UNL     1      21.835   1.966  49.219  1.00  0.00    -0.103 C 
BRANCH   6   7
HETATM    7  C5  UNL     1      21.286   0.667  49.689  1.00  0.00     0.124 C 
BRANCH   7   8
HETATM    8  C6  UNL     1      20.405   0.862  50.892  1.00  0.00     0.286 C 
BRANCH   8   9
HETATM    9  N1  UNL     1      20.697  -0.028  51.966  1.00  0.00     0.119 N 
HETATM   10  C7  UNL     1      19.797  -0.013  53.071  1.00  0.00     0.304 C 
HETATM   11  C8  UNL     1      20.674   0.437  54.218  1.00  0.00     0.304 C 
HETATM   12  N2  UNL     1      21.938  -0.197  53.898  1.00  0.00     0.114 N 
HETATM   13  C9  UNL     1      21.767  -1.622  54.028  1.00  0.00     0.312 C 
HETATM   14  C10 UNL     1      22.041   0.136  52.480  1.00  0.00     0.542 C 
ENDBRANCH   8   9
ENDBRANCH   7   8
ENDBRANCH   6   7
ENDBRANCH   3   5
ENDBRANCH   1   3
BRANCH   1  15
HETATM   15  C11 UNL     1      25.084   3.705  49.393  1.00  0.00     0.084 C 
HETATM   16  C12 UNL     1      25.444   3.497  50.653  1.00  0.00     0.018 C 
BRANCH  16  17
HETATM   17  C13 UNL     1      26.493   2.575  51.064  1.00  0.00     0.021 C 
HETATM   18  C14 UNL     1      26.433   2.004  52.252  1.00  0.00     0.021 C 
HETATM   19 BR1  UNL     1      24.939   2.451  53.343  1.00  0.00    -0.050 Br
BRANCH  18  20
HETATM   20  C15 UNL     1      27.436   1.082  52.735  1.00  0.00    -0.019 A 
HETATM   21  C16 UNL     1      28.599   1.492  53.347  1.00  0.00     0.016 A 
HETATM   22  C17 UNL     1      29.571   0.635  53.816  1.00  0.00     0.043 A 
HETATM   23  C18 UNL     1      29.369  -0.721  53.665  1.00  0.00     0.116 A 
HETATM   24  F1  UNL     1      30.301  -1.603  54.113  1.00  0.00    -0.206 F 
HETATM   25  C19 UNL     1      28.206  -1.183  53.052  1.00  0.00     0.043 A 
HETATM   26  C20 UNL     1      27.261  -0.268  52.598  1.00  0.00     0.016 A 
ENDBRANCH  18  20
ENDBRANCH  16  17
ENDBRANCH   1  15
TORSDOF 8
ENDMDL
MODEL 6
REMARK VINA RESULT:      -6.8      5.317      8.307
REMARK  8 active torsions:
REMARK  status: ('A' for Active; 'I' for Inactive)
REMARK    1  A    between atoms: C2_2  and  C3_3 
REMARK    2  A    between atoms: C2_2  and  N3_13 
REMARK    3  A    between atoms: C4_4  and  C5_5 
REMARK    4  A    between atoms: C5_5  and  C6_6 
REMARK    5  A    between atoms: C6_6  and  N1_7 
REMARK    6  A    between atoms: N3_13  and  C11_14 
REMARK    7  A    between atoms: C12_15  and  C13_16 
REMARK    8  A    between atoms: C14_17  and  C15_19 
ROOT
HETATM    1  N3  UNL     1      23.018   5.694  51.606  1.00  0.00    -0.384 N 
HETATM    2  H18 UNL     1      22.506   6.428  52.178  1.00  0.00     0.160 HD
ENDROOT
BRANCH   1   3
HETATM    3  C2  UNL     1      22.510   4.315  51.628  1.00  0.00     0.156 C 
HETATM    4  C1  UNL     1      21.209   4.339  52.382  1.00  0.00     0.046 C 
BRANCH   3   5
HETATM    5  C3  UNL     1      23.512   3.444  52.256  1.00  0.00    -0.082 C 
HETATM    6  C4  UNL     1      24.353   2.735  52.760  1.00  0.00    -0.103 C 
BRANCH   6   7
HETATM    7  C5  UNL     1      25.404   1.873  53.362  1.00  0.00     0.124 C 
BRANCH   7   8
HETATM    8  C6  UNL     1      26.675   1.941  52.563  1.00  0.00     0.286 C 
BRANCH   8   9
HETATM    9  N1  UNL     1      27.616   0.923  52.895  1.00  0.00     0.119 N 
HETATM   10  C7  UNL     1      27.160  -0.108  53.767  1.00  0.00     0.304 C 
HETATM   11  C8  UNL     1      28.055   0.047  54.976  1.00  0.00     0.304 C 
HETATM   12  N2  UNL     1      29.316   0.433  54.370  1.00  0.00     0.114 N 
HETATM   13  C9  UNL     1      29.810  -0.691  53.616  1.00  0.00     0.312 C 
HETATM   14  C10 UNL     1      28.848   1.456  53.437  1.00  0.00     0.542 C 
ENDBRANCH   8   9
ENDBRANCH   7   8
ENDBRANCH   6   7
ENDBRANCH   3   5
ENDBRANCH   1   3
BRANCH   1  15
HETATM   15  C11 UNL     1      24.126   6.260  50.928  1.00  0.00     0.084 C 
HETATM   16  C12 UNL     1      24.611   5.859  49.760  1.00  0.00     0.018 C 
BRANCH  16  17
HETATM   17  C13 UNL     1      25.754   6.466  49.093  1.00  0.00     0.021 C 
HETATM   18  C14 UNL     1      26.827   5.741  48.844  1.00  0.00     0.021 C 
HETATM   19 BR1  UNL     1      26.777   3.920  49.395  1.00  0.00    -0.050 Br
BRANCH  18  20
HETATM   20  C15 UNL     1      28.002   6.270  48.190  1.00  0.00    -0.019 A 
HETATM   21  C16 UNL     1      27.996   7.448  47.477  1.00  0.00     0.016 A 
HETATM   22  C17 UNL     1      29.102   7.975  46.844  1.00  0.00     0.043 A 
HETATM   23  C18 UNL     1      30.291   7.282  46.930  1.00  0.00     0.116 A 
HETATM   24  F1  UNL     1      31.407   7.765  46.320  1.00  0.00    -0.206 F 
HETATM   25  C19 UNL     1      30.345   6.086  47.641  1.00  0.00     0.043 A 
HETATM   26  C20 UNL     1      29.194   5.603  48.259  1.00  0.00     0.016 A 
ENDBRANCH  18  20
ENDBRANCH  16  17
ENDBRANCH   1  15
TORSDOF 8
ENDMDL
MODEL 7
REMARK VINA RESULT:      -6.8      6.630      9.320
REMARK  8 active torsions:
REMARK  status: ('A' for Active; 'I' for Inactive)
REMARK    1  A    between atoms: C2_2  and  C3_3 
REMARK    2  A    between atoms: C2_2  and  N3_13 
REMARK    3  A    between atoms: C4_4  and  C5_5 
REMARK    4  A    between atoms: C5_5  and  C6_6 
REMARK    5  A    between atoms: C6_6  and  N1_7 
REMARK    6  A    between atoms: N3_13  and  C11_14 
REMARK    7  A    between atoms: C12_15  and  C13_16 
REMARK    8  A    between atoms: C14_17  and  C15_19 
ROOT
HETATM    1  N3  UNL     1      27.039   4.174  49.199  1.00  0.00    -0.384 N 
HETATM    2  H18 UNL     1      27.788   3.515  48.837  1.00  0.00     0.160 HD
ENDROOT
BRANCH   1   3
HETATM    3  C2  UNL     1      27.269   5.622  49.082  1.00  0.00     0.156 C 
HETATM    4  C1  UNL     1      26.080   6.198  48.364  1.00  0.00     0.046 C 
BRANCH   3   5
HETATM    5  C3  UNL     1      28.530   5.850  48.363  1.00  0.00    -0.082 C 
HETATM    6  C4  UNL     1      29.578   6.026  47.785  1.00  0.00    -0.103 C 
BRANCH   6   7
HETATM    7  C5  UNL     1      30.878   6.225  47.092  1.00  0.00     0.124 C 
BRANCH   7   8
HETATM    8  C6  UNL     1      32.018   5.738  47.942  1.00  0.00     0.286 C 
BRANCH   8   9
HETATM    9  N1  UNL     1      32.933   4.897  47.245  1.00  0.00     0.119 N 
HETATM   10  C7  UNL     1      32.420   3.659  46.758  1.00  0.00     0.304 C 
HETATM   11  C8  UNL     1      33.237   2.632  47.510  1.00  0.00     0.304 C 
HETATM   12  N2  UNL     1      34.534   3.277  47.589  1.00  0.00     0.114 N 
HETATM   13  C9  UNL     1      35.073   3.355  46.255  1.00  0.00     0.312 C 
HETATM   14  C10 UNL     1      34.129   4.616  48.011  1.00  0.00     0.542 C 
ENDBRANCH   8   9
ENDBRANCH   7   8
ENDBRANCH   6   7
ENDBRANCH   3   5
ENDBRANCH   1   3
BRANCH   1  15
HETATM   15  C11 UNL     1      25.943   3.454  49.736  1.00  0.00     0.084 C 
HETATM   16  C12 UNL     1      25.944   2.768  50.871  1.00  0.00     0.018 C 
BRANCH  16  17
HETATM   17  C13 UNL     1      24.796   2.038  51.390  1.00  0.00     0.021 C 
HETATM   18  C14 UNL     1      24.963   1.156  52.357  1.00  0.00     0.021 C 
HETATM   19 BR1  UNL     1      26.739   0.915  52.997  1.00  0.00    -0.050 Br
BRANCH  18  20
HETATM   20  C15 UNL     1      23.876   0.391  52.923  1.00  0.00    -0.019 A 
HETATM   21  C16 UNL     1      24.021  -0.407  54.036  1.00  0.00     0.016 A 
HETATM   22  C17 UNL     1      23.001  -1.146  54.596  1.00  0.00     0.043 A 
HETATM   23  C18 UNL     1      21.756  -1.086  54.007  1.00  0.00     0.116 A 
HETATM   24  F1  UNL     1      20.721  -1.800  54.526  1.00  0.00    -0.206 F 
HETATM   25  C19 UNL     1      21.562  -0.293  52.879  1.00  0.00     0.043 A 
HETATM   26  C20 UNL     1      22.631   0.432  52.358  1.00  0.00     0.016 A 
ENDBRANCH  18  20
ENDBRANCH  16  17
ENDBRANCH   1  15
TORSDOF 8
ENDMDL
MODEL 8
REMARK VINA RESULT:      -6.7      6.274      9.086
REMARK  8 active torsions:
REMARK  status: ('A' for Active; 'I' for Inactive)
REMARK    1  A    between atoms: C2_2  and  C3_3 
REMARK    2  A    between atoms: C2_2  and  N3_13 
REMARK    3  A    between atoms: C4_4  and  C5_5 
REMARK    4  A    between atoms: C5_5  and  C6_6 
REMARK    5  A    between atoms: C6_6  and  N1_7 
REMARK    6  A    between atoms: N3_13  and  C11_14 
REMARK    7  A    between atoms: C12_15  and  C13_16 
REMARK    8  A    between atoms: C14_17  and  C15_19 
ROOT
HETATM    1  N3  UNL     1      25.132   6.099  48.509  1.00  0.00    -0.384 N 
HETATM    2  H18 UNL     1      24.780   6.094  47.507  1.00  0.00     0.160 HD
ENDROOT
BRANCH   1   3
HETATM    3  C2  UNL     1      26.208   7.035  48.865  1.00  0.00     0.156 C 
HETATM    4  C1  UNL     1      25.965   8.299  48.087  1.00  0.00     0.046 C 
BRANCH   3   5
HETATM    5  C3  UNL     1      27.504   6.418  48.552  1.00  0.00    -0.082 C 
HETATM    6  C4  UNL     1      28.562   5.897  48.281  1.00  0.00    -0.103 C 
BRANCH   6   7
HETATM    7  C5  UNL     1      29.849   5.241  47.930  1.00  0.00     0.124 C 
BRANCH   7   8
HETATM    8  C6  UNL     1      30.992   5.871  48.676  1.00  0.00     0.286 C 
BRANCH   8   9
HETATM    9  N1  UNL     1      32.226   5.176  48.525  1.00  0.00     0.119 N 
HETATM   10  C7  UNL     1      33.415   5.952  48.649  1.00  0.00     0.304 C 
HETATM   11  C8  UNL     1      34.054   5.819  47.284  1.00  0.00     0.304 C 
HETATM   12  N2  UNL     1      33.719   4.453  46.928  1.00  0.00     0.114 N 
HETATM   13  C9  UNL     1      34.433   3.573  47.819  1.00  0.00     0.312 C 
HETATM   14  C10 UNL     1      32.303   4.434  47.284  1.00  0.00     0.542 C 
ENDBRANCH   8   9
ENDBRANCH   7   8
ENDBRANCH   6   7
ENDBRANCH   3   5
ENDBRANCH   1   3
BRANCH   1  15
HETATM   15  C11 UNL     1      24.438   5.147  49.296  1.00  0.00     0.084 C 
HETATM   16  C12 UNL     1      24.795   3.883  49.483  1.00  0.00     0.018 C 
BRANCH  16  17
HETATM   17  C13 UNL     1      24.054   2.932  50.300  1.00  0.00     0.021 C 
HETATM   18  C14 UNL     1      24.696   2.176  51.170  1.00  0.00     0.021 C 
HETATM   19 BR1  UNL     1      26.583   2.406  51.275  1.00  0.00    -0.050 Br
BRANCH  18  20
HETATM   20  C15 UNL     1      24.034   1.208  52.013  1.00  0.00    -0.019 A 
HETATM   21  C16 UNL     1      22.692   0.915  51.908  1.00  0.00     0.016 A 
HETATM   22  C17 UNL     1      22.036  -0.003  52.700  1.00  0.00     0.043 A 
HETATM   23  C18 UNL     1      22.766  -0.673  53.659  1.00  0.00     0.116 A 
HETATM   24  F1  UNL     1      22.159  -1.587  54.462  1.00  0.00    -0.206 F 
HETATM   25  C19 UNL     1      24.126  -0.409  53.802  1.00  0.00     0.043 A 
HETATM   26  C20 UNL     1      24.734   0.530  52.973  1.00  0.00     0.016 A 
ENDBRANCH  18  20
ENDBRANCH  16  17
ENDBRANCH   1  15
TORSDOF 8
ENDMDL
MODEL 9
REMARK VINA RESULT:      -6.6      3.682      6.809
REMARK  8 active torsions:
REMARK  status: ('A' for Active; 'I' for Inactive)
REMARK    1  A    between atoms: C2_2  and  C3_3 
REMARK    2  A    between atoms: C2_2  and  N3_13 
REMARK    3  A    between atoms: C4_4  and  C5_5 
REMARK    4  A    between atoms: C5_5  and  C6_6 
REMARK    5  A    between atoms: C6_6  and  N1_7 
REMARK    6  A    between atoms: N3_13  and  C11_14 
REMARK    7  A    between atoms: C12_15  and  C13_16 
REMARK    8  A    between atoms: C14_17  and  C15_19 
ROOT
HETATM    1  N3  UNL     1      25.978   1.379  53.423  1.00  0.00    -0.384 N 
HETATM    2  H18 UNL     1      26.089   1.202  54.463  1.00  0.00     0.160 HD
ENDROOT
BRANCH   1   3
HETATM    3  C2  UNL     1      27.185   1.647  52.628  1.00  0.00     0.156 C 
HETATM    4  C1  UNL     1      28.176   2.309  53.545  1.00  0.00     0.046 C 
BRANCH   3   5
HETATM    5  C3  UNL     1      26.826   2.488  51.478  1.00  0.00    -0.082 C 
HETATM    6  C4  UNL     1      26.527   3.163  50.520  1.00  0.00    -0.103 C 
BRANCH   6   7
HETATM    7  C5  UNL     1      26.153   3.972  49.330  1.00  0.00     0.124 C 
BRANCH   7   8
HETATM    8  C6  UNL     1      25.809   5.380  49.726  1.00  0.00     0.286 C 
BRANCH   8   9
HETATM    9  N1  UNL     1      24.408   5.621  49.824  1.00  0.00     0.119 N 
HETATM   10  C7  UNL     1      23.835   5.538  51.126  1.00  0.00     0.304 C 
HETATM   11  C8  UNL     1      22.854   4.394  50.995  1.00  0.00     0.304 C 
HETATM   12  N2  UNL     1      22.367   4.569  49.639  1.00  0.00     0.114 N 
HETATM   13  C9  UNL     1      21.605   5.790  49.594  1.00  0.00     0.312 C 
HETATM   14  C10 UNL     1      23.632   4.778  48.939  1.00  0.00     0.542 C 
ENDBRANCH   8   9
ENDBRANCH   7   8
ENDBRANCH   6   7
ENDBRANCH   3   5
ENDBRANCH   1   3
BRANCH   1  15
HETATM   15  C11 UNL     1      24.615   1.311  53.038  1.00  0.00     0.084 C 
HETATM   16  C12 UNL     1      23.887   0.205  52.945  1.00  0.00     0.018 C 
BRANCH  16  17
HETATM   17  C13 UNL     1      22.488   0.175  52.545  1.00  0.00     0.021 C 
HETATM   18  C14 UNL     1      21.602  -0.438  53.307  1.00  0.00     0.021 C 
HETATM   19 BR1  UNL     1      22.259  -1.247  54.900  1.00  0.00    -0.050 Br
BRANCH  18  20
HETATM   20  C15 UNL     1      20.198  -0.514  52.979  1.00  0.00    -0.019 A 
HETATM   21  C16 UNL     1      19.609   0.274  52.015  1.00  0.00     0.016 A 
HETATM   22  C17 UNL     1      18.272   0.221  51.682  1.00  0.00     0.043 A 
HETATM   23  C18 UNL     1      17.471  -0.677  52.354  1.00  0.00     0.116 A 
HETATM   24  F1  UNL     1      16.146  -0.762  52.058  1.00  0.00    -0.206 F 
HETATM   25  C19 UNL     1      18.022  -1.495  53.337  1.00  0.00     0.043 A 
HETATM   26  C20 UNL     1      19.379  -1.396  53.630  1.00  0.00     0.016 A 
ENDBRANCH  18  20
ENDBRANCH  16  17
ENDBRANCH   1  15
TORSDOF 8
ENDMDL
