MODEL 1
REMARK VINA RESULT:      -7.8      0.000      0.000
REMARK  3 active torsions:
REMARK  status: ('A' for Active; 'I' for Inactive)
REMARK    1  A    between atoms: N2_8  and  C7_9 
REMARK    2  A    between atoms: C7_9  and  P1_10 
REMARK    3  A    between atoms: P1_10  and  C8_11 
ROOT
HETATM    1  C1  UNL     1      22.290   3.265  47.526  1.00  0.00     0.045 C 
HETATM    2  C2  UNL     1      22.467   2.701  48.906  1.00  0.00    -0.059 C 
HETATM    3  C3  UNL     1      23.109   3.555  49.745  1.00  0.00     0.034 C 
HETATM    4  C4  UNL     1      23.493   4.851  49.135  1.00  0.00     0.020 C 
HETATM    5  N1  UNL     1      23.789   5.913  48.648  1.00  0.00    -0.096 N 
HETATM    6  C5  UNL     1      23.604   3.552  51.133  1.00  0.00     0.039 C 
HETATM    7  C6  UNL     1      23.669   2.759  52.207  1.00  0.00     0.092 C 
HETATM    8  N2  UNL     1      23.323   1.464  52.687  1.00  0.00    -0.359 N 
HETATM    9  C14 UNL     1      22.121   0.957  53.338  1.00  0.00     0.113 C 
HETATM   10  C15 UNL     1      22.086  -0.477  53.603  1.00  0.00     0.034 C 
HETATM   11  C16 UNL     1      20.907   1.588  52.647  1.00  0.00     0.300 C 
HETATM   12  N3  UNL     1      21.215   1.501  51.231  1.00  0.00     0.088 N 
HETATM   13  C17 UNL     1      21.511   0.729  50.054  1.00  0.00     0.354 A 
HETATM   14  O1  UNL     1      21.255   0.271  51.189  1.00  0.00    -0.150 OA
HETATM   15  C18 UNL     1      21.803   1.387  48.765  1.00  0.00     0.115 C 
HETATM   16  H18 UNL     1      21.128   2.549  50.945  1.00  0.00     0.322 HD
ENDROOT
BRANCH   8  17
HETATM   17  C7  UNL     1      24.409   0.538  52.438  1.00  0.00     0.107 C 
BRANCH  17  18
HETATM   18  P1  UNL     1      25.739   0.892  53.351  1.00  0.00    -0.005 P 
BRANCH  18  19
HETATM   19  C8  UNL     1      27.177  -0.235  53.313  1.00  0.00    -0.021 A 
HETATM   20  C9  UNL     1      28.484  -0.002  53.669  1.00  0.00     0.013 A 
HETATM   21  C10 UNL     1      29.440  -0.983  53.569  1.00  0.00     0.001 A 
HETATM   22  C11 UNL     1      29.053  -2.204  53.103  1.00  0.00     0.000 A 
HETATM   23  C12 UNL     1      27.747  -2.497  52.726  1.00  0.00     0.001 A 
HETATM   24  C13 UNL     1      26.804  -1.493  52.836  1.00  0.00     0.013 A 
ENDBRANCH  18  19
ENDBRANCH  17  18
ENDBRANCH   8  17
TORSDOF 3
ENDMDL
MODEL 2
REMARK VINA RESULT:      -7.5      3.513      5.910
REMARK  3 active torsions:
REMARK  status: ('A' for Active; 'I' for Inactive)
REMARK    1  A    between atoms: N2_8  and  C7_9 
REMARK    2  A    between atoms: C7_9  and  P1_10 
REMARK    3  A    between atoms: P1_10  and  C8_11 
ROOT
HETATM    1  C1  UNL     1      19.702  -0.607  53.437  1.00  0.00     0.045 C 
HETATM    2  C2  UNL     1      20.412   0.269  52.447  1.00  0.00    -0.059 C 
HETATM    3  C3  UNL     1      21.759   0.274  52.619  1.00  0.00     0.034 C 
HETATM    4  C4  UNL     1      22.245  -0.578  53.731  1.00  0.00     0.020 C 
HETATM    5  N1  UNL     1      22.644  -1.285  54.622  1.00  0.00    -0.096 N 
HETATM    6  C5  UNL     1      22.930   0.949  52.031  1.00  0.00     0.039 C 
HETATM    7  C6  UNL     1      23.244   1.842  51.088  1.00  0.00     0.092 C 
HETATM    8  N2  UNL     1      22.683   2.685  50.087  1.00  0.00    -0.359 N 
HETATM    9  C14 UNL     1      22.375   2.453  48.681  1.00  0.00     0.113 C 
HETATM   10  C15 UNL     1      21.700   3.541  47.980  1.00  0.00     0.034 C 
HETATM   11  C16 UNL     1      21.788   1.043  48.551  1.00  0.00     0.300 C 
HETATM   12  N3  UNL     1      20.856   0.939  49.660  1.00  0.00     0.088 N 
HETATM   13  C17 UNL     1      19.684   1.386  50.363  1.00  0.00     0.354 A 
HETATM   14  O1  UNL     1      20.115   1.847  49.283  1.00  0.00    -0.150 OA
HETATM   15  C18 UNL     1      19.277   0.763  51.638  1.00  0.00     0.115 C 
HETATM   16  H18 UNL     1      21.241   0.049  50.158  1.00  0.00     0.322 HD
ENDROOT
BRANCH   8  17
HETATM   17  C7  UNL     1      22.381   3.986  50.648  1.00  0.00     0.107 C 
BRANCH  17  18
HETATM   18  P1  UNL     1      23.732   4.726  51.245  1.00  0.00    -0.005 P 
BRANCH  18  19
HETATM   19  C8  UNL     1      25.209   4.887  50.181  1.00  0.00    -0.021 A 
HETATM   20  C9  UNL     1      26.107   3.929  49.776  1.00  0.00     0.013 A 
HETATM   21  C10 UNL     1      27.173   4.241  48.967  1.00  0.00     0.001 A 
HETATM   22  C11 UNL     1      27.315   5.539  48.575  1.00  0.00     0.000 A 
HETATM   23  C12 UNL     1      26.439   6.550  48.954  1.00  0.00     0.001 A 
HETATM   24  C13 UNL     1      25.376   6.210  49.767  1.00  0.00     0.013 A 
ENDBRANCH  18  19
ENDBRANCH  17  18
ENDBRANCH   8  17
TORSDOF 3
ENDMDL
MODEL 3
REMARK VINA RESULT:      -7.3      1.594      2.086
REMARK  3 active torsions:
REMARK  status: ('A' for Active; 'I' for Inactive)
REMARK    1  A    between atoms: N2_8  and  C7_9 
REMARK    2  A    between atoms: C7_9  and  P1_10 
REMARK    3  A    between atoms: P1_10  and  C8_11 
ROOT
HETATM    1  C1  UNL     1      23.126   5.597  48.568  1.00  0.00     0.045 C 
HETATM    2  C2  UNL     1      23.013   4.512  49.599  1.00  0.00    -0.059 C 
HETATM    3  C3  UNL     1      23.531   4.872  50.801  1.00  0.00     0.034 C 
HETATM    4  C4  UNL     1      24.090   6.245  50.849  1.00  0.00     0.020 C 
HETATM    5  N1  UNL     1      24.528   7.367  50.896  1.00  0.00    -0.096 N 
HETATM    6  C5  UNL     1      23.758   4.253  52.120  1.00  0.00     0.039 C 
HETATM    7  C6  UNL     1      23.579   3.096  52.764  1.00  0.00     0.092 C 
HETATM    8  N2  UNL     1      23.082   1.771  52.606  1.00  0.00    -0.359 N 
HETATM    9  C14 UNL     1      21.755   1.201  52.802  1.00  0.00     0.113 C 
HETATM   10  C15 UNL     1      21.596  -0.204  52.440  1.00  0.00     0.034 C 
HETATM   11  C16 UNL     1      20.726   2.201  52.263  1.00  0.00     0.300 C 
HETATM   12  N3  UNL     1      21.287   2.649  51.002  1.00  0.00     0.088 N 
HETATM   13  C17 UNL     1      21.757   2.381  49.669  1.00  0.00     0.354 A 
HETATM   14  O1  UNL     1      21.270   1.543  50.460  1.00  0.00    -0.150 OA
HETATM   15  C18 UNL     1      22.318   3.458  48.828  1.00  0.00     0.115 C 
HETATM   16  H18 UNL     1      21.311   3.726  51.168  1.00  0.00     0.322 HD
ENDROOT
BRANCH   8  17
HETATM   17  C7  UNL     1      24.145   0.893  52.160  1.00  0.00     0.107 C 
BRANCH  17  18
HETATM   18  P1  UNL     1      25.037   0.316  53.424  1.00  0.00    -0.005 P 
BRANCH  18  19
HETATM   19  C8  UNL     1      26.722   0.964  53.702  1.00  0.00    -0.021 A 
HETATM   20  C9  UNL     1      27.305   2.120  53.240  1.00  0.00     0.013 A 
HETATM   21  C10 UNL     1      28.602   2.445  53.555  1.00  0.00     0.001 A 
HETATM   22  C11 UNL     1      29.300   1.580  54.345  1.00  0.00     0.000 A 
HETATM   23  C12 UNL     1      28.764   0.397  54.840  1.00  0.00     0.001 A 
HETATM   24  C13 UNL     1      27.457   0.094  54.509  1.00  0.00     0.013 A 
ENDBRANCH  18  19
ENDBRANCH  17  18
ENDBRANCH   8  17
TORSDOF 3
ENDMDL
MODEL 4
REMARK VINA RESULT:      -7.2      2.736      6.144
REMARK  3 active torsions:
REMARK  status: ('A' for Active; 'I' for Inactive)
REMARK    1  A    between atoms: N2_8  and  C7_9 
REMARK    2  A    between atoms: C7_9  and  P1_10 
REMARK    3  A    between atoms: P1_10  and  C8_11 
ROOT
HETATM    1  C1  UNL     1      21.988  -1.111  54.560  1.00  0.00     0.045 C 
HETATM    2  C2  UNL     1      22.023  -0.106  53.445  1.00  0.00    -0.059 C 
HETATM    3  C3  UNL     1      23.286   0.259  53.106  1.00  0.00     0.034 C 
HETATM    4  C4  UNL     1      24.355  -0.404  53.892  1.00  0.00     0.020 C 
HETATM    5  N1  UNL     1      25.227  -0.954  54.516  1.00  0.00    -0.096 N 
HETATM    6  C5  UNL     1      23.936   1.202  52.178  1.00  0.00     0.039 C 
HETATM    7  C6  UNL     1      23.632   2.120  51.255  1.00  0.00     0.092 C 
HETATM    8  N2  UNL     1      22.541   2.756  50.600  1.00  0.00    -0.359 N 
HETATM    9  C14 UNL     1      21.795   2.413  49.395  1.00  0.00     0.113 C 
HETATM   10  C15 UNL     1      20.653   3.263  49.077  1.00  0.00     0.034 C 
HETATM   11  C16 UNL     1      21.583   0.894  49.387  1.00  0.00     0.300 C 
HETATM   12  N3  UNL     1      21.198   0.579  50.750  1.00  0.00     0.088 N 
HETATM   13  C17 UNL     1      20.304   0.720  51.869  1.00  0.00     0.354 A 
HETATM   14  O1  UNL     1      20.164   1.249  50.744  1.00  0.00    -0.150 OA
HETATM   15  C18 UNL     1      20.581   0.048  53.154  1.00  0.00     0.115 C 
HETATM   16  H18 UNL     1      21.955  -0.163  51.003  1.00  0.00     0.322 HD
ENDROOT
BRANCH   8  17
HETATM   17  C7  UNL     1      22.152   3.947  51.328  1.00  0.00     0.107 C 
BRANCH  17  18
HETATM   18  P1  UNL     1      23.464   4.795  51.863  1.00  0.00    -0.005 P 
BRANCH  18  19
HETATM   19  C8  UNL     1      24.666   5.446  50.651  1.00  0.00    -0.021 A 
HETATM   20  C9  UNL     1      25.413   4.777  49.711  1.00  0.00     0.013 A 
HETATM   21  C10 UNL     1      26.278   5.443  48.877  1.00  0.00     0.001 A 
HETATM   22  C11 UNL     1      26.375   6.797  49.010  1.00  0.00     0.000 A 
HETATM   23  C12 UNL     1      25.646   7.525  49.943  1.00  0.00     0.001 A 
HETATM   24  C13 UNL     1      24.783   6.832  50.770  1.00  0.00     0.013 A 
ENDBRANCH  18  19
ENDBRANCH  17  18
ENDBRANCH   8  17
TORSDOF 3
ENDMDL
MODEL 5
REMARK VINA RESULT:      -7.2      3.915      6.142
REMARK  3 active torsions:
REMARK  status: ('A' for Active; 'I' for Inactive)
REMARK    1  A    between atoms: N2_8  and  C7_9 
REMARK    2  A    between atoms: C7_9  and  P1_10 
REMARK    3  A    between atoms: P1_10  and  C8_11 
ROOT
HETATM    1  C1  UNL     1      27.605   7.887  47.385  1.00  0.00     0.045 C 
HETATM    2  C2  UNL     1      26.528   7.145  48.122  1.00  0.00    -0.059 C 
HETATM    3  C3  UNL     1      26.943   5.936  48.580  1.00  0.00     0.034 C 
HETATM    4  C4  UNL     1      28.354   5.604  48.267  1.00  0.00     0.020 C 
HETATM    5  N1  UNL     1      29.505   5.339  48.030  1.00  0.00    -0.096 N 
HETATM    6  C5  UNL     1      26.360   4.780  49.287  1.00  0.00     0.039 C 
HETATM    7  C6  UNL     1      25.201   4.361  49.804  1.00  0.00     0.092 C 
HETATM    8  N2  UNL     1      23.842   4.733  50.000  1.00  0.00    -0.359 N 
HETATM    9  C14 UNL     1      23.177   5.458  51.076  1.00  0.00     0.113 C 
HETATM   10  C15 UNL     1      21.760   5.746  50.882  1.00  0.00     0.034 C 
HETATM   11  C16 UNL     1      24.091   6.612  51.505  1.00  0.00     0.300 C 
HETATM   12  N3  UNL     1      24.562   7.179  50.255  1.00  0.00     0.088 N 
HETATM   13  C17 UNL     1      24.312   7.818  48.990  1.00  0.00     0.354 A 
HETATM   14  O1  UNL     1      23.451   7.520  49.848  1.00  0.00    -0.150 OA
HETATM   15  C18 UNL     1      25.415   8.116  48.056  1.00  0.00     0.115 C 
HETATM   16  H18 UNL     1      25.641   7.107  50.399  1.00  0.00     0.322 HD
ENDROOT
BRANCH   8  17
HETATM   17  C7  UNL     1      23.039   4.285  48.880  1.00  0.00     0.107 C 
BRANCH  17  18
HETATM   18  P1  UNL     1      22.962   2.637  48.801  1.00  0.00    -0.005 P 
BRANCH  18  19
HETATM   19  C8  UNL     1      22.634   1.681  50.323  1.00  0.00    -0.021 A 
HETATM   20  C9  UNL     1      23.397   1.550  51.459  1.00  0.00     0.013 A 
HETATM   21  C10 UNL     1      22.984   0.776  52.515  1.00  0.00     0.001 A 
HETATM   22  C11 UNL     1      21.785   0.135  52.404  1.00  0.00     0.000 A 
HETATM   23  C12 UNL     1      20.973   0.229  51.279  1.00  0.00     0.001 A 
HETATM   24  C13 UNL     1      21.411   1.014  50.231  1.00  0.00     0.013 A 
ENDBRANCH  18  19
ENDBRANCH  17  18
ENDBRANCH   8  17
TORSDOF 3
ENDMDL
MODEL 6
REMARK VINA RESULT:      -7.1      2.095      3.945
REMARK  3 active torsions:
REMARK  status: ('A' for Active; 'I' for Inactive)
REMARK    1  A    between atoms: N2_8  and  C7_9 
REMARK    2  A    between atoms: C7_9  and  P1_10 
REMARK    3  A    between atoms: P1_10  and  C8_11 
ROOT
HETATM    1  C1  UNL     1      17.959   2.804  51.582  1.00  0.00     0.045 C 
HETATM    2  C2  UNL     1      19.441   2.572  51.526  1.00  0.00    -0.059 C 
HETATM    3  C3  UNL     1      19.762   1.277  51.273  1.00  0.00     0.034 C 
HETATM    4  C4  UNL     1      18.599   0.373  51.101  1.00  0.00     0.020 C 
HETATM    5  N1  UNL     1      17.656  -0.361  50.943  1.00  0.00    -0.096 N 
HETATM    6  C5  UNL     1      20.982   0.458  51.163  1.00  0.00     0.039 C 
HETATM    7  C6  UNL     1      22.312   0.565  51.251  1.00  0.00     0.092 C 
HETATM    8  N2  UNL     1      23.364   1.491  51.497  1.00  0.00    -0.359 N 
HETATM    9  C14 UNL     1      24.122   2.362  50.606  1.00  0.00     0.113 C 
HETATM   10  C15 UNL     1      25.076   3.264  51.242  1.00  0.00     0.034 C 
HETATM   11  C16 UNL     1      23.148   2.955  49.582  1.00  0.00     0.300 C 
HETATM   12  N3  UNL     1      21.989   3.335  50.368  1.00  0.00     0.088 N 
HETATM   13  C17 UNL     1      21.382   4.103  51.423  1.00  0.00     0.354 A 
HETATM   14  O1  UNL     1      22.579   4.163  51.064  1.00  0.00    -0.150 OA
HETATM   15  C18 UNL     1      19.953   3.940  51.758  1.00  0.00     0.115 C 
HETATM   16  H18 UNL     1      21.207   2.780  49.850  1.00  0.00     0.322 HD
ENDROOT
BRANCH   8  17
HETATM   17  C7  UNL     1      23.673   1.524  52.912  1.00  0.00     0.107 C 
BRANCH  17  18
HETATM   18  P1  UNL     1      24.251   0.073  53.449  1.00  0.00    -0.005 P 
BRANCH  18  19
HETATM   19  C8  UNL     1      26.039  -0.114  53.776  1.00  0.00    -0.021 A 
HETATM   20  C9  UNL     1      26.815   0.450  54.761  1.00  0.00     0.013 A 
HETATM   21  C10 UNL     1      28.160   0.192  54.849  1.00  0.00     0.001 A 
HETATM   22  C11 UNL     1      28.710  -0.647  53.925  1.00  0.00     0.000 A 
HETATM   23  C12 UNL     1      27.976  -1.244  52.906  1.00  0.00     0.001 A 
HETATM   24  C13 UNL     1      26.624  -0.968  52.839  1.00  0.00     0.013 A 
ENDBRANCH  18  19
ENDBRANCH  17  18
ENDBRANCH   8  17
TORSDOF 3
ENDMDL
MODEL 7
REMARK VINA RESULT:      -7.0      3.468      4.961
REMARK  3 active torsions:
REMARK  status: ('A' for Active; 'I' for Inactive)
REMARK    1  A    between atoms: N2_8  and  C7_9 
REMARK    2  A    between atoms: C7_9  and  P1_10 
REMARK    3  A    between atoms: P1_10  and  C8_11 
ROOT
HETATM    1  C1  UNL     1      22.688   6.299  46.647  1.00  0.00     0.045 C 
HETATM    2  C2  UNL     1      22.866   5.395  47.832  1.00  0.00    -0.059 C 
HETATM    3  C3  UNL     1      22.460   4.123  47.588  1.00  0.00     0.034 C 
HETATM    4  C4  UNL     1      21.936   3.890  46.221  1.00  0.00     0.020 C 
HETATM    5  N1  UNL     1      21.527   3.693  45.104  1.00  0.00    -0.096 N 
HETATM    6  C5  UNL     1      22.334   2.858  48.334  1.00  0.00     0.039 C 
HETATM    7  C6  UNL     1      22.543   2.350  49.553  1.00  0.00     0.092 C 
HETATM    8  N2  UNL     1      22.996   2.681  50.861  1.00  0.00    -0.359 N 
HETATM    9  C14 UNL     1      24.323   2.660  51.464  1.00  0.00     0.113 C 
HETATM   10  C15 UNL     1      24.422   3.173  52.827  1.00  0.00     0.034 C 
HETATM   11  C16 UNL     1      25.324   3.184  50.427  1.00  0.00     0.300 C 
HETATM   12  N3  UNL     1      24.666   4.341  49.847  1.00  0.00     0.088 N 
HETATM   13  C17 UNL     1      24.078   5.648  49.974  1.00  0.00     0.354 A 
HETATM   14  O1  UNL     1      24.614   4.989  50.893  1.00  0.00    -0.150 OA
HETATM   15  C18 UNL     1      23.470   6.325  48.811  1.00  0.00     0.115 C 
HETATM   16  H18 UNL     1      24.679   4.067  48.792  1.00  0.00     0.322 HD
ENDROOT
BRANCH   8  17
HETATM   17  C7  UNL     1      21.881   3.119  51.676  1.00  0.00     0.107 C 
BRANCH  17  18
HETATM   18  P1  UNL     1      20.817   1.892  51.970  1.00  0.00    -0.005 P 
BRANCH  18  19
HETATM   19  C8  UNL     1      21.333   0.490  53.022  1.00  0.00    -0.021 A 
HETATM   20  C9  UNL     1      22.573   0.185  53.531  1.00  0.00     0.013 A 
HETATM   21  C10 UNL     1      22.774  -0.928  54.311  1.00  0.00     0.001 A 
HETATM   22  C11 UNL     1      21.700  -1.727  54.568  1.00  0.00     0.000 A 
HETATM   23  C12 UNL     1      20.424  -1.470  54.079  1.00  0.00     0.001 A 
HETATM   24  C13 UNL     1      20.248  -0.345  53.297  1.00  0.00     0.013 A 
ENDBRANCH  18  19
ENDBRANCH  17  18
ENDBRANCH   8  17
TORSDOF 3
ENDMDL
MODEL 8
REMARK VINA RESULT:      -7.0      2.874      5.795
REMARK  3 active torsions:
REMARK  status: ('A' for Active; 'I' for Inactive)
REMARK    1  A    between atoms: N2_8  and  C7_9 
REMARK    2  A    between atoms: C7_9  and  P1_10 
REMARK    3  A    between atoms: P1_10  and  C8_11 
ROOT
HETATM    1  C1  UNL     1      27.460   1.188  51.903  1.00  0.00     0.045 C 
HETATM    2  C2  UNL     1      26.240   2.037  51.694  1.00  0.00    -0.059 C 
HETATM    3  C3  UNL     1      25.471   2.137  52.809  1.00  0.00     0.034 C 
HETATM    4  C4  UNL     1      25.990   1.401  53.987  1.00  0.00     0.020 C 
HETATM    5  N1  UNL     1      26.418   0.820  54.952  1.00  0.00    -0.096 N 
HETATM    6  C5  UNL     1      24.187   2.749  53.196  1.00  0.00     0.039 C 
HETATM    7  C6  UNL     1      23.189   3.472  52.680  1.00  0.00     0.092 C 
HETATM    8  N2  UNL     1      22.733   4.090  51.482  1.00  0.00    -0.359 N 
HETATM    9  C14 UNL     1      22.958   5.420  50.927  1.00  0.00     0.113 C 
HETATM   10  C15 UNL     1      22.401   5.670  49.601  1.00  0.00     0.034 C 
HETATM   11  C16 UNL     1      24.425   5.792  51.169  1.00  0.00     0.300 C 
HETATM   12  N3  UNL     1      25.161   4.587  50.830  1.00  0.00     0.088 N 
HETATM   13  C17 UNL     1      25.551   3.577  49.884  1.00  0.00     0.354 A 
HETATM   14  O1  UNL     1      24.820   4.564  49.647  1.00  0.00    -0.150 OA
HETATM   15  C18 UNL     1      26.419   2.451  50.285  1.00  0.00     0.115 C 
HETATM   16  H18 UNL     1      25.707   4.421  51.759  1.00  0.00     0.322 HD
ENDROOT
BRANCH   8  17
HETATM   17  C7  UNL     1      21.913   3.164  50.727  1.00  0.00     0.107 C 
BRANCH  17  18
HETATM   18  P1  UNL     1      20.794   2.416  51.684  1.00  0.00    -0.005 P 
BRANCH  18  19
HETATM   19  C8  UNL     1      21.272   0.920  52.618  1.00  0.00    -0.021 A 
HETATM   20  C9  UNL     1      22.057  -0.142  52.234  1.00  0.00     0.013 A 
HETATM   21  C10 UNL     1      22.307  -1.192  53.083  1.00  0.00     0.001 A 
HETATM   22  C11 UNL     1      21.750  -1.152  54.327  1.00  0.00     0.000 A 
HETATM   23  C12 UNL     1      20.948  -0.106  54.770  1.00  0.00     0.001 A 
HETATM   24  C13 UNL     1      20.712   0.938  53.897  1.00  0.00     0.013 A 
ENDBRANCH  18  19
ENDBRANCH  17  18
ENDBRANCH   8  17
TORSDOF 3
ENDMDL
MODEL 9
REMARK VINA RESULT:      -7.0      2.894      6.641
REMARK  3 active torsions:
REMARK  status: ('A' for Active; 'I' for Inactive)
REMARK    1  A    between atoms: N2_8  and  C7_9 
REMARK    2  A    between atoms: C7_9  and  P1_10 
REMARK    3  A    between atoms: P1_10  and  C8_11 
ROOT
HETATM    1  C1  UNL     1      27.501   1.128  52.392  1.00  0.00     0.045 C 
HETATM    2  C2  UNL     1      26.163   1.712  52.041  1.00  0.00    -0.059 C 
HETATM    3  C3  UNL     1      25.196   1.384  52.935  1.00  0.00     0.034 C 
HETATM    4  C4  UNL     1      25.654   0.534  54.061  1.00  0.00     0.020 C 
HETATM    5  N1  UNL     1      26.027  -0.142  54.986  1.00  0.00    -0.096 N 
HETATM    6  C5  UNL     1      23.746   1.593  53.097  1.00  0.00     0.039 C 
HETATM    7  C6  UNL     1      22.710   2.176  52.486  1.00  0.00     0.092 C 
HETATM    8  N2  UNL     1      22.346   2.933  51.337  1.00  0.00    -0.359 N 
HETATM    9  C14 UNL     1      22.312   4.370  51.090  1.00  0.00     0.113 C 
HETATM   10  C15 UNL     1      21.975   4.784  49.732  1.00  0.00     0.034 C 
HETATM   11  C16 UNL     1      23.552   4.992  51.743  1.00  0.00     0.300 C 
HETATM   12  N3  UNL     1      24.633   4.089  51.391  1.00  0.00     0.088 N 
HETATM   13  C17 UNL     1      25.453   3.431  50.409  1.00  0.00     0.354 A 
HETATM   14  O1  UNL     1      24.545   4.259  50.175  1.00  0.00    -0.150 OA
HETATM   15  C18 UNL     1      26.494   2.464  50.811  1.00  0.00     0.115 C 
HETATM   16  H18 UNL     1      25.013   3.841  52.383  1.00  0.00     0.322 HD
ENDROOT
BRANCH   8  17
HETATM   17  C7  UNL     1      21.963   2.045  50.259  1.00  0.00     0.107 C 
BRANCH  17  18
HETATM   18  P1  UNL     1      20.332   1.790  50.223  1.00  0.00    -0.005 P 
BRANCH  18  19
HETATM   19  C8  UNL     1      19.580   0.630  51.419  1.00  0.00    -0.021 A 
HETATM   20  C9  UNL     1      20.119   0.065  52.551  1.00  0.00     0.013 A 
HETATM   21  C10 UNL     1      19.394  -0.798  53.335  1.00  0.00     0.001 A 
HETATM   22  C11 UNL     1      18.114  -1.080  52.957  1.00  0.00     0.000 A 
HETATM   23  C12 UNL     1      17.518  -0.540  51.823  1.00  0.00     0.001 A 
HETATM   24  C13 UNL     1      18.269   0.325  51.051  1.00  0.00     0.013 A 
ENDBRANCH  18  19
ENDBRANCH  17  18
ENDBRANCH   8  17
TORSDOF 3
ENDMDL
