MODEL 1
REMARK VINA RESULT:      -8.1      0.000      0.000
REMARK  3 active torsions:
REMARK  status: ('A' for Active; 'I' for Inactive)
REMARK    1  A    between atoms: C6_9  and  N3_10 
REMARK    2  A    between atoms: N3_10  and  C7_11 
REMARK    3  A    between atoms: C15_21  and  C16_22 
ROOT
HETATM    1  C1  UNL     1      30.146  -0.479  53.550  1.00  0.00     0.039 C 
HETATM    2  C2  UNL     1      28.824  -0.465  54.189  1.00  0.00     0.007 C 
HETATM    3  C3  UNL     1      27.612   0.044  54.210  1.00  0.00     0.084 C 
HETATM    4  O1  UNL     1      26.530  -0.252  55.081  1.00  0.00    -0.290 OA
HETATM    5  C4  UNL     1      25.194  -0.511  54.710  1.00  0.00     0.202 A 
HETATM    6  N1  UNL     1      24.557  -1.212  55.664  1.00  0.00    -0.215 NA
HETATM    7  C5  UNL     1      23.246  -1.560  55.488  1.00  0.00     0.238 A 
HETATM    8  N2  UNL     1      22.617  -1.199  54.367  1.00  0.00    -0.222 NA
HETATM    9  C6  UNL     1      23.177  -0.504  53.373  1.00  0.00     0.160 A 
HETATM   10  C13 UNL     1      24.489  -0.169  53.577  1.00  0.00     0.132 A 
HETATM   11  N4  UNL     1      25.015   0.560  52.480  1.00  0.00    -0.359 N 
HETATM   12  C14 UNL     1      26.248   1.303  52.430  1.00  0.00     0.101 C 
HETATM   13  C15 UNL     1      27.348   1.071  53.174  1.00  0.00     0.019 C 
HETATM   14  H11 UNL     1      24.474   0.576  51.595  1.00  0.00     0.165 HD
ENDROOT
BRANCH   9  15
HETATM   15  N3  UNL     1      22.435  -0.160  52.219  1.00  0.00    -0.339 N 
HETATM   16  H6  UNL     1      22.325  -0.552  51.270  1.00  0.00     0.167 HD
BRANCH  15  17
HETATM   17  C7  UNL     1      21.587   0.975  52.168  1.00  0.00     0.035 A 
HETATM   18  C8  UNL     1      20.188   0.997  52.199  1.00  0.00     0.029 A 
HETATM   19  C9  UNL     1      19.391   2.113  52.128  1.00  0.00     0.004 A 
HETATM   20  C10 UNL     1      19.999   3.326  52.018  1.00  0.00     0.019 A 
HETATM   21  C11 UNL     1      21.377   3.368  51.982  1.00  0.00     0.013 A 
HETATM   22 BR1  UNL     1      22.093   5.151  51.824  1.00  0.00    -0.051 Br
HETATM   23  C12 UNL     1      22.149   2.230  52.054  1.00  0.00     0.048 A 
ENDBRANCH  15  17
ENDBRANCH   9  15
BRANCH  13  24
HETATM   24  C16 UNL     1      28.482   2.026  52.913  1.00  0.00     0.265 C 
HETATM   25  F1  UNL     1      28.697   2.861  53.995  1.00  0.00    -0.250 F 
ENDBRANCH  13  24
TORSDOF 3
ENDMDL
MODEL 2
REMARK VINA RESULT:      -8.0      4.020      5.216
REMARK  3 active torsions:
REMARK  status: ('A' for Active; 'I' for Inactive)
REMARK    1  A    between atoms: C6_9  and  N3_10 
REMARK    2  A    between atoms: N3_10  and  C7_11 
REMARK    3  A    between atoms: C15_21  and  C16_22 
ROOT
HETATM    1  C1  UNL     1      27.864  -2.433  52.734  1.00  0.00     0.039 C 
HETATM    2  C2  UNL     1      26.775  -1.457  52.604  1.00  0.00     0.007 C 
HETATM    3  C3  UNL     1      26.395  -0.203  52.715  1.00  0.00     0.084 C 
HETATM    4  O1  UNL     1      25.122   0.373  52.465  1.00  0.00    -0.290 OA
HETATM    5  C4  UNL     1      24.856   1.539  51.717  1.00  0.00     0.202 A 
HETATM    6  N1  UNL     1      23.589   1.543  51.267  1.00  0.00    -0.215 NA
HETATM    7  C5  UNL     1      23.139   2.597  50.519  1.00  0.00     0.238 A 
HETATM    8  N2  UNL     1      23.967   3.608  50.246  1.00  0.00    -0.222 NA
HETATM    9  C6  UNL     1      25.237   3.680  50.654  1.00  0.00     0.160 A 
HETATM   10  C13 UNL     1      25.660   2.613  51.401  1.00  0.00     0.132 A 
HETATM   11  N4  UNL     1      27.015   2.758  51.791  1.00  0.00    -0.359 N 
HETATM   12  C14 UNL     1      27.730   1.994  52.783  1.00  0.00     0.101 C 
HETATM   13  C15 UNL     1      27.453   0.732  53.167  1.00  0.00     0.019 C 
HETATM   14  H11 UNL     1      27.587   3.487  51.325  1.00  0.00     0.165 HD
ENDROOT
BRANCH   9  15
HETATM   15  N3  UNL     1      26.045   4.792  50.321  1.00  0.00    -0.339 N 
HETATM   16  H6  UNL     1      27.061   4.978  50.276  1.00  0.00     0.167 HD
BRANCH  15  17
HETATM   17  C7  UNL     1      25.500   6.044  49.940  1.00  0.00     0.035 A 
HETATM   18  C8  UNL     1      24.849   6.976  50.756  1.00  0.00     0.029 A 
HETATM   19  C9  UNL     1      24.314   8.174  50.354  1.00  0.00     0.004 A 
HETATM   20  C10 UNL     1      24.416   8.510  49.039  1.00  0.00     0.019 A 
HETATM   21  C11 UNL     1      25.049   7.631  48.185  1.00  0.00     0.013 A 
HETATM   22 BR1  UNL     1      25.117   8.242  46.357  1.00  0.00    -0.051 Br
HETATM   23  C12 UNL     1      25.574   6.435  48.619  1.00  0.00     0.048 A 
ENDBRANCH  15  17
ENDBRANCH   9  15
BRANCH  13  24
HETATM   24  C16 UNL     1      28.366   0.200  54.239  1.00  0.00     0.265 C 
HETATM   25  F1  UNL     1      29.687   0.212  53.829  1.00  0.00    -0.250 F 
ENDBRANCH  13  24
TORSDOF 3
ENDMDL
MODEL 3
REMARK VINA RESULT:      -7.7      2.760      3.722
REMARK  3 active torsions:
REMARK  status: ('A' for Active; 'I' for Inactive)
REMARK    1  A    between atoms: C6_9  and  N3_10 
REMARK    2  A    between atoms: N3_10  and  C7_11 
REMARK    3  A    between atoms: C15_21  and  C16_22 
ROOT
HETATM    1  C1  UNL     1      28.637  -2.155  52.808  1.00  0.00     0.039 C 
HETATM    2  C2  UNL     1      27.304  -1.600  53.079  1.00  0.00     0.007 C 
HETATM    3  C3  UNL     1      26.601  -0.585  53.531  1.00  0.00     0.084 C 
HETATM    4  O1  UNL     1      25.191  -0.444  53.627  1.00  0.00    -0.290 OA
HETATM    5  C4  UNL     1      24.424   0.666  53.215  1.00  0.00     0.202 A 
HETATM    6  N1  UNL     1      23.148   0.312  52.988  1.00  0.00    -0.215 NA
HETATM    7  C5  UNL     1      22.244   1.255  52.580  1.00  0.00     0.238 A 
HETATM    8  N2  UNL     1      22.646   2.518  52.413  1.00  0.00    -0.222 NA
HETATM    9  C6  UNL     1      23.893   2.951  52.617  1.00  0.00     0.160 A 
HETATM   10  C13 UNL     1      24.775   1.985  53.024  1.00  0.00     0.132 A 
HETATM   11  N4  UNL     1      26.075   2.518  53.213  1.00  0.00    -0.359 N 
HETATM   12  C14 UNL     1      27.191   1.894  53.878  1.00  0.00     0.101 C 
HETATM   13  C15 UNL     1      27.402   0.568  54.006  1.00  0.00     0.019 C 
HETATM   14  H11 UNL     1      26.280   3.463  52.839  1.00  0.00     0.165 HD
ENDROOT
BRANCH   9  15
HETATM   15  N3  UNL     1      24.232   4.309  52.418  1.00  0.00    -0.339 N 
HETATM   16  H6  UNL     1      24.648   5.057  52.997  1.00  0.00     0.167 HD
BRANCH  15  17
HETATM   17  C7  UNL     1      24.010   4.979  51.188  1.00  0.00     0.035 A 
HETATM   18  C8  UNL     1      24.691   4.791  49.980  1.00  0.00     0.029 A 
HETATM   19  C9  UNL     1      24.467   5.469  48.807  1.00  0.00     0.004 A 
HETATM   20  C10 UNL     1      23.493   6.420  48.796  1.00  0.00     0.019 A 
HETATM   21  C11 UNL     1      22.786   6.650  49.958  1.00  0.00     0.013 A 
HETATM   22 BR1  UNL     1      21.442   8.021  49.789  1.00  0.00    -0.051 Br
HETATM   23  C12 UNL     1      23.036   5.953  51.119  1.00  0.00     0.048 A 
ENDBRANCH  15  17
ENDBRANCH   9  15
BRANCH  13  24
HETATM   24  C16 UNL     1      28.650   0.213  54.769  1.00  0.00     0.265 C 
HETATM   25  F1  UNL     1      29.782   0.684  54.129  1.00  0.00    -0.250 F 
ENDBRANCH  13  24
TORSDOF 3
ENDMDL
MODEL 4
REMARK VINA RESULT:      -7.6      5.088      6.985
REMARK  3 active torsions:
REMARK  status: ('A' for Active; 'I' for Inactive)
REMARK    1  A    between atoms: C6_9  and  N3_10 
REMARK    2  A    between atoms: N3_10  and  C7_11 
REMARK    3  A    between atoms: C15_21  and  C16_22 
ROOT
HETATM    1  C1  UNL     1      27.777   9.262  49.970  1.00  0.00     0.039 C 
HETATM    2  C2  UNL     1      26.553   8.477  50.174  1.00  0.00     0.007 C 
HETATM    3  C3  UNL     1      25.879   7.385  49.887  1.00  0.00     0.084 C 
HETATM    4  O1  UNL     1      24.601   6.972  50.349  1.00  0.00    -0.290 OA
HETATM    5  C4  UNL     1      24.255   5.699  50.848  1.00  0.00     0.202 A 
HETATM    6  N1  UNL     1      23.163   5.768  51.628  1.00  0.00    -0.215 NA
HETATM    7  C5  UNL     1      22.669   4.631  52.206  1.00  0.00     0.238 A 
HETATM    8  N2  UNL     1      23.282   3.465  51.987  1.00  0.00    -0.222 NA
HETATM    9  C6  UNL     1      24.369   3.311  51.227  1.00  0.00     0.160 A 
HETATM   10  C13 UNL     1      24.841   4.466  50.661  1.00  0.00     0.132 A 
HETATM   11  N4  UNL     1      25.997   4.224  49.876  1.00  0.00    -0.359 N 
HETATM   12  C14 UNL     1      26.616   5.115  48.928  1.00  0.00     0.101 C 
HETATM   13  C15 UNL     1      26.557   6.462  48.946  1.00  0.00     0.019 C 
HETATM   14  H11 UNL     1      26.477   3.310  49.975  1.00  0.00     0.165 HD
ENDROOT
BRANCH   9  15
HETATM   15  N3  UNL     1      24.954   2.036  51.045  1.00  0.00    -0.339 N 
HETATM   16  H6  UNL     1      25.130   1.414  50.239  1.00  0.00     0.167 HD
BRANCH  15  17
HETATM   17  C7  UNL     1      25.472   1.274  52.122  1.00  0.00     0.035 A 
HETATM   18  C8  UNL     1      24.760   0.475  53.023  1.00  0.00     0.029 A 
HETATM   19  C9  UNL     1      25.289  -0.238  54.070  1.00  0.00     0.004 A 
HETATM   20  C10 UNL     1      26.634  -0.177  54.270  1.00  0.00     0.019 A 
HETATM   21  C11 UNL     1      27.390   0.594  53.412  1.00  0.00     0.013 A 
HETATM   22 BR1  UNL     1      29.275   0.582  53.818  1.00  0.00    -0.051 Br
HETATM   23  C12 UNL     1      26.829   1.300  52.371  1.00  0.00     0.048 A 
ENDBRANCH  15  17
ENDBRANCH   9  15
BRANCH  13  24
HETATM   24  C16 UNL     1      27.292   7.126  47.812  1.00  0.00     0.265 C 
HETATM   25  F1  UNL     1      28.451   6.442  47.494  1.00  0.00    -0.250 F 
ENDBRANCH  13  24
TORSDOF 3
ENDMDL
MODEL 5
REMARK VINA RESULT:      -7.5      3.514      7.035
REMARK  3 active torsions:
REMARK  status: ('A' for Active; 'I' for Inactive)
REMARK    1  A    between atoms: C6_9  and  N3_10 
REMARK    2  A    between atoms: N3_10  and  C7_11 
REMARK    3  A    between atoms: C15_21  and  C16_22 
ROOT
HETATM    1  C1  UNL     1      18.939  -0.892  53.158  1.00  0.00     0.039 C 
HETATM    2  C2  UNL     1      19.795   0.298  53.074  1.00  0.00     0.007 C 
HETATM    3  C3  UNL     1      20.991   0.814  53.250  1.00  0.00     0.084 C 
HETATM    4  O1  UNL     1      21.437   2.143  53.024  1.00  0.00    -0.290 OA
HETATM    5  C4  UNL     1      22.605   2.536  52.339  1.00  0.00     0.202 A 
HETATM    6  N1  UNL     1      22.495   3.795  51.881  1.00  0.00    -0.215 NA
HETATM    7  C5  UNL     1      23.531   4.359  51.189  1.00  0.00     0.238 A 
HETATM    8  N2  UNL     1      24.641   3.647  50.976  1.00  0.00    -0.222 NA
HETATM    9  C6  UNL     1      24.830   2.393  51.396  1.00  0.00     0.160 A 
HETATM   10  C13 UNL     1      23.777   1.855  52.087  1.00  0.00     0.132 A 
HETATM   11  N4  UNL     1      24.048   0.524  52.493  1.00  0.00    -0.359 N 
HETATM   12  C14 UNL     1      23.315  -0.270  53.447  1.00  0.00     0.101 C 
HETATM   13  C15 UNL     1      22.011  -0.134  53.759  1.00  0.00     0.019 C 
HETATM   14  H11 UNL     1      24.860   0.036  52.071  1.00  0.00     0.165 HD
ENDROOT
BRANCH   9  15
HETATM   15  N3  UNL     1      26.041   1.712  51.129  1.00  0.00    -0.339 N 
HETATM   16  H6  UNL     1      26.454   1.238  50.310  1.00  0.00     0.167 HD
BRANCH  15  17
HETATM   17  C7  UNL     1      27.048   1.534  52.111  1.00  0.00     0.035 A 
HETATM   18  C8  UNL     1      27.606   2.508  52.947  1.00  0.00     0.029 A 
HETATM   19  C9  UNL     1      28.596   2.308  53.877  1.00  0.00     0.004 A 
HETATM   20  C10 UNL     1      29.098   1.051  54.017  1.00  0.00     0.019 A 
HETATM   21  C11 UNL     1      28.587   0.048  53.219  1.00  0.00     0.013 A 
HETATM   22 BR1  UNL     1      29.393  -1.675  53.530  1.00  0.00    -0.051 Br
HETATM   23  C12 UNL     1      27.593   0.280  52.294  1.00  0.00     0.048 A 
ENDBRANCH  15  17
ENDBRANCH   9  15
BRANCH  13  24
HETATM   24  C16 UNL     1      21.525  -1.099  54.807  1.00  0.00     0.265 C 
HETATM   25  F1  UNL     1      21.730  -2.411  54.418  1.00  0.00    -0.250 F 
ENDBRANCH  13  24
TORSDOF 3
ENDMDL
MODEL 6
REMARK VINA RESULT:      -7.5      3.577      4.759
REMARK  3 active torsions:
REMARK  status: ('A' for Active; 'I' for Inactive)
REMARK    1  A    between atoms: C6_9  and  N3_10 
REMARK    2  A    between atoms: N3_10  and  C7_11 
REMARK    3  A    between atoms: C15_21  and  C16_22 
ROOT
HETATM    1  C1  UNL     1      26.830  -1.675  52.523  1.00  0.00     0.039 C 
HETATM    2  C2  UNL     1      25.567  -0.961  52.752  1.00  0.00     0.007 C 
HETATM    3  C3  UNL     1      24.975   0.118  53.215  1.00  0.00     0.084 C 
HETATM    4  O1  UNL     1      23.592   0.439  53.244  1.00  0.00    -0.290 OA
HETATM    5  C4  UNL     1      23.000   1.656  52.847  1.00  0.00     0.202 A 
HETATM    6  N1  UNL     1      21.704   1.483  52.536  1.00  0.00    -0.215 NA
HETATM    7  C5  UNL     1      20.955   2.552  52.128  1.00  0.00     0.238 A 
HETATM    8  N2  UNL     1      21.525   3.757  52.044  1.00  0.00    -0.222 NA
HETATM    9  C6  UNL     1      22.804   4.014  52.333  1.00  0.00     0.160 A 
HETATM   10  C13 UNL     1      23.529   2.925  52.739  1.00  0.00     0.132 A 
HETATM   11  N4  UNL     1      24.874   3.273  53.021  1.00  0.00    -0.359 N 
HETATM   12  C14 UNL     1      25.860   2.481  53.713  1.00  0.00     0.101 C 
HETATM   13  C15 UNL     1      25.889   1.135  53.786  1.00  0.00     0.019 C 
HETATM   14  H11 UNL     1      25.220   4.198  52.704  1.00  0.00     0.165 HD
ENDROOT
BRANCH   9  15
HETATM   15  N3  UNL     1      23.326   5.323  52.219  1.00  0.00    -0.339 N 
HETATM   16  H6  UNL     1      23.420   6.137  52.849  1.00  0.00     0.167 HD
BRANCH  15  17
HETATM   17  C7  UNL     1      23.894   5.815  51.017  1.00  0.00     0.035 A 
HETATM   18  C8  UNL     1      23.677   5.347  49.716  1.00  0.00     0.029 A 
HETATM   19  C9  UNL     1      24.258   5.833  48.571  1.00  0.00     0.004 A 
HETATM   20  C10 UNL     1      25.131   6.871  48.688  1.00  0.00     0.019 A 
HETATM   21  C11 UNL     1      25.386   7.375  49.946  1.00  0.00     0.013 A 
HETATM   22 BR1  UNL     1      26.640   8.839  49.954  1.00  0.00    -0.051 Br
HETATM   23  C12 UNL     1      24.788   6.865  51.077  1.00  0.00     0.048 A 
ENDBRANCH  15  17
ENDBRANCH   9  15
BRANCH  13  24
HETATM   24  C16 UNL     1      27.035   0.588  54.595  1.00  0.00     0.265 C 
HETATM   25  F1  UNL     1      26.583  -0.106  55.703  1.00  0.00    -0.250 F 
ENDBRANCH  13  24
TORSDOF 3
ENDMDL
MODEL 7
REMARK VINA RESULT:      -7.4      4.827      6.966
REMARK  3 active torsions:
REMARK  status: ('A' for Active; 'I' for Inactive)
REMARK    1  A    between atoms: C6_9  and  N3_10 
REMARK    2  A    between atoms: N3_10  and  C7_11 
REMARK    3  A    between atoms: C15_21  and  C16_22 
ROOT
HETATM    1  C1  UNL     1      23.126  -0.982  53.595  1.00  0.00     0.039 C 
HETATM    2  C2  UNL     1      23.322   0.468  53.467  1.00  0.00     0.007 C 
HETATM    3  C3  UNL     1      24.114   1.448  53.092  1.00  0.00     0.084 C 
HETATM    4  O1  UNL     1      23.895   2.850  53.147  1.00  0.00    -0.290 OA
HETATM    5  C4  UNL     1      24.121   3.780  52.111  1.00  0.00     0.202 A 
HETATM    6  N1  UNL     1      23.385   4.890  52.293  1.00  0.00    -0.215 NA
HETATM    7  C5  UNL     1      23.469   5.915  51.389  1.00  0.00     0.238 A 
HETATM    8  N2  UNL     1      24.282   5.795  50.337  1.00  0.00    -0.222 NA
HETATM    9  C6  UNL     1      25.045   4.728  50.084  1.00  0.00     0.160 A 
HETATM   10  C13 UNL     1      24.941   3.719  51.005  1.00  0.00     0.132 A 
HETATM   11  N4  UNL     1      25.772   2.622  50.667  1.00  0.00    -0.359 N 
HETATM   12  C14 UNL     1      26.137   1.506  51.504  1.00  0.00     0.101 C 
HETATM   13  C15 UNL     1      25.419   1.017  52.535  1.00  0.00     0.019 C 
HETATM   14  H11 UNL     1      26.179   2.587  49.714  1.00  0.00     0.165 HD
ENDROOT
BRANCH   9  15
HETATM   15  N3  UNL     1      25.881   4.686  48.946  1.00  0.00    -0.339 N 
HETATM   16  H6  UNL     1      25.953   4.090  48.105  1.00  0.00     0.167 HD
BRANCH  15  17
HETATM   17  C7  UNL     1      26.941   5.606  48.743  1.00  0.00     0.035 A 
HETATM   18  C8  UNL     1      26.879   7.004  48.789  1.00  0.00     0.029 A 
HETATM   19  C9  UNL     1      27.921   7.870  48.570  1.00  0.00     0.004 A 
HETATM   20  C10 UNL     1      29.141   7.342  48.279  1.00  0.00     0.019 A 
HETATM   21  C11 UNL     1      29.265   5.970  48.219  1.00  0.00     0.013 A 
HETATM   22 BR1  UNL     1      31.048   5.370  47.798  1.00  0.00    -0.051 Br
HETATM   23  C12 UNL     1      28.199   5.126  48.443  1.00  0.00     0.048 A 
ENDBRANCH  15  17
ENDBRANCH   9  15
BRANCH  13  24
HETATM   24  C16 UNL     1      26.064  -0.149  53.237  1.00  0.00     0.265 C 
HETATM   25  F1  UNL     1      26.365  -1.166  52.350  1.00  0.00    -0.250 F 
ENDBRANCH  13  24
TORSDOF 3
ENDMDL
MODEL 8
REMARK VINA RESULT:      -7.3      2.531      3.629
REMARK  3 active torsions:
REMARK  status: ('A' for Active; 'I' for Inactive)
REMARK    1  A    between atoms: C6_9  and  N3_10 
REMARK    2  A    between atoms: N3_10  and  C7_11 
REMARK    3  A    between atoms: C15_21  and  C16_22 
ROOT
HETATM    1  C1  UNL     1      29.388  -0.130  53.916  1.00  0.00     0.039 C 
HETATM    2  C2  UNL     1      28.435   0.558  53.036  1.00  0.00     0.007 C 
HETATM    3  C3  UNL     1      27.242   0.557  52.482  1.00  0.00     0.084 C 
HETATM    4  O1  UNL     1      26.659   1.511  51.607  1.00  0.00    -0.290 OA
HETATM    5  C4  UNL     1      25.370   2.074  51.710  1.00  0.00     0.202 A 
HETATM    6  N1  UNL     1      25.305   3.250  51.061  1.00  0.00    -0.215 NA
HETATM    7  C5  UNL     1      24.130   3.951  51.045  1.00  0.00     0.238 A 
HETATM    8  N2  UNL     1      23.063   3.457  51.677  1.00  0.00    -0.222 NA
HETATM    9  C6  UNL     1      23.045   2.299  52.344  1.00  0.00     0.160 A 
HETATM   10  C13 UNL     1      24.233   1.618  52.342  1.00  0.00     0.132 A 
HETATM   11  N4  UNL     1      24.138   0.407  53.072  1.00  0.00    -0.359 N 
HETATM   12  C14 UNL     1      25.073  -0.690  53.079  1.00  0.00     0.101 C 
HETATM   13  C15 UNL     1      26.395  -0.610  52.826  1.00  0.00     0.019 C 
HETATM   14  H11 UNL     1      23.313   0.264  53.683  1.00  0.00     0.165 HD
ENDROOT
BRANCH   9  15
HETATM   15  N3  UNL     1      21.867   1.848  52.983  1.00  0.00    -0.339 N 
HETATM   16  H6  UNL     1      21.602   1.602  53.951  1.00  0.00     0.167 HD
BRANCH  15  17
HETATM   17  C7  UNL     1      20.660   1.610  52.279  1.00  0.00     0.035 A 
HETATM   18  C8  UNL     1      20.270   0.437  51.624  1.00  0.00     0.029 A 
HETATM   19  C9  UNL     1      19.100   0.243  50.934  1.00  0.00     0.004 A 
HETATM   20  C10 UNL     1      18.218   1.278  50.867  1.00  0.00     0.019 A 
HETATM   21  C11 UNL     1      18.547   2.461  51.494  1.00  0.00     0.013 A 
HETATM   22 BR1  UNL     1      17.204   3.832  51.314  1.00  0.00    -0.051 Br
HETATM   23  C12 UNL     1      19.730   2.625  52.179  1.00  0.00     0.048 A 
ENDBRANCH  15  17
ENDBRANCH   9  15
BRANCH  13  24
HETATM   24  C16 UNL     1      27.115  -1.930  52.891  1.00  0.00     0.265 C 
HETATM   25  F1  UNL     1      26.749  -2.757  51.844  1.00  0.00    -0.250 F 
ENDBRANCH  13  24
TORSDOF 3
ENDMDL
MODEL 9
REMARK VINA RESULT:      -7.3      5.785      7.702
REMARK  3 active torsions:
REMARK  status: ('A' for Active; 'I' for Inactive)
REMARK    1  A    between atoms: C6_9  and  N3_10 
REMARK    2  A    between atoms: N3_10  and  C7_11 
REMARK    3  A    between atoms: C15_21  and  C16_22 
ROOT
HETATM    1  C1  UNL     1      30.249   9.427  49.300  1.00  0.00     0.039 C 
HETATM    2  C2  UNL     1      28.843   9.019  49.406  1.00  0.00     0.007 C 
HETATM    3  C3  UNL     1      27.913   8.156  49.059  1.00  0.00     0.084 C 
HETATM    4  O1  UNL     1      26.540   8.123  49.420  1.00  0.00    -0.290 OA
HETATM    5  C4  UNL     1      25.815   7.004  49.880  1.00  0.00     0.202 A 
HETATM    6  N1  UNL     1      24.732   7.385  50.577  1.00  0.00    -0.215 NA
HETATM    7  C5  UNL     1      23.897   6.439  51.106  1.00  0.00     0.238 A 
HETATM    8  N2  UNL     1      24.174   5.145  50.921  1.00  0.00    -0.222 NA
HETATM    9  C6  UNL     1      25.228   4.683  50.243  1.00  0.00     0.160 A 
HETATM   10  C13 UNL     1      26.045   5.653  49.725  1.00  0.00     0.132 A 
HETATM   11  N4  UNL     1      27.141   5.089  49.026  1.00  0.00    -0.359 N 
HETATM   12  C14 UNL     1      28.054   5.760  48.135  1.00  0.00     0.101 C 
HETATM   13  C15 UNL     1      28.374   7.069  48.161  1.00  0.00     0.019 C 
HETATM   14  H11 UNL     1      27.338   4.078  49.152  1.00  0.00     0.165 HD
ENDROOT
BRANCH   9  15
HETATM   15  N3  UNL     1      25.444   3.294  50.093  1.00  0.00    -0.339 N 
HETATM   16  H6  UNL     1      25.466   2.633  49.299  1.00  0.00     0.167 HD
BRANCH  15  17
HETATM   17  C7  UNL     1      25.698   2.438  51.194  1.00  0.00     0.035 A 
HETATM   18  C8  UNL     1      26.914   2.243  51.860  1.00  0.00     0.029 A 
HETATM   19  C9  UNL     1      27.134   1.391  52.914  1.00  0.00     0.004 A 
HETATM   20  C10 UNL     1      26.084   0.657  53.372  1.00  0.00     0.019 A 
HETATM   21  C11 UNL     1      24.860   0.806  52.755  1.00  0.00     0.013 A 
HETATM   22 BR1  UNL     1      23.472  -0.297  53.512  1.00  0.00    -0.051 Br
HETATM   23  C12 UNL     1      24.670   1.669  51.699  1.00  0.00     0.048 A 
ENDBRANCH  15  17
ENDBRANCH   9  15
BRANCH  13  24
HETATM   24  C16 UNL     1      29.347   7.487  47.092  1.00  0.00     0.265 C 
HETATM   25  F1  UNL     1      30.499   6.723  47.132  1.00  0.00    -0.250 F 
ENDBRANCH  13  24
TORSDOF 3
ENDMDL
