MODEL 1
REMARK VINA RESULT:      -8.0      0.000      0.000
REMARK  9 active torsions:
REMARK  status: ('A' for Active; 'I' for Inactive)
REMARK    1  A    between atoms: C2_2  and  N1_3 
REMARK    2  A    between atoms: N1_3  and  C3_4 
REMARK    3  A    between atoms: N1_3  and  C5_6 
REMARK    4  A    between atoms: C5_6  and  C6_7 
REMARK    5  A    between atoms: C6_7  and  C7_8 
REMARK    6  A    between atoms: C7_8  and  C8_9 
REMARK    7  A    between atoms: C8_9  and  C9_11 
REMARK    8  A    between atoms: C14_18  and  N4_19 
REMARK    9  A    between atoms: N4_19  and  C15_20 
ROOT
HETATM    1  C9  UNL     1      21.929   0.615  51.965  1.00  0.00     0.018 A 
HETATM    2  C10 UNL     1      20.654   0.200  52.086  1.00  0.00     0.015 A 
HETATM    3  C11 UNL     1      20.403  -0.481  53.338  1.00  0.00     0.029 A 
HETATM    4  C12 UNL     1      21.523  -0.509  54.040  1.00  0.00     0.052 A 
HETATM    5  N2  UNL     1      21.873  -1.050  55.324  1.00  0.00    -0.245 NA
HETATM    6  C13 UNL     1      23.167  -1.284  55.470  1.00  0.00     0.235 C 
HETATM    7  N3  UNL     1      24.081  -0.977  54.436  1.00  0.00    -0.228 NA
HETATM    8  C14 UNL     1      23.818  -0.424  53.305  1.00  0.00     0.120 C 
HETATM    9  C21 UNL     1      22.504   0.193  53.233  1.00  0.00     0.145 A 
ENDROOT
BRANCH   1  10
HETATM   10  C8  UNL     1      22.309   1.311  50.747  1.00  0.00     0.232 C 
HETATM   11  O1  UNL     1      21.698   1.204  49.660  1.00  0.00    -0.278 OA
BRANCH  10  12
HETATM   12  C7  UNL     1      23.430   2.199  50.663  1.00  0.00    -0.022 C 
BRANCH  12  13
HETATM   13  C6  UNL     1      24.400   2.961  50.584  1.00  0.00    -0.079 C 
BRANCH  13  14
HETATM   14  C5  UNL     1      25.558   3.841  50.502  1.00  0.00     0.212 C 
BRANCH  14  15
HETATM   15  N1  UNL     1      25.320   4.973  49.732  1.00  0.00    -0.403 N 
BRANCH  15  16
HETATM   16  C2  UNL     1      26.274   5.584  48.921  1.00  0.00     0.113 C 
HETATM   17  C1  UNL     1      27.522   4.806  48.691  1.00  0.00     0.026 C 
ENDBRANCH  15  16
BRANCH  15  18
HETATM   18  C3  UNL     1      24.184   5.769  50.129  1.00  0.00     0.113 C 
HETATM   19  C4  UNL     1      24.691   6.982  50.863  1.00  0.00     0.026 C 
ENDBRANCH  15  18
ENDBRANCH  14  15
ENDBRANCH  13  14
ENDBRANCH  12  13
ENDBRANCH  10  12
ENDBRANCH   1  10
BRANCH   8  20
HETATM   20  N4  UNL     1      24.884  -0.248  52.408  1.00  0.00    -0.343 N 
HETATM   21  H16 UNL     1      24.576  -0.137  51.411  1.00  0.00     0.167 HD
BRANCH  20  22
HETATM   22  C15 UNL     1      26.242  -0.228  52.761  1.00  0.00     0.035 A 
HETATM   23  C16 UNL     1      27.079  -1.293  52.860  1.00  0.00     0.032 A 
HETATM   24  C17 UNL     1      28.423  -1.242  53.199  1.00  0.00     0.046 A 
HETATM   25  C18 UNL     1      28.947   0.005  53.459  1.00  0.00     0.138 A 
HETATM   26  F1  UNL     1      30.259   0.040  53.790  1.00  0.00    -0.204 F 
HETATM   27  C19 UNL     1      28.150   1.102  53.373  1.00  0.00     0.074 A 
HETATM   28 CL1  UNL     1      28.964   2.622  53.725  1.00  0.00    -0.081 Cl
HETATM   29  C20 UNL     1      26.827   1.016  53.035  1.00  0.00     0.056 A 
ENDBRANCH  20  22
ENDBRANCH   8  20
TORSDOF 9
ENDMDL
MODEL 2
REMARK VINA RESULT:      -8.0      3.136      6.884
REMARK  9 active torsions:
REMARK  status: ('A' for Active; 'I' for Inactive)
REMARK    1  A    between atoms: C2_2  and  N1_3 
REMARK    2  A    between atoms: N1_3  and  C3_4 
REMARK    3  A    between atoms: N1_3  and  C5_6 
REMARK    4  A    between atoms: C5_6  and  C6_7 
REMARK    5  A    between atoms: C6_7  and  C7_8 
REMARK    6  A    between atoms: C7_8  and  C8_9 
REMARK    7  A    between atoms: C8_9  and  C9_11 
REMARK    8  A    between atoms: C14_18  and  N4_19 
REMARK    9  A    between atoms: N4_19  and  C15_20 
ROOT
HETATM    1  C9  UNL     1      24.725   0.840  53.119  1.00  0.00     0.018 A 
HETATM    2  C10 UNL     1      24.874  -0.120  54.050  1.00  0.00     0.015 A 
HETATM    3  C11 UNL     1      26.143  -0.037  54.741  1.00  0.00     0.029 A 
HETATM    4  C12 UNL     1      26.826   0.986  54.258  1.00  0.00     0.052 A 
HETATM    5  N2  UNL     1      28.123   1.534  54.542  1.00  0.00    -0.245 NA
HETATM    6  C13 UNL     1      28.629   2.251  53.553  1.00  0.00     0.235 C 
HETATM    7  N3  UNL     1      27.900   2.456  52.359  1.00  0.00    -0.228 NA
HETATM    8  C14 UNL     1      26.709   2.047  52.095  1.00  0.00     0.120 C 
HETATM    9  C21 UNL     1      25.965   1.588  53.256  1.00  0.00     0.145 A 
ENDROOT
BRANCH   1  10
HETATM   10  C8  UNL     1      23.490   0.863  52.351  1.00  0.00     0.232 C 
HETATM   11  O1  UNL     1      23.404   1.287  51.177  1.00  0.00    -0.278 OA
BRANCH  10  12
HETATM   12  C7  UNL     1      22.235   0.400  52.863  1.00  0.00    -0.022 C 
BRANCH  12  13
HETATM   13  C6  UNL     1      21.153   0.005  53.310  1.00  0.00    -0.079 C 
BRANCH  13  14
HETATM   14  C5  UNL     1      19.867  -0.459  53.814  1.00  0.00     0.212 C 
BRANCH  14  15
HETATM   15  N1  UNL     1      18.932  -0.658  52.806  1.00  0.00    -0.403 N 
BRANCH  15  16
HETATM   16  C2  UNL     1      18.992  -0.054  51.552  1.00  0.00     0.113 C 
HETATM   17  C1  UNL     1      17.690   0.114  50.851  1.00  0.00     0.026 C 
ENDBRANCH  15  16
BRANCH  15  18
HETATM   18  C3  UNL     1      17.652  -1.164  53.235  1.00  0.00     0.113 C 
HETATM   19  C4  UNL     1      17.807  -2.626  53.560  1.00  0.00     0.026 C 
ENDBRANCH  15  18
ENDBRANCH  14  15
ENDBRANCH  13  14
ENDBRANCH  12  13
ENDBRANCH  10  12
ENDBRANCH   1  10
BRANCH   8  20
HETATM   20  N4  UNL     1      26.194   2.336  50.822  1.00  0.00    -0.343 N 
HETATM   21  H16 UNL     1      25.861   1.486  50.304  1.00  0.00     0.167 HD
BRANCH  20  22
HETATM   22  C15 UNL     1      26.122   3.616  50.250  1.00  0.00     0.035 A 
HETATM   23  C16 UNL     1      26.935   4.133  49.293  1.00  0.00     0.032 A 
HETATM   24  C17 UNL     1      26.832   5.400  48.737  1.00  0.00     0.046 A 
HETATM   25  C18 UNL     1      25.811   6.198  49.204  1.00  0.00     0.138 A 
HETATM   26  F1  UNL     1      25.723   7.431  48.654  1.00  0.00    -0.204 F 
HETATM   27  C19 UNL     1      24.971   5.726  50.162  1.00  0.00     0.074 A 
HETATM   28 CL1  UNL     1      23.714   6.858  50.649  1.00  0.00    -0.081 Cl
HETATM   29  C20 UNL     1      25.101   4.470  50.689  1.00  0.00     0.056 A 
ENDBRANCH  20  22
ENDBRANCH   8  20
TORSDOF 9
ENDMDL
MODEL 3
REMARK VINA RESULT:      -7.9      3.476      6.220
REMARK  9 active torsions:
REMARK  status: ('A' for Active; 'I' for Inactive)
REMARK    1  A    between atoms: C2_2  and  N1_3 
REMARK    2  A    between atoms: N1_3  and  C3_4 
REMARK    3  A    between atoms: N1_3  and  C5_6 
REMARK    4  A    between atoms: C5_6  and  C6_7 
REMARK    5  A    between atoms: C6_7  and  C7_8 
REMARK    6  A    between atoms: C7_8  and  C8_9 
REMARK    7  A    between atoms: C8_9  and  C9_11 
REMARK    8  A    between atoms: C14_18  and  N4_19 
REMARK    9  A    between atoms: N4_19  and  C15_20 
ROOT
HETATM    1  C9  UNL     1      25.563  -0.367  53.618  1.00  0.00     0.018 A 
HETATM    2  C10 UNL     1      26.217  -1.408  53.068  1.00  0.00     0.015 A 
HETATM    3  C11 UNL     1      27.649  -1.206  53.020  1.00  0.00     0.029 A 
HETATM    4  C12 UNL     1      27.932  -0.025  53.543  1.00  0.00     0.052 A 
HETATM    5  N2  UNL     1      29.155   0.701  53.746  1.00  0.00    -0.245 NA
HETATM    6  C13 UNL     1      28.987   2.007  53.865  1.00  0.00     0.235 C 
HETATM    7  N3  UNL     1      27.696   2.580  53.823  1.00  0.00    -0.228 NA
HETATM    8  C14 UNL     1      26.573   1.959  53.718  1.00  0.00     0.120 C 
HETATM    9  C21 UNL     1      26.657   0.528  53.961  1.00  0.00     0.145 A 
ENDROOT
BRANCH   1  10
HETATM   10  C8  UNL     1      24.115  -0.447  53.722  1.00  0.00     0.232 C 
HETATM   11  O1  UNL     1      23.509  -0.903  54.717  1.00  0.00    -0.278 OA
BRANCH  10  12
HETATM   12  C7  UNL     1      23.225  -0.009  52.689  1.00  0.00    -0.022 C 
BRANCH  12  13
HETATM   13  C6  UNL     1      22.453   0.363  51.799  1.00  0.00    -0.079 C 
BRANCH  13  14
HETATM   14  C5  UNL     1      21.556   0.790  50.733  1.00  0.00     0.212 C 
BRANCH  14  15
HETATM   15  N1  UNL     1      20.458   1.498  51.203  1.00  0.00    -0.403 N 
BRANCH  15  16
HETATM   16  C2  UNL     1      19.640   1.074  52.248  1.00  0.00     0.113 C 
HETATM   17  C1  UNL     1      18.718  -0.051  51.933  1.00  0.00     0.026 C 
ENDBRANCH  15  16
BRANCH  15  18
HETATM   18  C3  UNL     1      19.914   2.478  50.294  1.00  0.00     0.113 C 
HETATM   19  C4  UNL     1      20.285   2.077  48.891  1.00  0.00     0.026 C 
ENDBRANCH  15  18
ENDBRANCH  14  15
ENDBRANCH  13  14
ENDBRANCH  12  13
ENDBRANCH  10  12
ENDBRANCH   1  10
BRANCH   8  20
HETATM   20  N4  UNL     1      25.407   2.739  53.658  1.00  0.00    -0.343 N 
HETATM   21  H16 UNL     1      25.033   3.002  54.602  1.00  0.00     0.167 HD
BRANCH  20  22
HETATM   22  C15 UNL     1      24.763   3.139  52.477  1.00  0.00     0.035 A 
HETATM   23  C16 UNL     1      25.096   2.798  51.206  1.00  0.00     0.032 A 
HETATM   24  C17 UNL     1      24.433   3.199  50.055  1.00  0.00     0.046 A 
HETATM   25  C18 UNL     1      23.337   4.017  50.228  1.00  0.00     0.138 A 
HETATM   26  F1  UNL     1      22.700   4.402  49.098  1.00  0.00    -0.204 F 
HETATM   27  C19 UNL     1      22.964   4.386  51.481  1.00  0.00     0.074 A 
HETATM   28 CL1  UNL     1      21.544   5.424  51.540  1.00  0.00    -0.081 Cl
HETATM   29  C20 UNL     1      23.642   3.972  52.595  1.00  0.00     0.056 A 
ENDBRANCH  20  22
ENDBRANCH   8  20
TORSDOF 9
ENDMDL
MODEL 4
REMARK VINA RESULT:      -7.9      3.282      6.278
REMARK  9 active torsions:
REMARK  status: ('A' for Active; 'I' for Inactive)
REMARK    1  A    between atoms: C2_2  and  N1_3 
REMARK    2  A    between atoms: N1_3  and  C3_4 
REMARK    3  A    between atoms: N1_3  and  C5_6 
REMARK    4  A    between atoms: C5_6  and  C6_7 
REMARK    5  A    between atoms: C6_7  and  C7_8 
REMARK    6  A    between atoms: C7_8  and  C8_9 
REMARK    7  A    between atoms: C8_9  and  C9_11 
REMARK    8  A    between atoms: C14_18  and  N4_19 
REMARK    9  A    between atoms: N4_19  and  C15_20 
ROOT
HETATM    1  C9  UNL     1      23.235   1.907  51.790  1.00  0.00     0.018 A 
HETATM    2  C10 UNL     1      22.306   1.029  52.212  1.00  0.00     0.015 A 
HETATM    3  C11 UNL     1      21.469   0.542  51.137  1.00  0.00     0.029 A 
HETATM    4  C12 UNL     1      21.855   1.105  50.005  1.00  0.00     0.052 A 
HETATM    5  N2  UNL     1      21.397   1.015  48.647  1.00  0.00    -0.245 NA
HETATM    6  C13 UNL     1      21.726   2.057  47.902  1.00  0.00     0.235 C 
HETATM    7  N3  UNL     1      22.490   3.120  48.436  1.00  0.00    -0.228 NA
HETATM    8  C14 UNL     1      22.982   3.203  49.623  1.00  0.00     0.120 C 
HETATM    9  C21 UNL     1      22.982   1.949  50.359  1.00  0.00     0.145 A 
ENDROOT
BRANCH   1  10
HETATM   10  C8  UNL     1      24.139   2.473  52.779  1.00  0.00     0.232 C 
HETATM   11  O1  UNL     1      24.174   3.687  53.081  1.00  0.00    -0.278 OA
BRANCH  10  12
HETATM   12  C7  UNL     1      25.091   1.696  53.514  1.00  0.00    -0.022 C 
BRANCH  12  13
HETATM   13  C6  UNL     1      25.918   1.028  54.144  1.00  0.00    -0.079 C 
BRANCH  13  14
HETATM   14  C5  UNL     1      26.899   0.262  54.900  1.00  0.00     0.212 C 
BRANCH  14  15
HETATM   15  N1  UNL     1      28.126   0.170  54.254  1.00  0.00    -0.403 N 
BRANCH  15  16
HETATM   16  C2  UNL     1      29.120   1.144  54.319  1.00  0.00     0.113 C 
HETATM   17  C1  UNL     1      28.787   2.453  53.693  1.00  0.00     0.026 C 
ENDBRANCH  15  16
BRANCH  15  18
HETATM   18  C3  UNL     1      28.181  -0.758  53.151  1.00  0.00     0.113 C 
HETATM   19  C4  UNL     1      29.389  -1.637  53.334  1.00  0.00     0.026 C 
ENDBRANCH  15  18
ENDBRANCH  14  15
ENDBRANCH  13  14
ENDBRANCH  12  13
ENDBRANCH  10  12
ENDBRANCH   1  10
BRANCH   8  20
HETATM   20  N4  UNL     1      23.680   4.375  49.952  1.00  0.00    -0.343 N 
HETATM   21  H16 UNL     1      23.145   5.016  50.587  1.00  0.00     0.167 HD
BRANCH  20  22
HETATM   22  C15 UNL     1      24.964   4.707  49.491  1.00  0.00     0.035 A 
HETATM   23  C16 UNL     1      26.075   3.927  49.528  1.00  0.00     0.032 A 
HETATM   24  C17 UNL     1      27.331   4.276  49.053  1.00  0.00     0.046 A 
HETATM   25  C18 UNL     1      27.452   5.530  48.495  1.00  0.00     0.138 A 
HETATM   26  F1  UNL     1      28.682   5.859  48.037  1.00  0.00    -0.204 F 
HETATM   27  C19 UNL     1      26.370   6.348  48.436  1.00  0.00     0.074 A 
HETATM   28 CL1  UNL     1      26.680   7.912  47.690  1.00  0.00    -0.081 Cl
HETATM   29  C20 UNL     1      25.145   5.972  48.914  1.00  0.00     0.056 A 
ENDBRANCH  20  22
ENDBRANCH   8  20
TORSDOF 9
ENDMDL
MODEL 5
REMARK VINA RESULT:      -7.8      3.045      5.300
REMARK  9 active torsions:
REMARK  status: ('A' for Active; 'I' for Inactive)
REMARK    1  A    between atoms: C2_2  and  N1_3 
REMARK    2  A    between atoms: N1_3  and  C3_4 
REMARK    3  A    between atoms: N1_3  and  C5_6 
REMARK    4  A    between atoms: C5_6  and  C6_7 
REMARK    5  A    between atoms: C6_7  and  C7_8 
REMARK    6  A    between atoms: C7_8  and  C8_9 
REMARK    7  A    between atoms: C8_9  and  C9_11 
REMARK    8  A    between atoms: C14_18  and  N4_19 
REMARK    9  A    between atoms: N4_19  and  C15_20 
ROOT
HETATM    1  C9  UNL     1      22.053  -0.710  53.840  1.00  0.00     0.018 A 
HETATM    2  C10 UNL     1      21.033  -1.410  54.371  1.00  0.00     0.015 A 
HETATM    3  C11 UNL     1      19.764  -1.114  53.741  1.00  0.00     0.029 A 
HETATM    4  C12 UNL     1      19.958  -0.214  52.792  1.00  0.00     0.052 A 
HETATM    5  N2  UNL     1      19.085   0.452  51.867  1.00  0.00    -0.245 NA
HETATM    6  C13 UNL     1      19.565   1.595  51.407  1.00  0.00     0.235 C 
HETATM    7  N3  UNL     1      20.843   2.055  51.799  1.00  0.00    -0.228 NA
HETATM    8  C14 UNL     1      21.684   1.454  52.565  1.00  0.00     0.120 C 
HETATM    9  C21 UNL     1      21.385   0.050  52.795  1.00  0.00     0.145 A 
ENDROOT
BRANCH   1  10
HETATM   10  C8  UNL     1      23.383  -0.917  54.389  1.00  0.00     0.232 C 
HETATM   11  O1  UNL     1      23.605  -1.309  55.557  1.00  0.00    -0.278 OA
BRANCH  10  12
HETATM   12  C7  UNL     1      24.587  -0.691  53.646  1.00  0.00    -0.022 C 
BRANCH  12  13
HETATM   13  C6  UNL     1      25.625  -0.488  53.006  1.00  0.00    -0.079 C 
BRANCH  13  14
HETATM   14  C5  UNL     1      26.835  -0.233  52.238  1.00  0.00     0.212 C 
BRANCH  14  15
HETATM   15  N1  UNL     1      27.784   0.490  52.951  1.00  0.00    -0.403 N 
BRANCH  15  16
HETATM   16  C2  UNL     1      28.559  -0.038  53.982  1.00  0.00     0.113 C 
HETATM   17  C1  UNL     1      29.643  -0.969  53.566  1.00  0.00     0.026 C 
ENDBRANCH  15  16
BRANCH  15  18
HETATM   18  C3  UNL     1      27.643   1.924  52.899  1.00  0.00     0.113 C 
HETATM   19  C4  UNL     1      28.795   2.539  53.647  1.00  0.00     0.026 C 
ENDBRANCH  15  18
ENDBRANCH  14  15
ENDBRANCH  13  14
ENDBRANCH  12  13
ENDBRANCH  10  12
ENDBRANCH   1  10
BRANCH   8  20
HETATM   20  N4  UNL     1      22.887   2.118  52.852  1.00  0.00    -0.343 N 
HETATM   21  H16 UNL     1      23.194   2.014  53.850  1.00  0.00     0.167 HD
BRANCH  20  22
HETATM   22  C15 UNL     1      23.635   2.869  51.931  1.00  0.00     0.035 A 
HETATM   23  C16 UNL     1      24.398   2.394  50.913  1.00  0.00     0.032 A 
HETATM   24  C17 UNL     1      25.117   3.161  50.009  1.00  0.00     0.046 A 
HETATM   25  C18 UNL     1      25.045   4.528  50.165  1.00  0.00     0.138 A 
HETATM   26  F1  UNL     1      25.753   5.265  49.278  1.00  0.00    -0.204 F 
HETATM   27  C19 UNL     1      24.295   5.052  51.170  1.00  0.00     0.074 A 
HETATM   28 CL1  UNL     1      24.297   6.812  51.236  1.00  0.00    -0.081 Cl
HETATM   29  C20 UNL     1      23.598   4.266  52.045  1.00  0.00     0.056 A 
ENDBRANCH  20  22
ENDBRANCH   8  20
TORSDOF 9
ENDMDL
MODEL 6
REMARK VINA RESULT:      -7.5      3.984      6.365
REMARK  9 active torsions:
REMARK  status: ('A' for Active; 'I' for Inactive)
REMARK    1  A    between atoms: C2_2  and  N1_3 
REMARK    2  A    between atoms: N1_3  and  C3_4 
REMARK    3  A    between atoms: N1_3  and  C5_6 
REMARK    4  A    between atoms: C5_6  and  C6_7 
REMARK    5  A    between atoms: C6_7  and  C7_8 
REMARK    6  A    between atoms: C7_8  and  C8_9 
REMARK    7  A    between atoms: C8_9  and  C9_11 
REMARK    8  A    between atoms: C14_18  and  N4_19 
REMARK    9  A    between atoms: N4_19  and  C15_20 
ROOT
HETATM    1  C9  UNL     1      22.607  -0.012  53.182  1.00  0.00     0.018 A 
HETATM    2  C10 UNL     1      22.517  -0.749  54.305  1.00  0.00     0.015 A 
HETATM    3  C11 UNL     1      21.177  -1.237  54.548  1.00  0.00     0.029 A 
HETATM    4  C12 UNL     1      20.386  -0.815  53.576  1.00  0.00     0.052 A 
HETATM    5  N2  UNL     1      18.986  -0.973  53.300  1.00  0.00    -0.245 NA
HETATM    6  C13 UNL     1      18.489  -0.038  52.507  1.00  0.00     0.235 C 
HETATM    7  N3  UNL     1      19.315   0.980  51.980  1.00  0.00    -0.228 NA
HETATM    8  C14 UNL     1      20.584   1.113  52.142  1.00  0.00     0.120 C 
HETATM    9  C21 UNL     1      21.245  -0.066  52.676  1.00  0.00     0.145 A 
ENDROOT
BRANCH   1  10
HETATM   10  C8  UNL     1      23.906   0.539  52.828  1.00  0.00     0.232 C 
HETATM   11  O1  UNL     1      24.125   1.201  51.789  1.00  0.00    -0.278 OA
BRANCH  10  12
HETATM   12  C7  UNL     1      25.077   0.380  53.637  1.00  0.00    -0.022 C 
BRANCH  12  13
HETATM   13  C6  UNL     1      26.084   0.246  54.340  1.00  0.00    -0.079 C 
BRANCH  13  14
HETATM   14  C5  UNL     1      27.281   0.109  55.159  1.00  0.00     0.212 C 
BRANCH  14  15
HETATM   15  N1  UNL     1      28.454   0.244  54.427  1.00  0.00    -0.403 N 
BRANCH  15  16
HETATM   16  C2  UNL     1      29.237   1.396  54.406  1.00  0.00     0.113 C 
HETATM   17  C1  UNL     1      28.712   2.521  53.585  1.00  0.00     0.026 C 
ENDBRANCH  15  16
BRANCH  15  18
HETATM   18  C3  UNL     1      28.617  -0.686  53.336  1.00  0.00     0.113 C 
HETATM   19  C4  UNL     1      29.918  -1.418  53.530  1.00  0.00     0.026 C 
ENDBRANCH  15  18
ENDBRANCH  14  15
ENDBRANCH  13  14
ENDBRANCH  12  13
ENDBRANCH  10  12
ENDBRANCH   1  10
BRANCH   8  20
HETATM   20  N4  UNL     1      21.198   2.230  51.553  1.00  0.00    -0.343 N 
HETATM   21  H16 UNL     1      21.415   2.996  52.237  1.00  0.00     0.167 HD
BRANCH  20  22
HETATM   22  C15 UNL     1      21.498   2.361  50.188  1.00  0.00     0.035 A 
HETATM   23  C16 UNL     1      21.656   1.360  49.284  1.00  0.00     0.032 A 
HETATM   24  C17 UNL     1      21.940   1.518  47.935  1.00  0.00     0.046 A 
HETATM   25  C18 UNL     1      22.074   2.813  47.481  1.00  0.00     0.138 A 
HETATM   26  F1  UNL     1      22.352   2.954  46.165  1.00  0.00    -0.204 F 
HETATM   27  C19 UNL     1      21.926   3.849  48.348  1.00  0.00     0.074 A 
HETATM   28 CL1  UNL     1      22.117   5.439  47.618  1.00  0.00    -0.081 Cl
HETATM   29  C20 UNL     1      21.645   3.656  49.673  1.00  0.00     0.056 A 
ENDBRANCH  20  22
ENDBRANCH   8  20
TORSDOF 9
ENDMDL
MODEL 7
REMARK VINA RESULT:      -7.5      2.376      6.070
REMARK  9 active torsions:
REMARK  status: ('A' for Active; 'I' for Inactive)
REMARK    1  A    between atoms: C2_2  and  N1_3 
REMARK    2  A    between atoms: N1_3  and  C3_4 
REMARK    3  A    between atoms: N1_3  and  C5_6 
REMARK    4  A    between atoms: C5_6  and  C6_7 
REMARK    5  A    between atoms: C6_7  and  C7_8 
REMARK    6  A    between atoms: C7_8  and  C8_9 
REMARK    7  A    between atoms: C8_9  and  C9_11 
REMARK    8  A    between atoms: C14_18  and  N4_19 
REMARK    9  A    between atoms: N4_19  and  C15_20 
ROOT
HETATM    1  C9  UNL     1      23.317   1.471  51.753  1.00  0.00     0.018 A 
HETATM    2  C10 UNL     1      22.328   2.109  51.100  1.00  0.00     0.015 A 
HETATM    3  C11 UNL     1      22.821   3.005  50.077  1.00  0.00     0.029 A 
HETATM    4  C12 UNL     1      24.142   2.950  50.061  1.00  0.00     0.052 A 
HETATM    5  N2  UNL     1      25.152   3.614  49.285  1.00  0.00    -0.245 NA
HETATM    6  C13 UNL     1      26.339   3.646  49.867  1.00  0.00     0.235 C 
HETATM    7  N3  UNL     1      26.547   3.034  51.124  1.00  0.00    -0.228 NA
HETATM    8  C14 UNL     1      25.691   2.367  51.816  1.00  0.00     0.120 C 
HETATM    9  C21 UNL     1      24.501   1.977  51.077  1.00  0.00     0.145 A 
ENDROOT
BRANCH   1  10
HETATM   10  C8  UNL     1      22.950   0.541  52.810  1.00  0.00     0.232 C 
HETATM   11  O1  UNL     1      23.758   0.078  53.646  1.00  0.00    -0.278 OA
BRANCH  10  12
HETATM   12  C7  UNL     1      21.617   0.055  53.005  1.00  0.00    -0.022 C 
BRANCH  12  13
HETATM   13  C6  UNL     1      20.464  -0.357  53.172  1.00  0.00    -0.079 C 
BRANCH  13  14
HETATM   14  C5  UNL     1      19.100  -0.822  53.380  1.00  0.00     0.212 C 
BRANCH  14  15
HETATM   15  N1  UNL     1      18.273  -0.571  52.291  1.00  0.00    -0.403 N 
BRANCH  15  16
HETATM   16  C2  UNL     1      18.664   0.138  51.157  1.00  0.00     0.113 C 
HETATM   17  C1  UNL     1      17.613   0.333  50.121  1.00  0.00     0.026 C 
ENDBRANCH  15  16
BRANCH  15  18
HETATM   18  C3  UNL     1      16.858  -0.682  52.545  1.00  0.00     0.113 C 
HETATM   19  C4  UNL     1      16.522  -2.139  52.716  1.00  0.00     0.026 C 
ENDBRANCH  15  18
ENDBRANCH  14  15
ENDBRANCH  13  14
ENDBRANCH  12  13
ENDBRANCH  10  12
ENDBRANCH   1  10
BRANCH   8  20
HETATM   20  N4  UNL     1      26.108   1.878  53.064  1.00  0.00    -0.343 N 
HETATM   21  H16 UNL     1      25.464   2.139  53.850  1.00  0.00     0.167 HD
BRANCH  20  22
HETATM   22  C15 UNL     1      27.268   1.121  53.288  1.00  0.00     0.035 A 
HETATM   23  C16 UNL     1      28.459   1.568  53.765  1.00  0.00     0.032 A 
HETATM   24  C17 UNL     1      29.588   0.794  53.989  1.00  0.00     0.046 A 
HETATM   25  C18 UNL     1      29.482  -0.549  53.699  1.00  0.00     0.138 A 
HETATM   26  F1  UNL     1      30.590  -1.293  53.921  1.00  0.00    -0.204 F 
HETATM   27  C19 UNL     1      28.311  -1.044  53.219  1.00  0.00     0.074 A 
HETATM   28 CL1  UNL     1      28.329  -2.776  52.904  1.00  0.00    -0.081 Cl
HETATM   29  C20 UNL     1      27.216  -0.252  53.010  1.00  0.00     0.056 A 
ENDBRANCH  20  22
ENDBRANCH   8  20
TORSDOF 9
ENDMDL
MODEL 8
REMARK VINA RESULT:      -7.5      2.905      5.385
REMARK  9 active torsions:
REMARK  status: ('A' for Active; 'I' for Inactive)
REMARK    1  A    between atoms: C2_2  and  N1_3 
REMARK    2  A    between atoms: N1_3  and  C3_4 
REMARK    3  A    between atoms: N1_3  and  C5_6 
REMARK    4  A    between atoms: C5_6  and  C6_7 
REMARK    5  A    between atoms: C6_7  and  C7_8 
REMARK    6  A    between atoms: C7_8  and  C8_9 
REMARK    7  A    between atoms: C8_9  and  C9_11 
REMARK    8  A    between atoms: C14_18  and  N4_19 
REMARK    9  A    between atoms: N4_19  and  C15_20 
ROOT
HETATM    1  C9  UNL     1      25.408   4.815  49.634  1.00  0.00     0.018 A 
HETATM    2  C10 UNL     1      24.902   5.830  48.909  1.00  0.00     0.015 A 
HETATM    3  C11 UNL     1      23.653   6.330  49.442  1.00  0.00     0.029 A 
HETATM    4  C12 UNL     1      23.342   5.637  50.523  1.00  0.00     0.052 A 
HETATM    5  N2  UNL     1      22.238   5.676  51.441  1.00  0.00    -0.245 NA
HETATM    6  C13 UNL     1      22.054   4.547  52.104  1.00  0.00     0.235 C 
HETATM    7  N3  UNL     1      22.918   3.444  51.913  1.00  0.00    -0.228 NA
HETATM    8  C14 UNL     1      23.959   3.394  51.159  1.00  0.00     0.120 C 
HETATM    9  C21 UNL     1      24.429   4.692  50.703  1.00  0.00     0.145 A 
ENDROOT
BRANCH   1  10
HETATM   10  C8  UNL     1      26.662   4.222  49.199  1.00  0.00     0.232 C 
HETATM   11  O1  UNL     1      26.903   2.994  49.229  1.00  0.00    -0.278 OA
BRANCH  10  12
HETATM   12  C7  UNL     1      27.760   4.986  48.688  1.00  0.00    -0.022 C 
BRANCH  12  13
HETATM   13  C6  UNL     1      28.704   5.652  48.248  1.00  0.00    -0.079 C 
BRANCH  13  14
HETATM   14  C5  UNL     1      29.832   6.416  47.734  1.00  0.00     0.212 C 
BRANCH  14  15
HETATM   15  N1  UNL     1      30.642   6.927  48.741  1.00  0.00    -0.403 N 
BRANCH  15  16
HETATM   16  C2  UNL     1      30.903   8.283  48.925  1.00  0.00     0.113 C 
HETATM   17  C1  UNL     1      29.726   9.128  49.266  1.00  0.00     0.026 C 
ENDBRANCH  15  16
BRANCH  15  18
HETATM   18  C3  UNL     1      31.567   5.990  49.330  1.00  0.00     0.113 C 
HETATM   19  C4  UNL     1      32.300   5.288  48.218  1.00  0.00     0.026 C 
ENDBRANCH  15  18
ENDBRANCH  14  15
ENDBRANCH  13  14
ENDBRANCH  12  13
ENDBRANCH  10  12
ENDBRANCH   1  10
BRANCH   8  20
HETATM   20  N4  UNL     1      24.652   2.175  51.093  1.00  0.00    -0.343 N 
HETATM   21  H16 UNL     1      24.569   1.698  50.162  1.00  0.00     0.167 HD
BRANCH  20  22
HETATM   22  C15 UNL     1      25.385   1.604  52.145  1.00  0.00     0.035 A 
HETATM   23  C16 UNL     1      25.045   0.519  52.887  1.00  0.00     0.032 A 
HETATM   24  C17 UNL     1      25.796  -0.032  53.915  1.00  0.00     0.046 A 
HETATM   25  C18 UNL     1      26.995   0.584  54.201  1.00  0.00     0.138 A 
HETATM   26  F1  UNL     1      27.718   0.038  55.206  1.00  0.00    -0.204 F 
HETATM   27  C19 UNL     1      27.380   1.674  53.486  1.00  0.00     0.074 A 
HETATM   28 CL1  UNL     1      28.937   2.344  53.963  1.00  0.00    -0.081 Cl
HETATM   29  C20 UNL     1      26.614   2.191  52.478  1.00  0.00     0.056 A 
ENDBRANCH  20  22
ENDBRANCH   8  20
TORSDOF 9
ENDMDL
MODEL 9
REMARK VINA RESULT:      -7.4      1.448      2.210
REMARK  9 active torsions:
REMARK  status: ('A' for Active; 'I' for Inactive)
REMARK    1  A    between atoms: C2_2  and  N1_3 
REMARK    2  A    between atoms: N1_3  and  C3_4 
REMARK    3  A    between atoms: N1_3  and  C5_6 
REMARK    4  A    between atoms: C5_6  and  C6_7 
REMARK    5  A    between atoms: C6_7  and  C7_8 
REMARK    6  A    between atoms: C7_8  and  C8_9 
REMARK    7  A    between atoms: C8_9  and  C9_11 
REMARK    8  A    between atoms: C14_18  and  N4_19 
REMARK    9  A    between atoms: N4_19  and  C15_20 
ROOT
HETATM    1  C9  UNL     1      21.785   0.818  52.343  1.00  0.00     0.018 A 
HETATM    2  C10 UNL     1      20.594   0.191  52.374  1.00  0.00     0.015 A 
HETATM    3  C11 UNL     1      20.479  -0.735  53.481  1.00  0.00     0.029 A 
HETATM    4  C12 UNL     1      21.602  -0.710  54.178  1.00  0.00     0.052 A 
HETATM    5  N2  UNL     1      22.058  -1.410  55.345  1.00  0.00    -0.245 NA
HETATM    6  C13 UNL     1      23.375  -1.458  55.460  1.00  0.00     0.235 C 
HETATM    7  N3  UNL     1      24.209  -0.829  54.508  1.00  0.00    -0.228 NA
HETATM    8  C14 UNL     1      23.840  -0.131  53.492  1.00  0.00     0.120 C 
HETATM    9  C21 UNL     1      22.444   0.273  53.520  1.00  0.00     0.145 A 
ENDROOT
BRANCH   1  10
HETATM   10  C8  UNL     1      22.027   1.774  51.274  1.00  0.00     0.232 C 
HETATM   11  O1  UNL     1      21.771   1.555  50.069  1.00  0.00    -0.278 OA
BRANCH  10  12
HETATM   12  C7  UNL     1      22.587   3.074  51.491  1.00  0.00    -0.022 C 
BRANCH  12  13
HETATM   13  C6  UNL     1      23.070   4.195  51.685  1.00  0.00    -0.079 C 
BRANCH  13  14
HETATM   14  C5  UNL     1      23.651   5.507  51.934  1.00  0.00     0.212 C 
BRANCH  14  15
HETATM   15  N1  UNL     1      23.834   6.246  50.771  1.00  0.00    -0.403 N 
BRANCH  15  16
HETATM   16  C2  UNL     1      22.801   6.645  49.926  1.00  0.00     0.113 C 
HETATM   17  C1  UNL     1      21.705   7.424  50.565  1.00  0.00     0.026 C 
ENDBRANCH  15  16
BRANCH  15  18
HETATM   18  C3  UNL     1      25.166   6.216  50.218  1.00  0.00     0.113 C 
HETATM   19  C4  UNL     1      25.119   5.464  48.915  1.00  0.00     0.026 C 
ENDBRANCH  15  18
ENDBRANCH  14  15
ENDBRANCH  13  14
ENDBRANCH  12  13
ENDBRANCH  10  12
ENDBRANCH   1  10
BRANCH   8  20
HETATM   20  N4  UNL     1      24.847   0.371  52.652  1.00  0.00    -0.343 N 
HETATM   21  H16 UNL     1      24.482   0.751  51.745  1.00  0.00     0.167 HD
BRANCH  20  22
HETATM   22  C15 UNL     1      26.219   0.375  52.949  1.00  0.00     0.035 A 
HETATM   23  C16 UNL     1      26.979   1.444  53.301  1.00  0.00     0.032 A 
HETATM   24  C17 UNL     1      28.333   1.416  53.602  1.00  0.00     0.046 A 
HETATM   25  C18 UNL     1      28.955   0.188  53.534  1.00  0.00     0.138 A 
HETATM   26  F1  UNL     1      30.275   0.175  53.828  1.00  0.00    -0.204 F 
HETATM   27  C19 UNL     1      28.237  -0.911  53.185  1.00  0.00     0.074 A 
HETATM   28 CL1  UNL     1      29.168  -2.405  53.149  1.00  0.00    -0.081 Cl
HETATM   29  C20 UNL     1      26.902  -0.848  52.895  1.00  0.00     0.056 A 
ENDBRANCH  20  22
ENDBRANCH   8  20
TORSDOF 9
ENDMDL
