MODEL 1
REMARK VINA RESULT:      -8.1      0.000      0.000
REMARK  5 active torsions:
REMARK  status: ('A' for Active; 'I' for Inactive)
REMARK    1  A    between atoms: C2_2  and  N1_3 
REMARK    2  A    between atoms: C2_2  and  C13_17 
REMARK    3  A    between atoms: N1_3  and  C3_4 
REMARK    4  A    between atoms: N4_11  and  C8_12 
REMARK    5  A    between atoms: C8_12  and  C9_13 
ROOT
HETATM    1  C3  UNL     1      24.498   3.098  51.762  1.00  0.00     0.137 A 
HETATM    2  N2  UNL     1      24.687   3.409  50.469  1.00  0.00    -0.224 NA
HETATM    3  C4  UNL     1      25.890   3.276  49.881  1.00  0.00     0.237 A 
HETATM    4  N3  UNL     1      26.961   2.813  50.592  1.00  0.00    -0.224 NA
HETATM    5  C5  UNL     1      26.817   2.489  51.888  1.00  0.00     0.139 A 
HETATM    6  C6  UNL     1      25.588   2.624  52.500  1.00  0.00     0.051 A 
HETATM    7  C7  UNL     1      26.067   2.137  53.817  1.00  0.00     0.171 A 
HETATM    8  N4  UNL     1      27.322   2.020  53.125  1.00  0.00    -0.357 N 
ENDROOT
BRANCH   1   9
HETATM    9  N1  UNL     1      23.237   3.239  52.392  1.00  0.00    -0.366 N 
HETATM   10  H5  UNL     1      23.107   3.958  53.141  1.00  0.00     0.161 HD
BRANCH   9  11
HETATM   11  C2  UNL     1      22.075   2.426  52.055  1.00  0.00     0.112 C 
HETATM   12  C1  UNL     1      20.794   3.218  52.334  1.00  0.00     0.037 C 
BRANCH  11  13
HETATM   13  C13 UNL     1      21.981   1.181  52.816  1.00  0.00    -0.036 A 
HETATM   14  C14 UNL     1      20.905   0.912  53.650  1.00  0.00     0.012 A 
HETATM   15  C15 UNL     1      20.824  -0.268  54.363  1.00  0.00     0.043 A 
HETATM   16  C16 UNL     1      21.835  -1.201  54.244  1.00  0.00     0.116 A 
HETATM   17  F1  UNL     1      21.767  -2.382  54.946  1.00  0.00    -0.206 F 
HETATM   18  C17 UNL     1      22.928  -0.984  53.429  1.00  0.00     0.043 A 
HETATM   19  C18 UNL     1      22.971   0.224  52.724  1.00  0.00     0.012 A 
ENDBRANCH  11  13
ENDBRANCH   9  11
ENDBRANCH   1   9
BRANCH   8  20
HETATM   20  C8  UNL     1      28.560   1.550  53.697  1.00  0.00     0.158 C 
BRANCH  20  21
HETATM   21  C9  UNL     1      28.721   0.094  53.475  1.00  0.00    -0.066 A 
HETATM   22  C10 UNL     1      27.999  -0.935  53.173  1.00  0.00    -0.022 A 
HETATM   23  C11 UNL     1      29.111  -1.853  53.206  1.00  0.00     0.032 A 
HETATM   24  C12 UNL     1      29.953  -0.676  53.564  1.00  0.00     0.039 A 
ENDBRANCH  20  21
ENDBRANCH   8  20
TORSDOF 5
ENDMDL
MODEL 2
REMARK VINA RESULT:      -8.0      2.616      5.404
REMARK  5 active torsions:
REMARK  status: ('A' for Active; 'I' for Inactive)
REMARK    1  A    between atoms: C2_2  and  N1_3 
REMARK    2  A    between atoms: C2_2  and  C13_17 
REMARK    3  A    between atoms: N1_3  and  C3_4 
REMARK    4  A    between atoms: N4_11  and  C8_12 
REMARK    5  A    between atoms: C8_12  and  C9_13 
ROOT
HETATM    1  C3  UNL     1      22.913   1.197  52.133  1.00  0.00     0.137 A 
HETATM    2  N2  UNL     1      22.098   0.575  51.267  1.00  0.00    -0.224 NA
HETATM    3  C4  UNL     1      21.852   1.080  50.043  1.00  0.00     0.237 A 
HETATM    4  N3  UNL     1      22.433   2.252  49.649  1.00  0.00    -0.224 NA
HETATM    5  C5  UNL     1      23.256   2.909  50.485  1.00  0.00     0.139 A 
HETATM    6  C6  UNL     1      23.513   2.398  51.740  1.00  0.00     0.051 A 
HETATM    7  C7  UNL     1      24.422   3.506  52.124  1.00  0.00     0.171 A 
HETATM    8  N4  UNL     1      24.115   3.989  50.805  1.00  0.00    -0.357 N 
ENDROOT
BRANCH   1   9
HETATM    9  N1  UNL     1      23.175   0.677  53.425  1.00  0.00    -0.366 N 
HETATM   10  H5  UNL     1      22.885   1.217  54.273  1.00  0.00     0.161 HD
BRANCH   9  11
HETATM   11  C2  UNL     1      23.839  -0.600  53.656  1.00  0.00     0.112 C 
HETATM   12  C1  UNL     1      23.389  -1.178  55.001  1.00  0.00     0.037 C 
BRANCH  11  13
HETATM   13  C13 UNL     1      25.299  -0.511  53.697  1.00  0.00    -0.036 A 
HETATM   14  C14 UNL     1      26.095  -1.085  52.717  1.00  0.00     0.012 A 
HETATM   15  C15 UNL     1      27.473  -0.994  52.763  1.00  0.00     0.043 A 
HETATM   16  C16 UNL     1      28.070  -0.316  53.808  1.00  0.00     0.116 A 
HETATM   17  F1  UNL     1      29.441  -0.214  53.866  1.00  0.00    -0.206 F 
HETATM   18  C17 UNL     1      27.326   0.274  54.809  1.00  0.00     0.043 A 
HETATM   19  C18 UNL     1      25.934   0.158  54.725  1.00  0.00     0.012 A 
ENDBRANCH  11  13
ENDBRANCH   9  11
ENDBRANCH   1   9
BRANCH   8  20
HETATM   20  C8  UNL     1      24.629   5.196  50.206  1.00  0.00     0.158 C 
BRANCH  20  21
HETATM   21  C9  UNL     1      25.933   4.941  49.549  1.00  0.00    -0.066 A 
HETATM   22  C10 UNL     1      26.777   3.975  49.394  1.00  0.00    -0.022 A 
HETATM   23  C11 UNL     1      27.691   4.765  48.605  1.00  0.00     0.032 A 
HETATM   24  C12 UNL     1      26.729   5.890  48.785  1.00  0.00     0.039 A 
ENDBRANCH  20  21
ENDBRANCH   8  20
TORSDOF 5
ENDMDL
MODEL 3
REMARK VINA RESULT:      -7.9      3.333      5.591
REMARK  5 active torsions:
REMARK  status: ('A' for Active; 'I' for Inactive)
REMARK    1  A    between atoms: C2_2  and  N1_3 
REMARK    2  A    between atoms: C2_2  and  C13_17 
REMARK    3  A    between atoms: N1_3  and  C3_4 
REMARK    4  A    between atoms: N4_11  and  C8_12 
REMARK    5  A    between atoms: C8_12  and  C9_13 
ROOT
HETATM    1  C3  UNL     1      23.700   1.633  51.541  1.00  0.00     0.137 A 
HETATM    2  N2  UNL     1      22.573   0.913  51.658  1.00  0.00    -0.224 NA
HETATM    3  C4  UNL     1      22.445  -0.048  52.590  1.00  0.00     0.237 A 
HETATM    4  N3  UNL     1      23.470  -0.319  53.452  1.00  0.00    -0.224 NA
HETATM    5  C5  UNL     1      24.616   0.377  53.370  1.00  0.00     0.139 A 
HETATM    6  C6  UNL     1      24.757   1.365  52.418  1.00  0.00     0.051 A 
HETATM    7  C7  UNL     1      26.137   1.719  52.830  1.00  0.00     0.171 A 
HETATM    8  N4  UNL     1      25.932   0.678  53.800  1.00  0.00    -0.357 N 
ENDROOT
BRANCH   1   9
HETATM    9  N1  UNL     1      23.848   2.645  50.560  1.00  0.00    -0.366 N 
HETATM   10  H5  UNL     1      23.716   2.413  49.548  1.00  0.00     0.161 HD
BRANCH   9  11
HETATM   11  C2  UNL     1      24.179   4.029  50.877  1.00  0.00     0.112 C 
HETATM   12  C1  UNL     1      22.953   4.917  50.647  1.00  0.00     0.037 C 
BRANCH  11  13
HETATM   13  C13 UNL     1      25.264   4.580  50.066  1.00  0.00    -0.036 A 
HETATM   14  C14 UNL     1      26.340   3.805  49.658  1.00  0.00     0.012 A 
HETATM   15  C15 UNL     1      27.359   4.335  48.890  1.00  0.00     0.043 A 
HETATM   16  C16 UNL     1      27.304   5.665  48.520  1.00  0.00     0.116 A 
HETATM   17  F1  UNL     1      28.311   6.206  47.753  1.00  0.00    -0.206 F 
HETATM   18  C17 UNL     1      26.258   6.480  48.898  1.00  0.00     0.043 A 
HETATM   19  C18 UNL     1      25.247   5.905  49.676  1.00  0.00     0.012 A 
ENDBRANCH  11  13
ENDBRANCH   9  11
ENDBRANCH   1   9
BRANCH   8  20
HETATM   20  C8  UNL     1      26.886   0.250  54.794  1.00  0.00     0.158 C 
BRANCH  20  21
HETATM   21  C9  UNL     1      28.162  -0.152  54.157  1.00  0.00    -0.066 A 
HETATM   22  C10 UNL     1      28.637  -1.122  53.446  1.00  0.00    -0.022 A 
HETATM   23  C11 UNL     1      29.957  -0.546  53.359  1.00  0.00     0.032 A 
HETATM   24  C12 UNL     1      29.424   0.573  54.188  1.00  0.00     0.039 A 
ENDBRANCH  20  21
ENDBRANCH   8  20
TORSDOF 5
ENDMDL
MODEL 4
REMARK VINA RESULT:      -7.8      1.947      2.316
REMARK  5 active torsions:
REMARK  status: ('A' for Active; 'I' for Inactive)
REMARK    1  A    between atoms: C2_2  and  N1_3 
REMARK    2  A    between atoms: C2_2  and  C13_17 
REMARK    3  A    between atoms: N1_3  and  C3_4 
REMARK    4  A    between atoms: N4_11  and  C8_12 
REMARK    5  A    between atoms: C8_12  and  C9_13 
ROOT
HETATM    1  C3  UNL     1      24.297   2.265  51.208  1.00  0.00     0.137 A 
HETATM    2  N2  UNL     1      25.077   2.980  50.382  1.00  0.00    -0.224 NA
HETATM    3  C4  UNL     1      26.409   3.055  50.560  1.00  0.00     0.237 A 
HETATM    4  N3  UNL     1      27.008   2.397  51.597  1.00  0.00    -0.224 NA
HETATM    5  C5  UNL     1      26.264   1.670  52.449  1.00  0.00     0.139 A 
HETATM    6  C6  UNL     1      24.899   1.587  52.274  1.00  0.00     0.051 A 
HETATM    7  C7  UNL     1      24.691   0.705  53.448  1.00  0.00     0.171 A 
HETATM    8  N4  UNL     1      26.118   0.830  53.580  1.00  0.00    -0.357 N 
ENDROOT
BRANCH   1   9
HETATM    9  N1  UNL     1      22.893   2.182  51.032  1.00  0.00    -0.366 N 
HETATM   10  H5  UNL     1      22.286   2.988  51.309  1.00  0.00     0.161 HD
BRANCH   9  11
HETATM   11  C2  UNL     1      22.221   1.016  50.473  1.00  0.00     0.112 C 
HETATM   12  C1  UNL     1      21.631   1.369  49.105  1.00  0.00     0.037 C 
BRANCH  11  13
HETATM   13  C13 UNL     1      21.121   0.515  51.296  1.00  0.00    -0.036 A 
HETATM   14  C14 UNL     1      21.339  -0.060  52.540  1.00  0.00     0.012 A 
HETATM   15  C15 UNL     1      20.292  -0.529  53.310  1.00  0.00     0.043 A 
HETATM   16  C16 UNL     1      19.001  -0.423  52.832  1.00  0.00     0.116 A 
HETATM   17  F1  UNL     1      17.949  -0.883  53.589  1.00  0.00    -0.206 F 
HETATM   18  C17 UNL     1      18.728   0.140  51.602  1.00  0.00     0.043 A 
HETATM   19  C18 UNL     1      19.816   0.601  50.853  1.00  0.00     0.012 A 
ENDBRANCH  11  13
ENDBRANCH   9  11
ENDBRANCH   1   9
BRANCH   8  20
HETATM   20  C8  UNL     1      26.929   0.211  54.599  1.00  0.00     0.158 C 
BRANCH  20  21
HETATM   21  C9  UNL     1      28.298  -0.045  54.097  1.00  0.00    -0.066 A 
HETATM   22  C10 UNL     1      29.454   0.535  54.068  1.00  0.00    -0.022 A 
HETATM   23  C11 UNL     1      30.092  -0.547  53.357  1.00  0.00     0.032 A 
HETATM   24  C12 UNL     1      28.762  -1.221  53.375  1.00  0.00     0.039 A 
ENDBRANCH  20  21
ENDBRANCH   8  20
TORSDOF 5
ENDMDL
MODEL 5
REMARK VINA RESULT:      -7.7      3.123      4.642
REMARK  5 active torsions:
REMARK  status: ('A' for Active; 'I' for Inactive)
REMARK    1  A    between atoms: C2_2  and  N1_3 
REMARK    2  A    between atoms: C2_2  and  C13_17 
REMARK    3  A    between atoms: N1_3  and  C3_4 
REMARK    4  A    between atoms: N4_11  and  C8_12 
REMARK    5  A    between atoms: C8_12  and  C9_13 
ROOT
HETATM    1  C3  UNL     1      22.903  -0.406  53.779  1.00  0.00     0.137 A 
HETATM    2  N2  UNL     1      22.633  -0.906  54.996  1.00  0.00    -0.224 NA
HETATM    3  C4  UNL     1      23.609  -1.367  55.800  1.00  0.00     0.237 A 
HETATM    4  N3  UNL     1      24.913  -1.338  55.394  1.00  0.00    -0.224 NA
HETATM    5  C5  UNL     1      25.228  -0.846  54.184  1.00  0.00     0.139 A 
HETATM    6  C6  UNL     1      24.235  -0.371  53.353  1.00  0.00     0.051 A 
HETATM    7  C7  UNL     1      25.171   0.000  52.264  1.00  0.00     0.171 A 
HETATM    8  N4  UNL     1      26.162  -0.510  53.173  1.00  0.00    -0.357 N 
ENDROOT
BRANCH   1   9
HETATM    9  N1  UNL     1      21.883   0.078  52.923  1.00  0.00    -0.366 N 
HETATM   10  H5  UNL     1      21.136  -0.571  52.584  1.00  0.00     0.161 HD
BRANCH   9  11
HETATM   11  C2  UNL     1      21.804   1.462  52.472  1.00  0.00     0.112 C 
HETATM   12  C1  UNL     1      20.424   2.035  52.809  1.00  0.00     0.037 C 
BRANCH  11  13
HETATM   13  C13 UNL     1      21.994   1.628  51.031  1.00  0.00    -0.036 A 
HETATM   14  C14 UNL     1      21.285   0.873  50.108  1.00  0.00     0.012 A 
HETATM   15  C15 UNL     1      21.470   1.040  48.748  1.00  0.00     0.043 A 
HETATM   16  C16 UNL     1      22.379   1.977  48.300  1.00  0.00     0.116 A 
HETATM   17  F1  UNL     1      22.572   2.156  46.950  1.00  0.00    -0.206 F 
HETATM   18  C17 UNL     1      23.110   2.755  49.175  1.00  0.00     0.043 A 
HETATM   19  C18 UNL     1      22.893   2.555  50.543  1.00  0.00     0.012 A 
ENDBRANCH  11  13
ENDBRANCH   9  11
ENDBRANCH   1   9
BRANCH   8  20
HETATM   20  C8  UNL     1      27.583  -0.560  52.932  1.00  0.00     0.158 C 
BRANCH  20  21
HETATM   21  C9  UNL     1      28.243   0.670  53.428  1.00  0.00    -0.066 A 
HETATM   22  C10 UNL     1      29.109   1.023  54.321  1.00  0.00    -0.022 A 
HETATM   23  C11 UNL     1      29.044   2.422  53.977  1.00  0.00     0.032 A 
HETATM   24  C12 UNL     1      28.036   2.029  52.950  1.00  0.00     0.039 A 
ENDBRANCH  20  21
ENDBRANCH   8  20
TORSDOF 5
ENDMDL
MODEL 6
REMARK VINA RESULT:      -7.7      3.156      7.519
REMARK  5 active torsions:
REMARK  status: ('A' for Active; 'I' for Inactive)
REMARK    1  A    between atoms: C2_2  and  N1_3 
REMARK    2  A    between atoms: C2_2  and  C13_17 
REMARK    3  A    between atoms: N1_3  and  C3_4 
REMARK    4  A    between atoms: N4_11  and  C8_12 
REMARK    5  A    between atoms: C8_12  and  C9_13 
ROOT
HETATM    1  C3  UNL     1      23.593  -0.179  53.244  1.00  0.00     0.137 A 
HETATM    2  N2  UNL     1      23.426  -0.892  54.370  1.00  0.00    -0.224 NA
HETATM    3  C4  UNL     1      22.239  -0.940  55.003  1.00  0.00     0.237 A 
HETATM    4  N3  UNL     1      21.162  -0.258  54.510  1.00  0.00    -0.224 NA
HETATM    5  C5  UNL     1      21.286   0.468  53.386  1.00  0.00     0.139 A 
HETATM    6  C6  UNL     1      22.498   0.524  52.730  1.00  0.00     0.051 A 
HETATM    7  C7  UNL     1      22.000   1.414  51.654  1.00  0.00     0.171 A 
HETATM    8  N4  UNL     1      20.763   1.319  52.381  1.00  0.00    -0.357 N 
ENDROOT
BRANCH   1   9
HETATM    9  N1  UNL     1      24.839  -0.117  52.572  1.00  0.00    -0.366 N 
HETATM   10  H5  UNL     1      25.061  -0.812  51.821  1.00  0.00     0.161 HD
BRANCH   9  11
HETATM   11  C2  UNL     1      25.861   0.879  52.865  1.00  0.00     0.112 C 
HETATM   12  C1  UNL     1      26.047   1.799  51.654  1.00  0.00     0.037 C 
BRANCH  11  13
HETATM   13  C13 UNL     1      27.173   0.311  53.174  1.00  0.00    -0.036 A 
HETATM   14  C14 UNL     1      28.210   1.089  53.670  1.00  0.00     0.012 A 
HETATM   15  C15 UNL     1      29.445   0.542  53.960  1.00  0.00     0.043 A 
HETATM   16  C16 UNL     1      29.652  -0.807  53.753  1.00  0.00     0.116 A 
HETATM   17  F1  UNL     1      30.876  -1.366  54.040  1.00  0.00    -0.206 F 
HETATM   18  C17 UNL     1      28.656  -1.626  53.262  1.00  0.00     0.043 A 
HETATM   19  C18 UNL     1      27.421  -1.033  52.980  1.00  0.00     0.012 A 
ENDBRANCH  11  13
ENDBRANCH   9  11
ENDBRANCH   1   9
BRANCH   8  20
HETATM   20  C8  UNL     1      19.520   1.957  52.022  1.00  0.00     0.158 C 
BRANCH  20  21
HETATM   21  C9  UNL     1      18.629   1.009  51.315  1.00  0.00    -0.066 A 
HETATM   22  C10 UNL     1      18.072  -0.142  51.511  1.00  0.00    -0.022 A 
HETATM   23  C11 UNL     1      17.419  -0.159  50.224  1.00  0.00     0.032 A 
HETATM   24  C12 UNL     1      18.063   1.164  49.982  1.00  0.00     0.039 A 
ENDBRANCH  20  21
ENDBRANCH   8  20
TORSDOF 5
ENDMDL
MODEL 7
REMARK VINA RESULT:      -7.6      2.655      3.400
REMARK  5 active torsions:
REMARK  status: ('A' for Active; 'I' for Inactive)
REMARK    1  A    between atoms: C2_2  and  N1_3 
REMARK    2  A    between atoms: C2_2  and  C13_17 
REMARK    3  A    between atoms: N1_3  and  C3_4 
REMARK    4  A    between atoms: N4_11  and  C8_12 
REMARK    5  A    between atoms: C8_12  and  C9_13 
ROOT
HETATM    1  C3  UNL     1      23.313   0.605  52.335  1.00  0.00     0.137 A 
HETATM    2  N2  UNL     1      23.448   1.617  51.463  1.00  0.00    -0.224 NA
HETATM    3  C4  UNL     1      24.564   2.369  51.424  1.00  0.00     0.237 A 
HETATM    4  N3  UNL     1      25.599   2.118  52.280  1.00  0.00    -0.224 NA
HETATM    5  C5  UNL     1      25.506   1.114  53.169  1.00  0.00     0.139 A 
HETATM    6  C6  UNL     1      24.366   0.338  53.216  1.00  0.00     0.051 A 
HETATM    7  C7  UNL     1      24.864  -0.521  54.318  1.00  0.00     0.171 A 
HETATM    8  N4  UNL     1      26.025   0.322  54.223  1.00  0.00    -0.357 N 
ENDROOT
BRANCH   1   9
HETATM    9  N1  UNL     1      22.141  -0.190  52.388  1.00  0.00    -0.366 N 
HETATM   10  H5  UNL     1      22.046  -1.020  51.757  1.00  0.00     0.161 HD
BRANCH   9  11
HETATM   11  C2  UNL     1      21.028   0.079  53.289  1.00  0.00     0.112 C 
HETATM   12  C1  UNL     1      21.142  -0.813  54.529  1.00  0.00     0.037 C 
BRANCH  11  13
HETATM   13  C13 UNL     1      19.713  -0.175  52.701  1.00  0.00    -0.036 A 
HETATM   14  C14 UNL     1      19.326   0.399  51.499  1.00  0.00     0.012 A 
HETATM   15  C15 UNL     1      18.082   0.151  50.950  1.00  0.00     0.043 A 
HETATM   16  C16 UNL     1      17.206  -0.687  51.613  1.00  0.00     0.116 A 
HETATM   17  F1  UNL     1      15.965  -0.945  51.078  1.00  0.00    -0.206 F 
HETATM   18  C17 UNL     1      17.540  -1.283  52.811  1.00  0.00     0.043 A 
HETATM   19  C18 UNL     1      18.809  -1.006  53.333  1.00  0.00     0.012 A 
ENDBRANCH  11  13
ENDBRANCH   9  11
ENDBRANCH   1   9
BRANCH   8  20
HETATM   20  C8  UNL     1      27.216   0.214  55.029  1.00  0.00     0.158 C 
BRANCH  20  21
HETATM   21  C9  UNL     1      28.372  -0.206  54.204  1.00  0.00    -0.066 A 
HETATM   22  C10 UNL     1      28.747  -1.216  53.489  1.00  0.00    -0.022 A 
HETATM   23  C11 UNL     1      30.010  -0.619  53.127  1.00  0.00     0.032 A 
HETATM   24  C12 UNL     1      29.593   0.547  53.958  1.00  0.00     0.039 A 
ENDBRANCH  20  21
ENDBRANCH   8  20
TORSDOF 5
ENDMDL
MODEL 8
REMARK VINA RESULT:      -7.6      2.732      7.056
REMARK  5 active torsions:
REMARK  status: ('A' for Active; 'I' for Inactive)
REMARK    1  A    between atoms: C2_2  and  N1_3 
REMARK    2  A    between atoms: C2_2  and  C13_17 
REMARK    3  A    between atoms: N1_3  and  C3_4 
REMARK    4  A    between atoms: N4_11  and  C8_12 
REMARK    5  A    between atoms: C8_12  and  C9_13 
ROOT
HETATM    1  C3  UNL     1      23.102   2.199  51.792  1.00  0.00     0.137 A 
HETATM    2  N2  UNL     1      22.744   3.493  51.802  1.00  0.00    -0.224 NA
HETATM    3  C4  UNL     1      21.527   3.885  52.224  1.00  0.00     0.237 A 
HETATM    4  N3  UNL     1      20.616   2.964  52.658  1.00  0.00    -0.224 NA
HETATM    5  C5  UNL     1      20.932   1.658  52.665  1.00  0.00     0.139 A 
HETATM    6  C6  UNL     1      22.176   1.248  52.235  1.00  0.00     0.051 A 
HETATM    7  C7  UNL     1      21.908  -0.191  52.479  1.00  0.00     0.171 A 
HETATM    8  N4  UNL     1      20.627   0.297  52.914  1.00  0.00    -0.357 N 
ENDROOT
BRANCH   1   9
HETATM    9  N1  UNL     1      24.378   1.775  51.346  1.00  0.00    -0.366 N 
HETATM   10  H5  UNL     1      24.461   0.940  50.721  1.00  0.00     0.161 HD
BRANCH   9  11
HETATM   11  C2  UNL     1      25.619   2.447  51.709  1.00  0.00     0.112 C 
HETATM   12  C1  UNL     1      26.256   3.063  50.460  1.00  0.00     0.037 C 
BRANCH  11  13
HETATM   13  C13 UNL     1      26.620   1.563  52.306  1.00  0.00    -0.036 A 
HETATM   14  C14 UNL     1      27.733   2.060  52.970  1.00  0.00     0.012 A 
HETATM   15  C15 UNL     1      28.671   1.217  53.533  1.00  0.00     0.043 A 
HETATM   16  C16 UNL     1      28.498  -0.150  53.432  1.00  0.00     0.116 A 
HETATM   17  F1  UNL     1      29.424  -1.002  53.990  1.00  0.00    -0.206 F 
HETATM   18  C17 UNL     1      27.410  -0.697  52.783  1.00  0.00     0.043 A 
HETATM   19  C18 UNL     1      26.484   0.192  52.227  1.00  0.00     0.012 A 
ENDBRANCH  11  13
ENDBRANCH   9  11
ENDBRANCH   1   9
BRANCH   8  20
HETATM   20  C8  UNL     1      19.540  -0.511  53.410  1.00  0.00     0.158 C 
BRANCH  20  21
HETATM   21  C9  UNL     1      18.408  -0.510  52.454  1.00  0.00    -0.066 A 
HETATM   22  C10 UNL     1      18.157  -0.160  51.235  1.00  0.00    -0.022 A 
HETATM   23  C11 UNL     1      16.779  -0.584  51.289  1.00  0.00     0.032 A 
HETATM   24  C12 UNL     1      17.053  -0.983  52.700  1.00  0.00     0.039 A 
ENDBRANCH  20  21
ENDBRANCH   8  20
TORSDOF 5
ENDMDL
MODEL 9
REMARK VINA RESULT:      -7.5      2.743      5.651
REMARK  5 active torsions:
REMARK  status: ('A' for Active; 'I' for Inactive)
REMARK    1  A    between atoms: C2_2  and  N1_3 
REMARK    2  A    between atoms: C2_2  and  C13_17 
REMARK    3  A    between atoms: N1_3  and  C3_4 
REMARK    4  A    between atoms: N4_11  and  C8_12 
REMARK    5  A    between atoms: C8_12  and  C9_13 
ROOT
HETATM    1  C3  UNL     1      23.918   2.811  51.697  1.00  0.00     0.137 A 
HETATM    2  N2  UNL     1      22.729   3.286  51.294  1.00  0.00    -0.224 NA
HETATM    3  C4  UNL     1      22.618   4.087  50.218  1.00  0.00     0.237 A 
HETATM    4  N3  UNL     1      23.726   4.440  49.501  1.00  0.00    -0.224 NA
HETATM    5  C5  UNL     1      24.937   3.988  49.869  1.00  0.00     0.139 A 
HETATM    6  C6  UNL     1      25.060   3.167  50.970  1.00  0.00     0.051 A 
HETATM    7  C7  UNL     1      26.532   3.032  50.843  1.00  0.00     0.171 A 
HETATM    8  N4  UNL     1      26.341   3.891  49.706  1.00  0.00    -0.357 N 
ENDROOT
BRANCH   1   9
HETATM    9  N1  UNL     1      24.047   1.971  52.831  1.00  0.00    -0.366 N 
HETATM   10  H5  UNL     1      23.919   2.368  53.791  1.00  0.00     0.161 HD
BRANCH   9  11
HETATM   11  C2  UNL     1      24.353   0.548  52.745  1.00  0.00     0.112 C 
HETATM   12  C1  UNL     1      23.419  -0.236  53.672  1.00  0.00     0.037 C 
BRANCH  11  13
HETATM   13  C13 UNL     1      25.722   0.211  53.135  1.00  0.00    -0.036 A 
HETATM   14  C14 UNL     1      26.400  -0.860  52.571  1.00  0.00     0.012 A 
HETATM   15  C15 UNL     1      27.694  -1.169  52.944  1.00  0.00     0.043 A 
HETATM   16  C16 UNL     1      28.325  -0.396  53.899  1.00  0.00     0.116 A 
HETATM   17  F1  UNL     1      29.614  -0.691  54.279  1.00  0.00    -0.206 F 
HETATM   18  C17 UNL     1      27.696   0.680  54.492  1.00  0.00     0.043 A 
HETATM   19  C18 UNL     1      26.387   0.959  54.086  1.00  0.00     0.012 A 
ENDBRANCH  11  13
ENDBRANCH   9  11
ENDBRANCH   1   9
BRANCH   8  20
HETATM   20  C8  UNL     1      27.378   4.369  48.825  1.00  0.00     0.158 C 
BRANCH  20  21
HETATM   21  C9  UNL     1      27.217   5.818  48.562  1.00  0.00    -0.066 A 
HETATM   22  C10 UNL     1      26.301   6.728  48.627  1.00  0.00    -0.022 A 
HETATM   23  C11 UNL     1      27.170   7.780  48.159  1.00  0.00     0.032 A 
HETATM   24  C12 UNL     1      28.232   6.737  48.069  1.00  0.00     0.039 A 
ENDBRANCH  20  21
ENDBRANCH   8  20
TORSDOF 5
ENDMDL
