MODEL 1
REMARK VINA RESULT:      -8.0      0.000      0.000
REMARK  5 active torsions:
REMARK  status: ('A' for Active; 'I' for Inactive)
REMARK    1  A    between atoms: N3_9  and  C6_10 
REMARK    2  A    between atoms: C10_17  and  C11_18 
REMARK    3  A    between atoms: C11_18  and  O1_19 
REMARK    4  A    between atoms: O1_19  and  C12_20 
REMARK    5  A    between atoms: C12_20  and  C13_21 
ROOT
HETATM    1  C6  UNL     1      21.992   2.989  51.461  1.00  0.00     0.158 A 
HETATM    2  N4  UNL     1      20.912   3.761  51.133  1.00  0.00    -0.220 NA
HETATM    3  C7  UNL     1      19.689   3.537  51.702  1.00  0.00     0.258 A 
HETATM    4  N5  UNL     1      19.592   2.536  52.588  1.00  0.00    -0.161 NA
HETATM    5  N6  UNL     1      20.613   1.772  52.929  1.00  0.00    -0.240 N 
HETATM    6  C8  UNL     1      20.804   0.738  53.767  1.00  0.00     0.119 A 
HETATM    7  C9  UNL     1      22.123   0.344  53.708  1.00  0.00     0.031 A 
HETATM    8  C10 UNL     1      22.798   1.164  52.792  1.00  0.00    -0.001 A 
HETATM    9  C17 UNL     1      21.809   1.994  52.371  1.00  0.00     0.112 A 
ENDROOT
BRANCH   1  10
HETATM   10  N3  UNL     1      23.069   3.438  50.664  1.00  0.00    -0.336 N 
HETATM   11  C5  UNL     1      23.727   3.113  49.380  1.00  0.00     0.204 C 
HETATM   12  N1  UNL     1      22.923   3.724  48.229  1.00  0.00    -0.302 N 
HETATM   13  C4  UNL     1      25.161   3.404  49.342  1.00  0.00     0.076 C 
HETATM   14  C1  UNL     1      22.064   3.010  47.223  1.00  0.00     0.170 C 
HETATM   15  N2  UNL     1      22.842   5.163  47.883  1.00  0.00    -0.076 NA
HETATM   16  S1  UNL     1      23.662   6.186  49.001  1.00  0.00    -0.088 SA
HETATM   17  C2  UNL     1      24.602   5.122  50.253  1.00  0.00    -0.003 C 
HETATM   18  H4  UNL     1      23.981   7.472  48.509  1.00  0.00     0.116 HD
HETATM   19  C3  UNL     1      25.784   4.533  50.166  1.00  0.00    -0.007 C 
HETATM   20  C18 UNL     1      23.721   4.625  51.396  1.00  0.00     0.172 C 
ENDBRANCH   1  10
BRANCH   8  21
HETATM   21  C11 UNL     1      24.266   1.063  52.485  1.00  0.00     0.208 C 
BRANCH  21  22
HETATM   22  O1  UNL     1      24.892   1.927  53.313  1.00  0.00    -0.384 OA
BRANCH  22  23
HETATM   23  C12 UNL     1      26.118   1.782  53.801  1.00  0.00     0.201 C 
BRANCH  23  24
HETATM   24  C13 UNL     1      27.290   1.849  52.886  1.00  0.00     0.162 C 
HETATM   25  C14 UNL     1      28.583   2.326  53.513  1.00  0.00     0.147 C 
HETATM   26  N7  UNL     1      28.720   1.665  54.762  1.00  0.00    -0.417 N 
HETATM   27  C15 UNL     1      28.633   0.256  54.731  1.00  0.00     0.140 C 
HETATM   28  H19 UNL     1      28.515   2.169  55.614  1.00  0.00     0.153 HD
HETATM   29  C16 UNL     1      27.785  -0.305  53.623  1.00  0.00     0.187 C 
HETATM   30  O2  UNL     1      27.639   0.501  52.525  1.00  0.00    -0.381 OA
ENDBRANCH  23  24
ENDBRANCH  22  23
ENDBRANCH  21  22
ENDBRANCH   8  21
TORSDOF 5
ENDMDL
MODEL 2
REMARK VINA RESULT:      -7.9      1.528      2.042
REMARK  5 active torsions:
REMARK  status: ('A' for Active; 'I' for Inactive)
REMARK    1  A    between atoms: N3_9  and  C6_10 
REMARK    2  A    between atoms: C10_17  and  C11_18 
REMARK    3  A    between atoms: C11_18  and  O1_19 
REMARK    4  A    between atoms: O1_19  and  C12_20 
REMARK    5  A    between atoms: C12_20  and  C13_21 
ROOT
HETATM    1  C6  UNL     1      22.317   1.768  52.253  1.00  0.00     0.158 A 
HETATM    2  N4  UNL     1      20.984   2.071  52.319  1.00  0.00    -0.220 NA
HETATM    3  C7  UNL     1      20.146   1.371  53.141  1.00  0.00     0.258 A 
HETATM    4  N5  UNL     1      20.677   0.384  53.875  1.00  0.00    -0.161 NA
HETATM    5  N6  UNL     1      21.958   0.065  53.837  1.00  0.00    -0.240 N 
HETATM    6  C8  UNL     1      22.743  -0.839  54.447  1.00  0.00     0.119 A 
HETATM    7  C9  UNL     1      24.039  -0.689  54.003  1.00  0.00     0.031 A 
HETATM    8  C10 UNL     1      24.076   0.358  53.069  1.00  0.00    -0.001 A 
HETATM    9  C17 UNL     1      22.778   0.752  53.032  1.00  0.00     0.112 A 
ENDROOT
BRANCH   1  10
HETATM   10  N3  UNL     1      22.880   2.624  51.281  1.00  0.00    -0.336 N 
HETATM   11  C5  UNL     1      23.165   2.642  49.829  1.00  0.00     0.204 C 
HETATM   12  N1  UNL     1      21.886   2.996  49.066  1.00  0.00    -0.302 N 
HETATM   13  C4  UNL     1      24.338   3.432  49.450  1.00  0.00     0.076 C 
HETATM   14  C1  UNL     1      21.032   2.087  48.226  1.00  0.00     0.170 C 
HETATM   15  N2  UNL     1      21.240   4.329  49.007  1.00  0.00    -0.076 NA
HETATM   16  S1  UNL     1      21.995   5.504  50.016  1.00  0.00    -0.088 SA
HETATM   17  C2  UNL     1      23.573   4.771  50.761  1.00  0.00    -0.003 C 
HETATM   18  H4  UNL     1      21.708   6.847  49.684  1.00  0.00     0.116 HD
HETATM   19  C3  UNL     1      24.790   4.654  50.253  1.00  0.00    -0.007 C 
HETATM   20  C18 UNL     1      23.310   3.917  51.998  1.00  0.00     0.172 C 
ENDBRANCH   1  10
BRANCH   8  21
HETATM   21  C11 UNL     1      25.326   0.844  52.391  1.00  0.00     0.208 C 
BRANCH  21  22
HETATM   22  O1  UNL     1      26.148  -0.223  52.287  1.00  0.00    -0.384 OA
BRANCH  22  23
HETATM   23  C12 UNL     1      27.470  -0.196  52.399  1.00  0.00     0.201 C 
BRANCH  23  24
HETATM   24  C13 UNL     1      28.150  -1.120  53.348  1.00  0.00     0.162 C 
HETATM   25  C14 UNL     1      29.659  -1.015  53.396  1.00  0.00     0.147 C 
HETATM   26  N7  UNL     1      29.989   0.366  53.422  1.00  0.00    -0.417 N 
HETATM   27  C15 UNL     1      29.371   1.133  54.433  1.00  0.00     0.140 C 
HETATM   28  H19 UNL     1      30.322   0.811  52.577  1.00  0.00     0.153 HD
HETATM   29  C16 UNL     1      28.028   0.627  54.884  1.00  0.00     0.187 C 
HETATM   30  O2  UNL     1      27.801  -0.708  54.681  1.00  0.00    -0.381 OA
ENDBRANCH  23  24
ENDBRANCH  22  23
ENDBRANCH  21  22
ENDBRANCH   8  21
TORSDOF 5
ENDMDL
MODEL 3
REMARK VINA RESULT:      -7.8      1.481      1.836
REMARK  5 active torsions:
REMARK  status: ('A' for Active; 'I' for Inactive)
REMARK    1  A    between atoms: N3_9  and  C6_10 
REMARK    2  A    between atoms: C10_17  and  C11_18 
REMARK    3  A    between atoms: C11_18  and  O1_19 
REMARK    4  A    between atoms: O1_19  and  C12_20 
REMARK    5  A    between atoms: C12_20  and  C13_21 
ROOT
HETATM    1  C6  UNL     1      22.336   2.758  51.890  1.00  0.00     0.158 A 
HETATM    2  N4  UNL     1      21.013   3.046  52.083  1.00  0.00    -0.220 NA
HETATM    3  C7  UNL     1      20.206   2.197  52.788  1.00  0.00     0.258 A 
HETATM    4  N5  UNL     1      20.758   1.078  53.277  1.00  0.00    -0.161 NA
HETATM    5  N6  UNL     1      22.031   0.769  53.109  1.00  0.00    -0.240 N 
HETATM    6  C8  UNL     1      22.832  -0.244  53.482  1.00  0.00     0.119 A 
HETATM    7  C9  UNL     1      24.106  -0.011  53.012  1.00  0.00     0.031 A 
HETATM    8  C10 UNL     1      24.113   1.204  52.311  1.00  0.00    -0.001 A 
HETATM    9  C17 UNL     1      22.820   1.603  52.421  1.00  0.00     0.112 A 
ENDROOT
BRANCH   1  10
HETATM   10  N3  UNL     1      22.863   3.793  51.085  1.00  0.00    -0.336 N 
HETATM   11  C5  UNL     1      23.070   4.108  49.654  1.00  0.00     0.204 C 
HETATM   12  N1  UNL     1      21.759   4.623  49.053  1.00  0.00    -0.302 N 
HETATM   13  C4  UNL     1      24.237   4.950  49.381  1.00  0.00     0.076 C 
HETATM   14  C1  UNL     1      20.845   3.914  48.094  1.00  0.00     0.170 C 
HETATM   15  N2  UNL     1      21.137   5.944  49.307  1.00  0.00    -0.076 NA
HETATM   16  S1  UNL     1      21.967   6.879  50.493  1.00  0.00    -0.088 SA
HETATM   17  C2  UNL     1      23.569   5.995  50.981  1.00  0.00    -0.003 C 
HETATM   18  H4  UNL     1      21.689   8.264  50.461  1.00  0.00     0.116 HD
HETATM   19  C3  UNL     1      24.754   5.976  50.392  1.00  0.00    -0.007 C 
HETATM   20  C18 UNL     1      23.355   4.905  52.028  1.00  0.00     0.172 C 
ENDBRANCH   1  10
BRANCH   8  21
HETATM   21  C11 UNL     1      25.335   1.814  51.683  1.00  0.00     0.208 C 
BRANCH  21  22
HETATM   22  O1  UNL     1      26.387   1.068  52.086  1.00  0.00    -0.384 OA
BRANCH  22  23
HETATM   23  C12 UNL     1      27.490   1.532  52.660  1.00  0.00     0.201 C 
BRANCH  23  24
HETATM   24  C13 UNL     1      27.620   1.503  54.142  1.00  0.00     0.162 C 
HETATM   25  C14 UNL     1      27.166   0.225  54.815  1.00  0.00     0.147 C 
HETATM   26  N7  UNL     1      27.680  -0.860  54.056  1.00  0.00    -0.417 N 
HETATM   27  C15 UNL     1      29.072  -0.849  53.821  1.00  0.00     0.140 C 
HETATM   28  H19 UNL     1      27.062  -1.366  53.436  1.00  0.00     0.153 HD
HETATM   29  C16 UNL     1      29.699   0.518  53.780  1.00  0.00     0.187 C 
HETATM   30  O2  UNL     1      29.024   1.498  54.456  1.00  0.00    -0.381 OA
ENDBRANCH  23  24
ENDBRANCH  22  23
ENDBRANCH  21  22
ENDBRANCH   8  21
TORSDOF 5
ENDMDL
MODEL 4
REMARK VINA RESULT:      -7.0      6.992      8.912
REMARK  5 active torsions:
REMARK  status: ('A' for Active; 'I' for Inactive)
REMARK    1  A    between atoms: N3_9  and  C6_10 
REMARK    2  A    between atoms: C10_17  and  C11_18 
REMARK    3  A    between atoms: C11_18  and  O1_19 
REMARK    4  A    between atoms: O1_19  and  C12_20 
REMARK    5  A    between atoms: C12_20  and  C13_21 
ROOT
HETATM    1  C6  UNL     1      27.916   8.535  48.767  1.00  0.00     0.158 A 
HETATM    2  N4  UNL     1      27.058   9.442  49.325  1.00  0.00    -0.220 NA
HETATM    3  C7  UNL     1      25.881   9.037  49.891  1.00  0.00     0.258 A 
HETATM    4  N5  UNL     1      25.603   7.727  49.877  1.00  0.00    -0.161 NA
HETATM    5  N6  UNL     1      26.408   6.824  49.347  1.00  0.00    -0.240 N 
HETATM    6  C8  UNL     1      26.394   5.488  49.203  1.00  0.00     0.119 A 
HETATM    7  C9  UNL     1      27.546   5.088  48.561  1.00  0.00     0.031 A 
HETATM    8  C10 UNL     1      28.325   6.221  48.286  1.00  0.00    -0.001 A 
HETATM    9  C17 UNL     1      27.561   7.222  48.795  1.00  0.00     0.112 A 
ENDROOT
BRANCH   1  10
HETATM   10  N3  UNL     1      28.993   9.274  48.227  1.00  0.00    -0.336 N 
HETATM   11  C5  UNL     1      29.388   9.915  46.953  1.00  0.00     0.204 C 
HETATM   12  N1  UNL     1      28.695  11.275  46.834  1.00  0.00    -0.302 N 
HETATM   13  C4  UNL     1      30.831   9.943  46.710  1.00  0.00     0.076 C 
HETATM   14  C1  UNL     1      27.563  11.657  45.921  1.00  0.00     0.170 C 
HETATM   15  N2  UNL     1      29.021  12.496  47.609  1.00  0.00    -0.076 NA
HETATM   16  S1  UNL     1      30.222  12.243  48.818  1.00  0.00    -0.088 SA
HETATM   17  C2  UNL     1      30.915  10.489  48.657  1.00  0.00    -0.003 C 
HETATM   18  H4  UNL     1      30.865  13.416  49.275  1.00  0.00     0.116 HD
HETATM   19  C3  UNL     1      31.847  10.003  47.853  1.00  0.00    -0.007 C 
HETATM   20  C18 UNL     1      30.045   9.436  49.338  1.00  0.00     0.172 C 
ENDBRANCH   1  10
BRANCH   8  21
HETATM   21  C11 UNL     1      29.675   6.183  47.626  1.00  0.00     0.208 C 
BRANCH  21  22
HETATM   22  O1  UNL     1      30.371   5.196  48.232  1.00  0.00    -0.384 OA
BRANCH  22  23
HETATM   23  C12 UNL     1      31.692   5.063  48.225  1.00  0.00     0.201 C 
BRANCH  23  24
HETATM   24  C13 UNL     1      32.544   6.182  47.738  1.00  0.00     0.162 C 
HETATM   25  C14 UNL     1      33.708   6.556  48.632  1.00  0.00     0.147 C 
HETATM   26  N7  UNL     1      34.327   5.348  49.050  1.00  0.00    -0.417 N 
HETATM   27  C15 UNL     1      34.710   4.458  48.024  1.00  0.00     0.140 C 
HETATM   28  H19 UNL     1      34.157   5.003  49.986  1.00  0.00     0.153 HD
HETATM   29  C16 UNL     1      33.877   4.532  46.773  1.00  0.00     0.187 C 
HETATM   30  O2  UNL     1      33.235   5.723  46.562  1.00  0.00    -0.381 OA
ENDBRANCH  23  24
ENDBRANCH  22  23
ENDBRANCH  21  22
ENDBRANCH   8  21
TORSDOF 5
ENDMDL
MODEL 5
REMARK VINA RESULT:      -6.9      1.992      2.795
REMARK  5 active torsions:
REMARK  status: ('A' for Active; 'I' for Inactive)
REMARK    1  A    between atoms: N3_9  and  C6_10 
REMARK    2  A    between atoms: C10_17  and  C11_18 
REMARK    3  A    between atoms: C11_18  and  O1_19 
REMARK    4  A    between atoms: O1_19  and  C12_20 
REMARK    5  A    between atoms: C12_20  and  C13_21 
ROOT
HETATM    1  C6  UNL     1      20.647   1.318  51.108  1.00  0.00     0.158 A 
HETATM    2  N4  UNL     1      19.347   1.073  50.757  1.00  0.00    -0.220 NA
HETATM    3  C7  UNL     1      18.580   0.197  51.474  1.00  0.00     0.258 A 
HETATM    4  N5  UNL     1      19.147  -0.408  52.526  1.00  0.00    -0.161 NA
HETATM    5  N6  UNL     1      20.398  -0.195  52.894  1.00  0.00    -0.240 N 
HETATM    6  C8  UNL     1      21.200  -0.637  53.877  1.00  0.00     0.119 A 
HETATM    7  C9  UNL     1      22.435  -0.037  53.759  1.00  0.00     0.031 A 
HETATM    8  C10 UNL     1      22.414   0.825  52.652  1.00  0.00    -0.001 A 
HETATM    9  C17 UNL     1      21.147   0.664  52.192  1.00  0.00     0.112 A 
ENDROOT
BRANCH   1  10
HETATM   10  N3  UNL     1      21.166   2.211  50.144  1.00  0.00    -0.336 N 
HETATM   11  C5  UNL     1      21.159   3.657  49.834  1.00  0.00     0.204 C 
HETATM   12  N1  UNL     1      22.192   4.369  50.712  1.00  0.00    -0.302 N 
HETATM   13  C4  UNL     1      21.253   3.972  48.407  1.00  0.00     0.076 C 
HETATM   14  C1  UNL     1      21.937   5.282  51.879  1.00  0.00     0.170 C 
HETATM   15  N2  UNL     1      23.665   4.293  50.570  1.00  0.00    -0.076 NA
HETATM   16  S1  UNL     1      24.183   3.186  49.356  1.00  0.00    -0.088 SA
HETATM   17  C2  UNL     1      22.675   2.532  48.418  1.00  0.00    -0.003 C 
HETATM   18  H4  UNL     1      25.503   3.386  48.890  1.00  0.00     0.116 HD
HETATM   19  C3  UNL     1      21.986   3.062  47.419  1.00  0.00    -0.007 C 
HETATM   20  C18 UNL     1      21.978   1.379  49.135  1.00  0.00     0.172 C 
ENDBRANCH   1  10
BRANCH   8  21
HETATM   21  C11 UNL     1      23.570   1.686  52.225  1.00  0.00     0.208 C 
BRANCH  21  22
HETATM   22  O1  UNL     1      24.633   0.864  52.092  1.00  0.00    -0.384 OA
BRANCH  22  23
HETATM   23  C12 UNL     1      25.856   1.100  52.549  1.00  0.00     0.201 C 
BRANCH  23  24
HETATM   24  C13 UNL     1      26.055   1.446  53.983  1.00  0.00     0.162 C 
HETATM   25  C14 UNL     1      26.482   0.303  54.880  1.00  0.00     0.147 C 
HETATM   26  N7  UNL     1      27.498  -0.417  54.197  1.00  0.00    -0.417 N 
HETATM   27  C15 UNL     1      28.599   0.342  53.743  1.00  0.00     0.140 C 
HETATM   28  H19 UNL     1      27.268  -1.296  53.753  1.00  0.00     0.153 HD
HETATM   29  C16 UNL     1      28.292   1.780  53.425  1.00  0.00     0.187 C 
HETATM   30  O2  UNL     1      27.204   2.308  54.067  1.00  0.00    -0.381 OA
ENDBRANCH  23  24
ENDBRANCH  22  23
ENDBRANCH  21  22
ENDBRANCH   8  21
TORSDOF 5
ENDMDL
MODEL 6
REMARK VINA RESULT:      -6.7      3.366      6.711
REMARK  5 active torsions:
REMARK  status: ('A' for Active; 'I' for Inactive)
REMARK    1  A    between atoms: N3_9  and  C6_10 
REMARK    2  A    between atoms: C10_17  and  C11_18 
REMARK    3  A    between atoms: C11_18  and  O1_19 
REMARK    4  A    between atoms: O1_19  and  C12_20 
REMARK    5  A    between atoms: C12_20  and  C13_21 
ROOT
HETATM    1  C6  UNL     1      22.974   1.066  52.245  1.00  0.00     0.158 A 
HETATM    2  N4  UNL     1      24.293   1.121  51.886  1.00  0.00    -0.220 NA
HETATM    3  C7  UNL     1      25.234   0.393  52.561  1.00  0.00     0.258 A 
HETATM    4  N5  UNL     1      24.816  -0.368  53.581  1.00  0.00    -0.161 NA
HETATM    5  N6  UNL     1      23.552  -0.445  53.954  1.00  0.00    -0.240 N 
HETATM    6  C8  UNL     1      22.866  -1.109  54.900  1.00  0.00     0.119 A 
HETATM    7  C9  UNL     1      21.529  -0.791  54.799  1.00  0.00     0.031 A 
HETATM    8  C10 UNL     1      21.360   0.115  53.741  1.00  0.00    -0.001 A 
HETATM    9  C17 UNL     1      22.632   0.267  53.291  1.00  0.00     0.112 A 
ENDROOT
BRANCH   1  10
HETATM   10  N3  UNL     1      22.286   1.966  51.399  1.00  0.00    -0.336 N 
HETATM   11  C5  UNL     1      21.755   3.346  51.423  1.00  0.00     0.204 C 
HETATM   12  N1  UNL     1      22.896   4.333  51.160  1.00  0.00    -0.302 N 
HETATM   13  C4  UNL     1      20.568   3.554  50.592  1.00  0.00     0.076 C 
HETATM   14  C1  UNL     1      23.553   5.265  52.140  1.00  0.00     0.170 C 
HETATM   15  N2  UNL     1      23.576   4.562  49.863  1.00  0.00    -0.076 NA
HETATM   16  S1  UNL     1      23.057   3.493  48.616  1.00  0.00    -0.088 SA
HETATM   17  C2  UNL     1      21.602   2.456  49.243  1.00  0.00    -0.003 C 
HETATM   18  H4  UNL     1      23.336   3.930  47.301  1.00  0.00     0.116 HD
HETATM   19  C3  UNL     1      20.313   2.742  49.320  1.00  0.00    -0.007 C 
HETATM   20  C18 UNL     1      22.041   1.245  50.062  1.00  0.00     0.172 C 
ENDBRANCH   1  10
BRANCH   8  21
HETATM   21  C11 UNL     1      20.033   0.664  53.299  1.00  0.00     0.208 C 
BRANCH  21  22
HETATM   22  O1  UNL     1      19.506  -0.242  52.446  1.00  0.00    -0.384 OA
BRANCH  22  23
HETATM   23  C12 UNL     1      18.733   0.034  51.404  1.00  0.00     0.201 C 
BRANCH  23  24
HETATM   24  C13 UNL     1      17.584   0.967  51.562  1.00  0.00     0.162 C 
HETATM   25  C14 UNL     1      17.090   1.620  50.289  1.00  0.00     0.147 C 
HETATM   26  N7  UNL     1      17.027   0.611  49.291  1.00  0.00    -0.417 N 
HETATM   27  C15 UNL     1      16.282  -0.542  49.620  1.00  0.00     0.140 C 
HETATM   28  H19 UNL     1      17.751   0.566  48.587  1.00  0.00     0.153 HD
HETATM   29  C16 UNL     1      16.234  -0.871  51.088  1.00  0.00     0.187 C 
HETATM   30  O2  UNL     1      16.436   0.184  51.936  1.00  0.00    -0.381 OA
ENDBRANCH  23  24
ENDBRANCH  22  23
ENDBRANCH  21  22
ENDBRANCH   8  21
TORSDOF 5
ENDMDL
MODEL 7
REMARK VINA RESULT:      -6.6      2.461      3.576
REMARK  5 active torsions:
REMARK  status: ('A' for Active; 'I' for Inactive)
REMARK    1  A    between atoms: N3_9  and  C6_10 
REMARK    2  A    between atoms: C10_17  and  C11_18 
REMARK    3  A    between atoms: C11_18  and  O1_19 
REMARK    4  A    between atoms: O1_19  and  C12_20 
REMARK    5  A    between atoms: C12_20  and  C13_21 
ROOT
HETATM    1  C6  UNL     1      22.914   4.510  48.523  1.00  0.00     0.158 A 
HETATM    2  N4  UNL     1      22.628   4.947  47.258  1.00  0.00    -0.220 NA
HETATM    3  C7  UNL     1      21.975   4.141  46.369  1.00  0.00     0.258 A 
HETATM    4  N5  UNL     1      21.629   2.914  46.781  1.00  0.00    -0.161 NA
HETATM    5  N6  UNL     1      21.888   2.460  47.994  1.00  0.00    -0.240 N 
HETATM    6  C8  UNL     1      21.659   1.317  48.662  1.00  0.00     0.119 A 
HETATM    7  C9  UNL     1      22.165   1.429  49.940  1.00  0.00     0.031 A 
HETATM    8  C10 UNL     1      22.739   2.701  50.087  1.00  0.00    -0.001 A 
HETATM    9  C17 UNL     1      22.526   3.251  48.864  1.00  0.00     0.112 A 
ENDROOT
BRANCH   1  10
HETATM   10  N3  UNL     1      23.634   5.547  49.157  1.00  0.00    -0.336 N 
HETATM   11  C5  UNL     1      24.862   5.732  49.961  1.00  0.00     0.204 C 
HETATM   12  N1  UNL     1      26.077   5.771  49.030  1.00  0.00    -0.302 N 
HETATM   13  C4  UNL     1      24.797   6.834  50.923  1.00  0.00     0.076 C 
HETATM   14  C1  UNL     1      27.135   4.718  48.851  1.00  0.00     0.170 C 
HETATM   15  N2  UNL     1      26.447   6.878  48.116  1.00  0.00    -0.076 NA
HETATM   16  S1  UNL     1      25.285   8.149  48.070  1.00  0.00    -0.088 SA
HETATM   17  C2  UNL     1      23.952   7.829  49.377  1.00  0.00    -0.003 C 
HETATM   18  H4  UNL     1      25.768   9.382  47.576  1.00  0.00     0.116 HD
HETATM   19  C3  UNL     1      23.944   8.081  50.676  1.00  0.00    -0.007 C 
HETATM   20  C18 UNL     1      22.872   6.860  48.904  1.00  0.00     0.172 C 
ENDBRANCH   1  10
BRANCH   8  21
HETATM   21  C11 UNL     1      23.360   3.209  51.357  1.00  0.00     0.208 C 
BRANCH  21  22
HETATM   22  O1  UNL     1      23.837   2.127  52.012  1.00  0.00    -0.384 OA
BRANCH  22  23
HETATM   23  C12 UNL     1      24.960   2.082  52.717  1.00  0.00     0.201 C 
BRANCH  23  24
HETATM   24  C13 UNL     1      26.232   1.680  52.057  1.00  0.00     0.162 C 
HETATM   25  C14 UNL     1      27.500   2.086  52.776  1.00  0.00     0.147 C 
HETATM   26  N7  UNL     1      27.318   1.799  54.155  1.00  0.00    -0.417 N 
HETATM   27  C15 UNL     1      26.930   0.479  54.469  1.00  0.00     0.140 C 
HETATM   28  H19 UNL     1      27.114   2.556  54.794  1.00  0.00     0.153 HD
HETATM   29  C16 UNL     1      26.138  -0.223  53.399  1.00  0.00     0.187 C 
HETATM   30  O2  UNL     1      26.322   0.245  52.125  1.00  0.00    -0.381 OA
ENDBRANCH  23  24
ENDBRANCH  22  23
ENDBRANCH  21  22
ENDBRANCH   8  21
TORSDOF 5
ENDMDL
MODEL 8
REMARK VINA RESULT:      -6.6     25.191     26.905
REMARK  5 active torsions:
REMARK  status: ('A' for Active; 'I' for Inactive)
REMARK    1  A    between atoms: N3_9  and  C6_10 
REMARK    2  A    between atoms: C10_17  and  C11_18 
REMARK    3  A    between atoms: C11_18  and  O1_19 
REMARK    4  A    between atoms: O1_19  and  C12_20 
REMARK    5  A    between atoms: C12_20  and  C13_21 
ROOT
HETATM    1  C6  UNL     1      44.450   6.631  67.515  1.00  0.00     0.158 A 
HETATM    2  N4  UNL     1      44.322   7.945  67.157  1.00  0.00    -0.220 NA
HETATM    3  C7  UNL     1      44.480   8.335  65.856  1.00  0.00     0.258 A 
HETATM    4  N5  UNL     1      44.764   7.387  64.953  1.00  0.00    -0.161 NA
HETATM    5  N6  UNL     1      44.894   6.110  65.264  1.00  0.00    -0.240 N 
HETATM    6  C8  UNL     1      45.158   4.978  64.590  1.00  0.00     0.119 A 
HETATM    7  C9  UNL     1      45.157   3.916  65.468  1.00  0.00     0.031 A 
HETATM    8  C10 UNL     1      44.881   4.397  66.756  1.00  0.00    -0.001 A 
HETATM    9  C17 UNL     1      44.738   5.729  66.538  1.00  0.00     0.112 A 
ENDROOT
BRANCH   1  10
HETATM   10  N3  UNL     1      44.288   6.575  68.918  1.00  0.00    -0.336 N 
HETATM   11  C5  UNL     1      45.113   6.607  70.146  1.00  0.00     0.204 C 
HETATM   12  N1  UNL     1      45.473   8.059  70.476  1.00  0.00    -0.302 N 
HETATM   13  C4  UNL     1      44.560   5.847  71.268  1.00  0.00     0.076 C 
HETATM   14  C1  UNL     1      46.812   8.730  70.341  1.00  0.00     0.170 C 
HETATM   15  N2  UNL     1      44.552   9.092  71.006  1.00  0.00    -0.076 NA
HETATM   16  S1  UNL     1      42.916   8.563  71.118  1.00  0.00    -0.088 SA
HETATM   17  C2  UNL     1      42.823   6.719  70.704  1.00  0.00    -0.003 C 
HETATM   18  H4  UNL     1      42.103   9.322  71.990  1.00  0.00     0.116 HD
HETATM   19  C3  UNL     1      43.054   5.656  71.458  1.00  0.00    -0.007 C 
HETATM   20  C18 UNL     1      42.781   6.443  69.204  1.00  0.00     0.172 C 
ENDBRANCH   1  10
BRANCH   8  21
HETATM   21  C11 UNL     1      44.759   3.529  67.977  1.00  0.00     0.208 C 
BRANCH  21  22
HETATM   22  O1  UNL     1      43.550   2.929  67.904  1.00  0.00    -0.384 OA
BRANCH  22  23
HETATM   23  C12 UNL     1      42.830   2.509  68.936  1.00  0.00     0.201 C 
BRANCH  23  24
HETATM   24  C13 UNL     1      42.032   1.259  68.821  1.00  0.00     0.162 C 
HETATM   25  C14 UNL     1      42.758   0.069  68.229  1.00  0.00     0.147 C 
HETATM   26  N7  UNL     1      44.043   0.014  68.831  1.00  0.00    -0.417 N 
HETATM   27  C15 UNL     1      44.068   0.003  70.242  1.00  0.00     0.140 C 
HETATM   28  H19 UNL     1      44.848   0.337  68.309  1.00  0.00     0.153 HD
HETATM   29  C16 UNL     1      42.909   0.696  70.904  1.00  0.00     0.187 C 
HETATM   30  O2  UNL     1      41.768   0.786  70.154  1.00  0.00    -0.381 OA
ENDBRANCH  23  24
ENDBRANCH  22  23
ENDBRANCH  21  22
ENDBRANCH   8  21
TORSDOF 5
ENDMDL
MODEL 9
REMARK VINA RESULT:      -6.5      2.910      5.795
REMARK  5 active torsions:
REMARK  status: ('A' for Active; 'I' for Inactive)
REMARK    1  A    between atoms: N3_9  and  C6_10 
REMARK    2  A    between atoms: C10_17  and  C11_18 
REMARK    3  A    between atoms: C11_18  and  O1_19 
REMARK    4  A    between atoms: O1_19  and  C12_20 
REMARK    5  A    between atoms: C12_20  and  C13_21 
ROOT
HETATM    1  C6  UNL     1      24.754   4.728  50.214  1.00  0.00     0.158 A 
HETATM    2  N4  UNL     1      25.816   4.679  49.353  1.00  0.00    -0.220 NA
HETATM    3  C7  UNL     1      26.789   3.729  49.493  1.00  0.00     0.258 A 
HETATM    4  N5  UNL     1      26.663   2.854  50.501  1.00  0.00    -0.161 NA
HETATM    5  N6  UNL     1      25.651   2.872  51.350  1.00  0.00    -0.240 N 
HETATM    6  C8  UNL     1      25.273   2.140  52.411  1.00  0.00     0.119 A 
HETATM    7  C9  UNL     1      24.087   2.638  52.906  1.00  0.00     0.031 A 
HETATM    8  C10 UNL     1      23.696   3.734  52.123  1.00  0.00    -0.001 A 
HETATM    9  C17 UNL     1      24.699   3.803  51.210  1.00  0.00     0.112 A 
ENDROOT
BRANCH   1  10
HETATM   10  N3  UNL     1      23.976   5.845  49.835  1.00  0.00    -0.336 N 
HETATM   11  C5  UNL     1      23.839   7.281  50.162  1.00  0.00     0.204 C 
HETATM   12  N1  UNL     1      24.920   8.075  49.423  1.00  0.00    -0.302 N 
HETATM   13  C4  UNL     1      22.483   7.812  50.008  1.00  0.00     0.076 C 
HETATM   14  C1  UNL     1      26.143   8.728  50.003  1.00  0.00     0.170 C 
HETATM   15  N2  UNL     1      24.961   8.357  47.968  1.00  0.00    -0.076 NA
HETATM   16  S1  UNL     1      23.702   7.583  47.082  1.00  0.00    -0.088 SA
HETATM   17  C2  UNL     1      22.508   6.745  48.288  1.00  0.00    -0.003 C 
HETATM   18  H4  UNL     1      23.437   8.141  45.811  1.00  0.00     0.116 HD
HETATM   19  C3  UNL     1      21.498   7.244  48.984  1.00  0.00    -0.007 C 
HETATM   20  C18 UNL     1      22.989   5.373  48.751  1.00  0.00     0.172 C 
ENDBRANCH   1  10
BRANCH   8  21
HETATM   21  C11 UNL     1      22.431   4.517  52.332  1.00  0.00     0.208 C 
BRANCH  21  22
HETATM   22  O1  UNL     1      21.415   3.627  52.287  1.00  0.00    -0.384 OA
BRANCH  22  23
HETATM   23  C12 UNL     1      20.923   3.069  51.188  1.00  0.00     0.201 C 
BRANCH  23  24
HETATM   24  C13 UNL     1      20.808   1.588  51.099  1.00  0.00     0.162 C 
HETATM   25  C14 UNL     1      19.736   1.069  50.164  1.00  0.00     0.147 C 
HETATM   26  N7  UNL     1      19.814   1.829  48.966  1.00  0.00    -0.417 N 
HETATM   27  C15 UNL     1      21.080   1.881  48.345  1.00  0.00     0.140 C 
HETATM   28  H19 UNL     1      19.133   2.557  48.798  1.00  0.00     0.153 HD
HETATM   29  C16 UNL     1      22.252   1.747  49.278  1.00  0.00     0.187 C 
HETATM   30  O2  UNL     1      21.998   1.097  50.457  1.00  0.00    -0.381 OA
ENDBRANCH  23  24
ENDBRANCH  22  23
ENDBRANCH  21  22
ENDBRANCH   8  21
TORSDOF 5
ENDMDL
