MODEL 1
REMARK VINA RESULT:     -10.0      0.000      0.000
REMARK  5 active torsions:
REMARK  status: ('A' for Active; 'I' for Inactive)
REMARK    1  A    between atoms: N1_1  and  C1_2 
REMARK    2  A    between atoms: C4_7  and  C5_8 
REMARK    3  A    between atoms: C5_8  and  C6_9 
REMARK    4  A    between atoms: C6_9  and  N3_10 
REMARK    5  A    between atoms: C13_21  and  C14_22 
ROOT
HETATM    1  N3  UNL     1      26.430   0.912  52.487  1.00  0.00    -0.314 N 
HETATM    2  C7  UNL     1      27.738   0.845  53.091  1.00  0.00     0.248 C 
HETATM    3  O2  UNL     1      28.705   1.596  52.738  1.00  0.00    -0.271 OA
HETATM    4  C8  UNL     1      28.045  -0.125  54.188  1.00  0.00     0.279 C 
HETATM    5  O3  UNL     1      26.882  -0.389  54.967  1.00  0.00    -0.340 OA
HETATM    6  C9  UNL     1      25.606  -0.346  54.412  1.00  0.00     0.098 A 
HETATM    7  C10 UNL     1      24.548  -0.936  55.060  1.00  0.00     0.071 A 
HETATM    8  C11 UNL     1      23.279  -0.899  54.519  1.00  0.00     0.073 A 
HETATM    9  N4  UNL     1      22.260  -1.485  55.152  1.00  0.00    -0.241 NA
HETATM   10  C12 UNL     1      21.042  -1.425  54.568  1.00  0.00     0.234 A 
HETATM   11  N5  UNL     1      20.845  -0.803  53.393  1.00  0.00    -0.240 NA
HETATM   12  C13 UNL     1      21.859  -0.192  52.712  1.00  0.00     0.081 A 
HETATM   13  C20 UNL     1      23.099  -0.257  53.311  1.00  0.00     0.025 A 
HETATM   14  C21 UNL     1      24.132   0.346  52.628  1.00  0.00     0.049 A 
HETATM   15  C22 UNL     1      25.377   0.284  53.207  1.00  0.00     0.071 A 
ENDROOT
BRANCH   1  16
HETATM   16  C6  UNL     1      26.393   1.603  51.248  1.00  0.00     0.134 C 
BRANCH  16  17
HETATM   17  C5  UNL     1      26.345   3.117  51.408  1.00  0.00     0.058 C 
BRANCH  17  18
HETATM   18  C4  UNL     1      24.911   3.576  51.209  1.00  0.00     0.248 C 
HETATM   19  C1  UNL     1      24.779   4.676  50.192  1.00  0.00     0.131 C 
HETATM   20  C2  UNL     1      23.333   5.116  50.204  1.00  0.00     0.196 C 
HETATM   21  O1  UNL     1      22.541   4.328  51.028  1.00  0.00    -0.361 OA
HETATM   22  C3  UNL     1      22.952   4.292  52.342  1.00  0.00     0.438 C 
HETATM   23  N2  UNL     1      24.373   4.019  52.478  1.00  0.00     0.113 N 
HETATM   24  H8  UNL     1      24.820   4.896  52.808  1.00  0.00     0.319 HD
BRANCH  19  25
HETATM   25  N1  UNL     1      25.660   5.782  50.442  1.00  0.00    -0.422 N 
HETATM   26  H1  UNL     1      25.735   6.473  49.689  1.00  0.00     0.150 HD
HETATM   27  H2  UNL     1      26.553   5.519  50.877  1.00  0.00     0.150 HD
ENDBRANCH  19  25
ENDBRANCH  17  18
ENDBRANCH  16  17
ENDBRANCH   1  16
BRANCH  12  28
HETATM   28  C14 UNL     1      21.483   0.433  51.455  1.00  0.00    -0.005 A 
HETATM   29  C15 UNL     1      20.095   0.492  51.275  1.00  0.00     0.017 A 
HETATM   30  C16 UNL     1      19.491   1.053  50.173  1.00  0.00     0.045 A 
HETATM   31  C17 UNL     1      20.247   1.591  49.182  1.00  0.00     0.138 A 
HETATM   32  F1  UNL     1      19.808   2.175  48.041  1.00  0.00    -0.204 F 
HETATM   33  C18 UNL     1      21.617   1.542  49.339  1.00  0.00     0.073 A 
HETATM   34 CL1  UNL     1      22.714   2.205  48.124  1.00  0.00    -0.081 Cl
HETATM   35  C19 UNL     1      22.234   0.984  50.438  1.00  0.00     0.041 A 
ENDBRANCH  12  28
TORSDOF 5
ENDMDL
MODEL 2
REMARK VINA RESULT:     -10.0      2.967      5.854
REMARK  5 active torsions:
REMARK  status: ('A' for Active; 'I' for Inactive)
REMARK    1  A    between atoms: N1_1  and  C1_2 
REMARK    2  A    between atoms: C4_7  and  C5_8 
REMARK    3  A    between atoms: C5_8  and  C6_9 
REMARK    4  A    between atoms: C6_9  and  N3_10 
REMARK    5  A    between atoms: C13_21  and  C14_22 
ROOT
HETATM    1  N3  UNL     1      24.111   0.605  53.509  1.00  0.00    -0.314 N 
HETATM    2  C7  UNL     1      23.998  -0.619  54.265  1.00  0.00     0.248 C 
HETATM    3  O2  UNL     1      24.965  -1.118  54.926  1.00  0.00    -0.271 OA
HETATM    4  C8  UNL     1      22.716  -1.389  54.320  1.00  0.00     0.279 C 
HETATM    5  O3  UNL     1      21.597  -0.514  54.199  1.00  0.00    -0.340 OA
HETATM    6  C9  UNL     1      21.670   0.667  53.467  1.00  0.00     0.098 A 
HETATM    7  C10 UNL     1      20.521   1.306  53.067  1.00  0.00     0.071 A 
HETATM    8  C11 UNL     1      20.581   2.478  52.341  1.00  0.00     0.073 A 
HETATM    9  N4  UNL     1      19.460   3.085  51.948  1.00  0.00    -0.241 NA
HETATM   10  C12 UNL     1      19.581   4.224  51.230  1.00  0.00     0.234 A 
HETATM   11  N5  UNL     1      20.780   4.741  50.913  1.00  0.00    -0.240 NA
HETATM   12  C13 UNL     1      21.952   4.153  51.292  1.00  0.00     0.081 A 
HETATM   13  C20 UNL     1      21.822   2.991  52.024  1.00  0.00     0.025 A 
HETATM   14  C21 UNL     1      22.998   2.382  52.403  1.00  0.00     0.049 A 
HETATM   15  C22 UNL     1      22.888   1.218  53.126  1.00  0.00     0.071 A 
ENDROOT
BRANCH   1  16
HETATM   16  C6  UNL     1      25.447   1.014  53.257  1.00  0.00     0.134 C 
BRANCH  16  17
HETATM   17  C5  UNL     1      26.191   0.083  52.309  1.00  0.00     0.058 C 
BRANCH  17  18
HETATM   18  C4  UNL     1      27.587  -0.149  52.860  1.00  0.00     0.248 C 
HETATM   19  C1  UNL     1      28.068  -1.561  52.674  1.00  0.00     0.131 C 
HETATM   20  C2  UNL     1      29.397  -1.672  53.386  1.00  0.00     0.196 C 
HETATM   21  O1  UNL     1      29.839  -0.454  53.884  1.00  0.00    -0.361 OA
HETATM   22  C3  UNL     1      28.970   0.146  54.767  1.00  0.00     0.438 C 
HETATM   23  N2  UNL     1      27.605   0.190  54.268  1.00  0.00     0.113 N 
HETATM   24  H8  UNL     1      27.051  -0.477  54.838  1.00  0.00     0.319 HD
BRANCH  19  25
HETATM   25  N1  UNL     1      27.137  -2.541  53.159  1.00  0.00    -0.422 N 
HETATM   26  H1  UNL     1      26.424  -2.851  52.492  1.00  0.00     0.150 HD
HETATM   27  H2  UNL     1      26.790  -2.358  54.109  1.00  0.00     0.150 HD
ENDBRANCH  19  25
ENDBRANCH  17  18
ENDBRANCH  16  17
ENDBRANCH   1  16
BRANCH  12  28
HETATM   28  C14 UNL     1      23.164   4.834  50.867  1.00  0.00    -0.005 A 
HETATM   29  C15 UNL     1      23.190   6.180  51.254  1.00  0.00     0.017 A 
HETATM   30  C16 UNL     1      24.237   7.032  50.986  1.00  0.00     0.045 A 
HETATM   31  C17 UNL     1      25.325   6.581  50.310  1.00  0.00     0.138 A 
HETATM   32  F1  UNL     1      26.430   7.288  49.969  1.00  0.00    -0.204 F 
HETATM   33  C18 UNL     1      25.319   5.258  49.919  1.00  0.00     0.073 A 
HETATM   34 CL1  UNL     1      26.671   4.546  49.034  1.00  0.00    -0.081 Cl
HETATM   35  C19 UNL     1      24.277   4.395  50.182  1.00  0.00     0.041 A 
ENDBRANCH  12  28
TORSDOF 5
ENDMDL
MODEL 3
REMARK VINA RESULT:      -9.9      3.628      5.678
REMARK  5 active torsions:
REMARK  status: ('A' for Active; 'I' for Inactive)
REMARK    1  A    between atoms: N1_1  and  C1_2 
REMARK    2  A    between atoms: C4_7  and  C5_8 
REMARK    3  A    between atoms: C5_8  and  C6_9 
REMARK    4  A    between atoms: C6_9  and  N3_10 
REMARK    5  A    between atoms: C13_21  and  C14_22 
ROOT
HETATM    1  N3  UNL     1      23.240   2.954  49.932  1.00  0.00    -0.314 N 
HETATM    2  C7  UNL     1      22.258   3.609  49.102  1.00  0.00     0.248 C 
HETATM    3  O2  UNL     1      22.549   4.177  48.000  1.00  0.00    -0.271 OA
HETATM    4  C8  UNL     1      20.814   3.663  49.492  1.00  0.00     0.279 C 
HETATM    5  O3  UNL     1      20.456   2.515  50.256  1.00  0.00    -0.340 OA
HETATM    6  C9  UNL     1      21.375   1.867  51.076  1.00  0.00     0.098 A 
HETATM    7  C10 UNL     1      20.943   1.006  52.056  1.00  0.00     0.071 A 
HETATM    8  C11 UNL     1      21.846   0.358  52.874  1.00  0.00     0.073 A 
HETATM    9  N4  UNL     1      21.416  -0.468  53.830  1.00  0.00    -0.241 NA
HETATM   10  C12 UNL     1      22.346  -1.065  54.608  1.00  0.00     0.234 A 
HETATM   11  N5  UNL     1      23.661  -0.847  54.441  1.00  0.00    -0.240 NA
HETATM   12  C13 UNL     1      24.144  -0.010  53.477  1.00  0.00     0.081 A 
HETATM   13  C20 UNL     1      23.192   0.598  52.687  1.00  0.00     0.025 A 
HETATM   14  C21 UNL     1      23.667   1.454  51.718  1.00  0.00     0.049 A 
HETATM   15  C22 UNL     1      22.730   2.075  50.926  1.00  0.00     0.071 A 
ENDROOT
BRANCH   1  16
HETATM   16  C6  UNL     1      24.584   3.293  49.626  1.00  0.00     0.134 C 
BRANCH  16  17
HETATM   17  C5  UNL     1      25.160   4.353  50.556  1.00  0.00     0.058 C 
BRANCH  17  18
HETATM   18  C4  UNL     1      25.350   5.635  49.764  1.00  0.00     0.248 C 
HETATM   19  C1  UNL     1      26.451   5.541  48.745  1.00  0.00     0.131 C 
HETATM   20  C2  UNL     1      26.611   6.917  48.140  1.00  0.00     0.196 C 
HETATM   21  O1  UNL     1      25.651   7.813  48.591  1.00  0.00    -0.361 OA
HETATM   22  C3  UNL     1      25.633   7.984  49.957  1.00  0.00     0.438 C 
HETATM   23  N2  UNL     1      25.626   6.723  50.680  1.00  0.00     0.113 N 
HETATM   24  H8  UNL     1      26.555   6.627  51.133  1.00  0.00     0.319 HD
BRANCH  19  25
HETATM   25  N1  UNL     1      27.690   5.070  49.295  1.00  0.00    -0.422 N 
HETATM   26  H1  UNL     1      27.614   4.479  50.129  1.00  0.00     0.150 HD
HETATM   27  H2  UNL     1      28.430   5.782  49.337  1.00  0.00     0.150 HD
ENDBRANCH  19  25
ENDBRANCH  17  18
ENDBRANCH  16  17
ENDBRANCH   1  16
BRANCH  12  28
HETATM   28  C14 UNL     1      25.591   0.122  53.428  1.00  0.00    -0.005 A 
HETATM   29  C15 UNL     1      26.232  -1.082  53.109  1.00  0.00     0.017 A 
HETATM   30  C16 UNL     1      27.597  -1.211  52.984  1.00  0.00     0.045 A 
HETATM   31  C17 UNL     1      28.403  -0.135  53.172  1.00  0.00     0.138 A 
HETATM   32  F1  UNL     1      29.755  -0.098  53.087  1.00  0.00    -0.204 F 
HETATM   33  C18 UNL     1      27.791   1.061  53.487  1.00  0.00     0.073 A 
HETATM   34 CL1  UNL     1      28.724   2.536  53.757  1.00  0.00    -0.081 Cl
HETATM   35  C19 UNL     1      26.426   1.204  53.615  1.00  0.00     0.041 A 
ENDBRANCH  12  28
TORSDOF 5
ENDMDL
MODEL 4
REMARK VINA RESULT:      -9.8      1.245      1.333
REMARK  5 active torsions:
REMARK  status: ('A' for Active; 'I' for Inactive)
REMARK    1  A    between atoms: N1_1  and  C1_2 
REMARK    2  A    between atoms: C4_7  and  C5_8 
REMARK    3  A    between atoms: C5_8  and  C6_9 
REMARK    4  A    between atoms: C6_9  and  N3_10 
REMARK    5  A    between atoms: C13_21  and  C14_22 
ROOT
HETATM    1  N3  UNL     1      26.642   1.527  53.314  1.00  0.00    -0.314 N 
HETATM    2  C7  UNL     1      27.934   1.329  53.923  1.00  0.00     0.248 C 
HETATM    3  O2  UNL     1      28.876   2.182  53.844  1.00  0.00    -0.271 OA
HETATM    4  C8  UNL     1      28.252   0.090  54.699  1.00  0.00     0.279 C 
HETATM    5  O3  UNL     1      27.080  -0.432  55.319  1.00  0.00    -0.340 OA
HETATM    6  C9  UNL     1      25.820  -0.270  54.751  1.00  0.00     0.098 A 
HETATM    7  C10 UNL     1      24.771  -1.060  55.154  1.00  0.00     0.071 A 
HETATM    8  C11 UNL     1      23.518  -0.908  54.598  1.00  0.00     0.073 A 
HETATM    9  N4  UNL     1      22.508  -1.688  54.989  1.00  0.00    -0.241 NA
HETATM   10  C12 UNL     1      21.305  -1.500  54.401  1.00  0.00     0.234 A 
HETATM   11  N5  UNL     1      21.114  -0.567  53.453  1.00  0.00    -0.240 NA
HETATM   12  C13 UNL     1      22.119   0.251  53.022  1.00  0.00     0.081 A 
HETATM   13  C20 UNL     1      23.343   0.055  53.625  1.00  0.00     0.025 A 
HETATM   14  C21 UNL     1      24.368   0.867  53.190  1.00  0.00     0.049 A 
HETATM   15  C22 UNL     1      25.598   0.679  53.775  1.00  0.00     0.071 A 
ENDROOT
BRANCH   1  16
HETATM   16  C6  UNL     1      26.609   2.551  52.331  1.00  0.00     0.134 C 
BRANCH  16  17
HETATM   17  C5  UNL     1      25.976   2.103  51.020  1.00  0.00     0.058 C 
BRANCH  17  18
HETATM   18  C4  UNL     1      25.117   3.238  50.490  1.00  0.00     0.248 C 
HETATM   19  C1  UNL     1      25.742   3.958  49.328  1.00  0.00     0.131 C 
HETATM   20  C2  UNL     1      24.846   5.132  49.002  1.00  0.00     0.196 C 
HETATM   21  O1  UNL     1      23.682   5.141  49.759  1.00  0.00    -0.361 OA
HETATM   22  C3  UNL     1      23.891   5.171  51.120  1.00  0.00     0.438 C 
HETATM   23  N2  UNL     1      24.856   4.177  51.561  1.00  0.00     0.113 N 
HETATM   24  H8  UNL     1      25.711   4.690  51.849  1.00  0.00     0.319 HD
BRANCH  19  25
HETATM   25  N1  UNL     1      27.086   4.389  49.589  1.00  0.00    -0.422 N 
HETATM   26  H1  UNL     1      27.518   4.018  50.441  1.00  0.00     0.150 HD
HETATM   27  H2  UNL     1      27.246   5.390  49.425  1.00  0.00     0.150 HD
ENDBRANCH  19  25
ENDBRANCH  17  18
ENDBRANCH  16  17
ENDBRANCH   1  16
BRANCH  12  28
HETATM   28  C14 UNL     1      21.752   1.206  51.989  1.00  0.00    -0.005 A 
HETATM   29  C15 UNL     1      20.952   2.247  52.477  1.00  0.00     0.017 A 
HETATM   30  C16 UNL     1      20.490   3.284  51.698  1.00  0.00     0.045 A 
HETATM   31  C17 UNL     1      20.805   3.338  50.379  1.00  0.00     0.138 A 
HETATM   32  F1  UNL     1      20.431   4.285  49.484  1.00  0.00    -0.204 F 
HETATM   33  C18 UNL     1      21.593   2.321  49.879  1.00  0.00     0.073 A 
HETATM   34 CL1  UNL     1      22.075   2.272  48.181  1.00  0.00    -0.081 Cl
HETATM   35  C19 UNL     1      22.062   1.278  50.647  1.00  0.00     0.041 A 
ENDBRANCH  12  28
TORSDOF 5
ENDMDL
MODEL 5
REMARK VINA RESULT:      -9.3      2.968      6.218
REMARK  5 active torsions:
REMARK  status: ('A' for Active; 'I' for Inactive)
REMARK    1  A    between atoms: N1_1  and  C1_2 
REMARK    2  A    between atoms: C4_7  and  C5_8 
REMARK    3  A    between atoms: C5_8  and  C6_9 
REMARK    4  A    between atoms: C6_9  and  N3_10 
REMARK    5  A    between atoms: C13_21  and  C14_22 
ROOT
HETATM    1  N3  UNL     1      23.578   0.906  52.794  1.00  0.00    -0.314 N 
HETATM    2  C7  UNL     1      23.013  -0.099  53.661  1.00  0.00     0.248 C 
HETATM    3  O2  UNL     1      23.719  -0.832  54.427  1.00  0.00    -0.271 OA
HETATM    4  C8  UNL     1      21.538  -0.347  53.716  1.00  0.00     0.279 C 
HETATM    5  O3  UNL     1      20.816   0.850  53.440  1.00  0.00    -0.340 OA
HETATM    6  C9  UNL     1      21.326   1.834  52.599  1.00  0.00     0.098 A 
HETATM    7  C10 UNL     1      20.496   2.791  52.068  1.00  0.00     0.071 A 
HETATM    8  C11 UNL     1      20.992   3.771  51.232  1.00  0.00     0.073 A 
HETATM    9  N4  UNL     1      20.175   4.690  50.714  1.00  0.00    -0.241 NA
HETATM   10  C12 UNL     1      20.716   5.619  49.893  1.00  0.00     0.234 A 
HETATM   11  N5  UNL     1      22.027   5.632  49.598  1.00  0.00    -0.240 NA
HETATM   12  C13 UNL     1      22.898   4.711  50.106  1.00  0.00     0.081 A 
HETATM   13  C20 UNL     1      22.341   3.766  50.941  1.00  0.00     0.025 A 
HETATM   14  C21 UNL     1      23.208   2.823  51.450  1.00  0.00     0.049 A 
HETATM   15  C22 UNL     1      22.668   1.869  52.279  1.00  0.00     0.071 A 
ENDROOT
BRANCH   1  16
HETATM   16  C6  UNL     1      24.976   0.778  52.585  1.00  0.00     0.134 C 
BRANCH  16  17
HETATM   17  C5  UNL     1      25.794   1.802  53.360  1.00  0.00     0.058 C 
BRANCH  17  18
HETATM   18  C4  UNL     1      27.226   1.302  53.452  1.00  0.00     0.248 C 
HETATM   19  C1  UNL     1      27.331  -0.081  54.033  1.00  0.00     0.131 C 
HETATM   20  C2  UNL     1      28.804  -0.383  54.188  1.00  0.00     0.196 C 
HETATM   21  O1  UNL     1      29.612   0.614  53.657  1.00  0.00    -0.361 OA
HETATM   22  C3  UNL     1      29.407   1.861  54.203  1.00  0.00     0.438 C 
HETATM   23  N2  UNL     1      28.001   2.227  54.253  1.00  0.00     0.113 N 
HETATM   24  H8  UNL     1      27.718   2.212  55.252  1.00  0.00     0.319 HD
BRANCH  19  25
HETATM   25  N1  UNL     1      26.639  -0.222  55.282  1.00  0.00    -0.422 N 
HETATM   26  H1  UNL     1      26.716  -1.137  55.736  1.00  0.00     0.150 HD
HETATM   27  H2  UNL     1      25.695   0.185  55.288  1.00  0.00     0.150 HD
ENDBRANCH  19  25
ENDBRANCH  17  18
ENDBRANCH  16  17
ENDBRANCH   1  16
BRANCH  12  28
HETATM   28  C14 UNL     1      24.282   4.858  49.688  1.00  0.00    -0.005 A 
HETATM   29  C15 UNL     1      24.983   3.646  49.706  1.00  0.00     0.017 A 
HETATM   30  C16 UNL     1      26.303   3.520  49.336  1.00  0.00     0.045 A 
HETATM   31  C17 UNL     1      27.001   4.610  48.925  1.00  0.00     0.138 A 
HETATM   32  F1  UNL     1      28.297   4.653  48.532  1.00  0.00    -0.204 F 
HETATM   33  C18 UNL     1      26.329   5.815  48.901  1.00  0.00     0.073 A 
HETATM   34 CL1  UNL     1      27.120   7.308  48.386  1.00  0.00    -0.081 Cl
HETATM   35  C19 UNL     1      25.008   5.953  49.268  1.00  0.00     0.041 A 
ENDBRANCH  12  28
TORSDOF 5
ENDMDL
MODEL 6
REMARK VINA RESULT:      -9.2      1.758      2.665
REMARK  5 active torsions:
REMARK  status: ('A' for Active; 'I' for Inactive)
REMARK    1  A    between atoms: N1_1  and  C1_2 
REMARK    2  A    between atoms: C4_7  and  C5_8 
REMARK    3  A    between atoms: C5_8  and  C6_9 
REMARK    4  A    between atoms: C6_9  and  N3_10 
REMARK    5  A    between atoms: C13_21  and  C14_22 
ROOT
HETATM    1  N3  UNL     1      24.296   0.315  53.290  1.00  0.00    -0.314 N 
HETATM    2  C7  UNL     1      25.111  -0.196  54.365  1.00  0.00     0.248 C 
HETATM    3  O2  UNL     1      26.274   0.252  54.627  1.00  0.00    -0.271 OA
HETATM    4  C8  UNL     1      24.632  -1.300  55.253  1.00  0.00     0.279 C 
HETATM    5  O3  UNL     1      23.213  -1.262  55.384  1.00  0.00    -0.340 OA
HETATM    6  C9  UNL     1      22.398  -0.787  54.362  1.00  0.00     0.098 A 
HETATM    7  C10 UNL     1      21.055  -1.079  54.353  1.00  0.00     0.071 A 
HETATM    8  C11 UNL     1      20.238  -0.614  53.344  1.00  0.00     0.073 A 
HETATM    9  N4  UNL     1      18.937  -0.912  53.339  1.00  0.00    -0.241 NA
HETATM   10  C12 UNL     1      18.188  -0.437  52.319  1.00  0.00     0.234 A 
HETATM   11  N5  UNL     1      18.717   0.310  51.335  1.00  0.00    -0.240 NA
HETATM   12  C13 UNL     1      20.042   0.638  51.300  1.00  0.00     0.081 A 
HETATM   13  C20 UNL     1      20.801   0.150  52.342  1.00  0.00     0.025 A 
HETATM   14  C21 UNL     1      22.142   0.465  52.311  1.00  0.00     0.049 A 
HETATM   15  C22 UNL     1      22.916  -0.020  53.339  1.00  0.00     0.071 A 
ENDROOT
BRANCH   1  16
HETATM   16  C6  UNL     1      25.008   1.084  52.332  1.00  0.00     0.134 C 
BRANCH  16  17
HETATM   17  C5  UNL     1      25.140   2.551  52.721  1.00  0.00     0.058 C 
BRANCH  17  18
HETATM   18  C4  UNL     1      24.393   3.388  51.698  1.00  0.00     0.248 C 
HETATM   19  C1  UNL     1      25.125   3.516  50.391  1.00  0.00     0.131 C 
HETATM   20  C2  UNL     1      24.334   4.477  49.534  1.00  0.00     0.196 C 
HETATM   21  O1  UNL     1      23.138   4.860  50.125  1.00  0.00    -0.361 OA
HETATM   22  C3  UNL     1      23.280   5.457  51.357  1.00  0.00     0.438 C 
HETATM   23  N2  UNL     1      24.147   4.705  52.249  1.00  0.00     0.113 N 
HETATM   24  H8  UNL     1      25.022   5.253  52.356  1.00  0.00     0.319 HD
BRANCH  19  25
HETATM   25  N1  UNL     1      26.483   3.957  50.547  1.00  0.00    -0.422 N 
HETATM   26  H1  UNL     1      26.724   4.349  51.462  1.00  0.00     0.150 HD
HETATM   27  H2  UNL     1      26.850   4.481  49.742  1.00  0.00     0.150 HD
ENDBRANCH  19  25
ENDBRANCH  17  18
ENDBRANCH  16  17
ENDBRANCH   1  16
BRANCH  12  28
HETATM   28  C14 UNL     1      20.458   1.448  50.167  1.00  0.00    -0.005 A 
HETATM   29  C15 UNL     1      21.367   0.784  49.334  1.00  0.00     0.017 A 
HETATM   30  C16 UNL     1      21.895   1.333  48.187  1.00  0.00     0.045 A 
HETATM   31  C17 UNL     1      21.540   2.587  47.807  1.00  0.00     0.138 A 
HETATM   32  F1  UNL     1      21.968   3.265  46.715  1.00  0.00    -0.204 F 
HETATM   33  C18 UNL     1      20.646   3.260  48.615  1.00  0.00     0.073 A 
HETATM   34 CL1  UNL     1      20.103   4.896  48.235  1.00  0.00    -0.081 Cl
HETATM   35  C19 UNL     1      20.110   2.721  49.765  1.00  0.00     0.041 A 
ENDBRANCH  12  28
TORSDOF 5
ENDMDL
MODEL 7
REMARK VINA RESULT:      -9.2      1.816      2.145
REMARK  5 active torsions:
REMARK  status: ('A' for Active; 'I' for Inactive)
REMARK    1  A    between atoms: N1_1  and  C1_2 
REMARK    2  A    between atoms: C4_7  and  C5_8 
REMARK    3  A    between atoms: C5_8  and  C6_9 
REMARK    4  A    between atoms: C6_9  and  N3_10 
REMARK    5  A    between atoms: C13_21  and  C14_22 
ROOT
HETATM    1  N3  UNL     1      25.661   1.690  53.399  1.00  0.00    -0.314 N 
HETATM    2  C7  UNL     1      26.970   1.545  53.989  1.00  0.00     0.248 C 
HETATM    3  O2  UNL     1      27.844   2.471  53.974  1.00  0.00    -0.271 OA
HETATM    4  C8  UNL     1      27.387   0.277  54.666  1.00  0.00     0.279 C 
HETATM    5  O3  UNL     1      26.263  -0.378  55.246  1.00  0.00    -0.340 OA
HETATM    6  C9  UNL     1      24.990  -0.270  54.694  1.00  0.00     0.098 A 
HETATM    7  C10 UNL     1      24.007  -1.166  55.038  1.00  0.00     0.071 A 
HETATM    8  C11 UNL     1      22.741  -1.068  54.497  1.00  0.00     0.073 A 
HETATM    9  N4  UNL     1      21.797  -1.950  54.829  1.00  0.00    -0.241 NA
HETATM   10  C12 UNL     1      20.579  -1.810  54.259  1.00  0.00     0.234 A 
HETATM   11  N5  UNL     1      20.310  -0.824  53.387  1.00  0.00    -0.240 NA
HETATM   12  C13 UNL     1      21.246   0.099  53.019  1.00  0.00     0.081 A 
HETATM   13  C20 UNL     1      22.487  -0.049  53.602  1.00  0.00     0.025 A 
HETATM   14  C21 UNL     1      23.443   0.870  53.229  1.00  0.00     0.049 A 
HETATM   15  C22 UNL     1      24.688   0.732  53.795  1.00  0.00     0.071 A 
ENDROOT
BRANCH   1  16
HETATM   16  C6  UNL     1      25.543   2.781  52.499  1.00  0.00     0.134 C 
BRANCH  16  17
HETATM   17  C5  UNL     1      26.101   2.478  51.115  1.00  0.00     0.058 C 
BRANCH  17  18
HETATM   18  C4  UNL     1      26.224   3.785  50.350  1.00  0.00     0.248 C 
HETATM   19  C1  UNL     1      24.904   4.302  49.851  1.00  0.00     0.131 C 
HETATM   20  C2  UNL     1      25.198   5.519  49.003  1.00  0.00     0.196 C 
HETATM   21  O1  UNL     1      26.541   5.872  49.025  1.00  0.00    -0.361 OA
HETATM   22  C3  UNL     1      27.394   4.879  48.599  1.00  0.00     0.438 C 
HETATM   23  N2  UNL     1      27.127   3.599  49.232  1.00  0.00     0.113 N 
HETATM   24  H8  UNL     1      26.726   2.977  48.505  1.00  0.00     0.319 HD
BRANCH  19  25
HETATM   25  N1  UNL     1      24.157   3.324  49.112  1.00  0.00    -0.422 N 
HETATM   26  H1  UNL     1      23.746   3.646  48.231  1.00  0.00     0.150 HD
HETATM   27  H2  UNL     1      23.538   2.742  49.691  1.00  0.00     0.150 HD
ENDBRANCH  19  25
ENDBRANCH  17  18
ENDBRANCH  16  17
ENDBRANCH   1  16
BRANCH  12  28
HETATM   28  C14 UNL     1      20.800   1.100  52.063  1.00  0.00    -0.005 A 
HETATM   29  C15 UNL     1      20.165   2.187  52.678  1.00  0.00     0.017 A 
HETATM   30  C16 UNL     1      19.670   3.271  51.990  1.00  0.00     0.045 A 
HETATM   31  C17 UNL     1      19.783   3.330  50.638  1.00  0.00     0.138 A 
HETATM   32  F1  UNL     1      19.351   4.320  49.821  1.00  0.00    -0.204 F 
HETATM   33  C18 UNL     1      20.406   2.268  50.013  1.00  0.00     0.073 A 
HETATM   34 CL1  UNL     1      20.618   2.219  48.261  1.00  0.00    -0.081 Cl
HETATM   35  C19 UNL     1      20.906   1.177  50.691  1.00  0.00     0.041 A 
ENDBRANCH  12  28
TORSDOF 5
ENDMDL
MODEL 8
REMARK VINA RESULT:      -9.1      2.714      5.435
REMARK  5 active torsions:
REMARK  status: ('A' for Active; 'I' for Inactive)
REMARK    1  A    between atoms: N1_1  and  C1_2 
REMARK    2  A    between atoms: C4_7  and  C5_8 
REMARK    3  A    between atoms: C5_8  and  C6_9 
REMARK    4  A    between atoms: C6_9  and  N3_10 
REMARK    5  A    between atoms: C13_21  and  C14_22 
ROOT
HETATM    1  N3  UNL     1      21.637   0.595  52.750  1.00  0.00    -0.314 N 
HETATM    2  C7  UNL     1      20.773  -0.347  53.420  1.00  0.00     0.248 C 
HETATM    3  O2  UNL     1      19.563  -0.545  53.076  1.00  0.00    -0.271 OA
HETATM    4  C8  UNL     1      21.254  -1.163  54.579  1.00  0.00     0.279 C 
HETATM    5  O3  UNL     1      22.650  -1.425  54.466  1.00  0.00    -0.340 OA
HETATM    6  C9  UNL     1      23.513  -0.532  53.838  1.00  0.00     0.098 A 
HETATM    7  C10 UNL     1      24.868  -0.616  54.043  1.00  0.00     0.071 A 
HETATM    8  C11 UNL     1      25.732   0.265  53.424  1.00  0.00     0.073 A 
HETATM    9  N4  UNL     1      27.047   0.180  53.639  1.00  0.00    -0.241 NA
HETATM   10  C12 UNL     1      27.843   1.077  53.014  1.00  0.00     0.234 A 
HETATM   11  N5  UNL     1      27.347   2.027  52.203  1.00  0.00    -0.240 NA
HETATM   12  C13 UNL     1      26.010   2.150  51.957  1.00  0.00     0.081 A 
HETATM   13  C20 UNL     1      25.202   1.233  52.597  1.00  0.00     0.025 A 
HETATM   14  C21 UNL     1      23.849   1.355  52.366  1.00  0.00     0.049 A 
HETATM   15  C22 UNL     1      23.029   0.454  53.002  1.00  0.00     0.071 A 
ENDROOT
BRANCH   1  16
HETATM   16  C6  UNL     1      20.955   1.533  51.932  1.00  0.00     0.134 C 
BRANCH  16  17
HETATM   17  C5  UNL     1      20.655   1.003  50.536  1.00  0.00     0.058 C 
BRANCH  17  18
HETATM   18  C4  UNL     1      21.209   1.986  49.519  1.00  0.00     0.248 C 
HETATM   19  C1  UNL     1      20.167   2.926  48.980  1.00  0.00     0.131 C 
HETATM   20  C2  UNL     1      20.830   3.743  47.893  1.00  0.00     0.196 C 
HETATM   21  O1  UNL     1      22.191   3.490  47.791  1.00  0.00    -0.361 OA
HETATM   22  C3  UNL     1      22.505   2.173  47.540  1.00  0.00     0.438 C 
HETATM   23  N2  UNL     1      21.815   1.253  48.428  1.00  0.00     0.113 N 
HETATM   24  H8  UNL     1      21.110   0.749  47.856  1.00  0.00     0.319 HD
BRANCH  19  25
HETATM   25  N1  UNL     1      19.002   2.250  48.482  1.00  0.00    -0.422 N 
HETATM   26  H1  UNL     1      18.826   2.341  47.477  1.00  0.00     0.150 HD
HETATM   27  H2  UNL     1      18.171   2.352  49.078  1.00  0.00     0.150 HD
ENDBRANCH  19  25
ENDBRANCH  17  18
ENDBRANCH  16  17
ENDBRANCH   1  16
BRANCH  12  28
HETATM   28  C14 UNL     1      25.632   3.230  51.061  1.00  0.00    -0.005 A 
HETATM   29  C15 UNL     1      26.598   3.475  50.076  1.00  0.00     0.017 A 
HETATM   30  C16 UNL     1      26.466   4.436  49.099  1.00  0.00     0.045 A 
HETATM   31  C17 UNL     1      25.351   5.211  49.052  1.00  0.00     0.138 A 
HETATM   32  F1  UNL     1      25.072   6.192  48.161  1.00  0.00    -0.204 F 
HETATM   33  C18 UNL     1      24.388   4.985  50.014  1.00  0.00     0.073 A 
HETATM   34 CL1  UNL     1      22.892   5.922  50.066  1.00  0.00    -0.081 Cl
HETATM   35  C19 UNL     1      24.508   4.027  50.997  1.00  0.00     0.041 A 
ENDBRANCH  12  28
TORSDOF 5
ENDMDL
MODEL 9
REMARK VINA RESULT:      -9.0      3.026      4.960
REMARK  5 active torsions:
REMARK  status: ('A' for Active; 'I' for Inactive)
REMARK    1  A    between atoms: N1_1  and  C1_2 
REMARK    2  A    between atoms: C4_7  and  C5_8 
REMARK    3  A    between atoms: C5_8  and  C6_9 
REMARK    4  A    between atoms: C6_9  and  N3_10 
REMARK    5  A    between atoms: C13_21  and  C14_22 
ROOT
HETATM    1  N3  UNL     1      24.369   3.506  50.029  1.00  0.00    -0.314 N 
HETATM    2  C7  UNL     1      25.177   4.438  49.281  1.00  0.00     0.248 C 
HETATM    3  O2  UNL     1      24.689   5.438  48.661  1.00  0.00    -0.271 OA
HETATM    4  C8  UNL     1      26.663   4.285  49.186  1.00  0.00     0.279 C 
HETATM    5  O3  UNL     1      27.182   3.668  50.361  1.00  0.00    -0.340 OA
HETATM    6  C9  UNL     1      26.434   2.755  51.098  1.00  0.00     0.098 A 
HETATM    7  C10 UNL     1      27.050   1.918  51.996  1.00  0.00     0.071 A 
HETATM    8  C11 UNL     1      26.317   1.010  52.732  1.00  0.00     0.073 A 
HETATM    9  N4  UNL     1      26.928   0.194  53.594  1.00  0.00    -0.241 NA
HETATM   10  C12 UNL     1      26.159  -0.682  54.279  1.00  0.00     0.234 A 
HETATM   11  N5  UNL     1      24.828  -0.745  54.112  1.00  0.00    -0.240 NA
HETATM   12  C13 UNL     1      24.163   0.069  53.240  1.00  0.00     0.081 A 
HETATM   13  C20 UNL     1      24.952   0.961  52.543  1.00  0.00     0.025 A 
HETATM   14  C21 UNL     1      24.294   1.780  51.652  1.00  0.00     0.049 A 
HETATM   15  C22 UNL     1      25.065   2.669  50.943  1.00  0.00     0.071 A 
ENDROOT
BRANCH   1  16
HETATM   16  C6  UNL     1      22.982   3.567  49.733  1.00  0.00     0.134 C 
BRANCH  16  17
HETATM   17  C5  UNL     1      22.594   2.746  48.511  1.00  0.00     0.058 C 
BRANCH  17  18
HETATM   18  C4  UNL     1      21.829   3.643  47.553  1.00  0.00     0.248 C 
HETATM   19  C1  UNL     1      20.347   3.650  47.807  1.00  0.00     0.131 C 
HETATM   20  C2  UNL     1      19.715   4.468  46.704  1.00  0.00     0.196 C 
HETATM   21  O1  UNL     1      20.655   5.059  45.871  1.00  0.00    -0.361 OA
HETATM   22  C3  UNL     1      21.510   4.169  45.260  1.00  0.00     0.438 C 
HETATM   23  N2  UNL     1      22.087   3.216  46.193  1.00  0.00     0.113 N 
HETATM   24  H8  UNL     1      21.662   2.292  45.986  1.00  0.00     0.319 HD
BRANCH  19  25
HETATM   25  N1  UNL     1      19.779   2.333  47.867  1.00  0.00    -0.422 N 
HETATM   26  H1  UNL     1      18.879   2.212  47.395  1.00  0.00     0.150 HD
HETATM   27  H2  UNL     1      19.845   1.889  48.792  1.00  0.00     0.150 HD
ENDBRANCH  19  25
ENDBRANCH  17  18
ENDBRANCH  16  17
ENDBRANCH   1  16
BRANCH  12  28
HETATM   28  C14 UNL     1      22.724  -0.125  53.171  1.00  0.00    -0.005 A 
HETATM   29  C15 UNL     1      22.224  -0.837  54.269  1.00  0.00     0.017 A 
HETATM   30  C16 UNL     1      20.891  -1.133  54.443  1.00  0.00     0.045 A 
HETATM   31  C17 UNL     1      19.977  -0.731  53.522  1.00  0.00     0.138 A 
HETATM   32  F1  UNL     1      18.639  -0.942  53.548  1.00  0.00    -0.204 F 
HETATM   33  C18 UNL     1      20.451  -0.028  52.433  1.00  0.00     0.073 A 
HETATM   34 CL1  UNL     1      19.369   0.553  51.163  1.00  0.00    -0.081 Cl
HETATM   35  C19 UNL     1      21.782   0.275  52.247  1.00  0.00     0.041 A 
ENDBRANCH  12  28
TORSDOF 5
ENDMDL
