MODEL 1
REMARK VINA RESULT:      -7.3      0.000      0.000
REMARK  7 active torsions:
REMARK  status: ('A' for Active; 'I' for Inactive)
REMARK    1  A    between atoms: C4_5  and  O1_6 
REMARK    2  A    between atoms: C6_8  and  O2_9 
REMARK    3  A    between atoms: C9_12  and  C10_13 
REMARK    4  A    between atoms: C10_13  and  N2_14 
REMARK    5  A    between atoms: C10_13  and  C11_15 
REMARK    6  A    between atoms: C11_15  and  N3_16 
REMARK    7  A    between atoms: N3_16  and  C12_17 
ROOT
HETATM    1  C10 UNL     1      24.067   2.748  52.440  1.00  0.00     0.033 C 
ENDROOT
BRANCH   1   2
HETATM    2  C9  UNL     1      23.046   1.960  52.696  1.00  0.00     0.019 A 
HETATM    3  C2  UNL     1      21.755   2.527  52.364  1.00  0.00     0.065 A 
HETATM    4  N1  UNL     1      21.264   3.518  51.913  1.00  0.00    -0.294 NA
HETATM    5  C3  UNL     1      20.619   1.619  52.663  1.00  0.00     0.071 A 
HETATM    6  C1  UNL     1      21.371   4.793  51.386  1.00  0.00     0.178 C 
HETATM    7  C4  UNL     1      20.715   0.376  53.191  1.00  0.00     0.103 A 
HETATM    8  C6  UNL     1      22.090  -0.086  53.486  1.00  0.00     0.102 A 
HETATM    9  C8  UNL     1      23.188   0.646  53.259  1.00  0.00     0.055 A 
BRANCH   7  10
HETATM   10  O1  UNL     1      19.689  -0.539  53.500  1.00  0.00    -0.353 OA
HETATM   11  C5  UNL     1      18.572  -0.576  52.638  1.00  0.00     0.210 C 
ENDBRANCH   7  10
BRANCH   8  12
HETATM   12  O2  UNL     1      22.292  -1.348  54.029  1.00  0.00    -0.353 OA
HETATM   13  C7  UNL     1      22.734  -1.629  55.319  1.00  0.00     0.210 C 
ENDBRANCH   8  12
ENDBRANCH   1   2
BRANCH   1  14
HETATM   14  N2  UNL     1      24.455   3.990  52.999  1.00  0.00    -0.400 N 
HETATM   15  H12 UNL     1      23.762   4.506  53.590  1.00  0.00     0.156 HD
HETATM   16  H13 UNL     1      25.437   4.268  52.747  1.00  0.00     0.156 HD
ENDBRANCH   1  14
BRANCH   1  17
HETATM   17  C11 UNL     1      25.140   2.517  51.452  1.00  0.00     0.177 C 
BRANCH  17  18
HETATM   18  N3  UNL     1      26.457   2.888  51.987  1.00  0.00    -0.384 N 
HETATM   19  H16 UNL     1      26.844   3.851  51.967  1.00  0.00     0.160 HD
BRANCH  18  20
HETATM   20  C12 UNL     1      27.227   1.820  52.570  1.00  0.00     0.029 A 
HETATM   21  C13 UNL     1      28.291   2.128  53.391  1.00  0.00     0.029 A 
HETATM   22  C14 UNL     1      29.061   1.144  53.976  1.00  0.00     0.004 A 
HETATM   23  C15 UNL     1      28.789  -0.187  53.755  1.00  0.00     0.019 A 
HETATM   24  C16 UNL     1      27.722  -0.458  52.932  1.00  0.00     0.013 A 
HETATM   25 BR1  UNL     1      27.310  -2.293  52.599  1.00  0.00    -0.051 Br
HETATM   26  C17 UNL     1      26.922   0.507  52.324  1.00  0.00     0.048 A 
ENDBRANCH  18  20
ENDBRANCH  17  18
ENDBRANCH   1  17
TORSDOF 7
ENDMDL
MODEL 2
REMARK VINA RESULT:      -7.2      3.720      5.673
REMARK  7 active torsions:
REMARK  status: ('A' for Active; 'I' for Inactive)
REMARK    1  A    between atoms: C4_5  and  O1_6 
REMARK    2  A    between atoms: C6_8  and  O2_9 
REMARK    3  A    between atoms: C9_12  and  C10_13 
REMARK    4  A    between atoms: C10_13  and  N2_14 
REMARK    5  A    between atoms: C10_13  and  C11_15 
REMARK    6  A    between atoms: C11_15  and  N3_16 
REMARK    7  A    between atoms: N3_16  and  C12_17 
ROOT
HETATM    1  C10 UNL     1      24.182   3.271  52.427  1.00  0.00     0.033 C 
ENDROOT
BRANCH   1   2
HETATM    2  C9  UNL     1      24.834   2.163  52.709  1.00  0.00     0.019 A 
HETATM    3  C2  UNL     1      23.984   1.029  53.006  1.00  0.00     0.065 A 
HETATM    4  N1  UNL     1      22.831   0.728  53.091  1.00  0.00    -0.294 NA
HETATM    5  C3  UNL     1      24.743  -0.208  53.322  1.00  0.00     0.071 A 
HETATM    6  C1  UNL     1      21.487   1.046  53.017  1.00  0.00     0.178 C 
HETATM    7  C4  UNL     1      26.092  -0.326  53.344  1.00  0.00     0.103 A 
HETATM    8  C6  UNL     1      26.845   0.907  53.022  1.00  0.00     0.102 A 
HETATM    9  C8  UNL     1      26.268   2.077  52.724  1.00  0.00     0.055 A 
BRANCH   7  10
HETATM   10  O1  UNL     1      26.878  -1.459  53.632  1.00  0.00    -0.353 OA
HETATM   11  C5  UNL     1      27.164  -2.338  52.566  1.00  0.00     0.210 C 
ENDBRANCH   7  10
BRANCH   8  12
HETATM   12  O2  UNL     1      28.233   0.886  53.020  1.00  0.00    -0.353 OA
HETATM   13  C7  UNL     1      29.067   1.322  54.046  1.00  0.00     0.210 C 
ENDBRANCH   8  12
ENDBRANCH   1   2
BRANCH   1  14
HETATM   14  N2  UNL     1      23.999   4.463  53.167  1.00  0.00    -0.400 N 
HETATM   15  H12 UNL     1      24.680   4.683  53.931  1.00  0.00     0.156 HD
HETATM   16  H13 UNL     1      23.164   5.020  52.853  1.00  0.00     0.156 HD
ENDBRANCH   1  14
BRANCH   1  17
HETATM   17  C11 UNL     1      23.439   3.571  51.186  1.00  0.00     0.177 C 
BRANCH  17  18
HETATM   18  N3  UNL     1      24.189   3.151  49.993  1.00  0.00    -0.384 N 
HETATM   19  H16 UNL     1      24.053   2.243  49.509  1.00  0.00     0.160 HD
BRANCH  18  20
HETATM   20  C12 UNL     1      25.163   4.087  49.497  1.00  0.00     0.029 A 
HETATM   21  C13 UNL     1      26.480   3.692  49.383  1.00  0.00     0.029 A 
HETATM   22  C14 UNL     1      27.453   4.548  48.912  1.00  0.00     0.004 A 
HETATM   23  C15 UNL     1      27.138   5.836  48.539  1.00  0.00     0.019 A 
HETATM   24  C16 UNL     1      25.817   6.196  48.666  1.00  0.00     0.013 A 
HETATM   25 BR1  UNL     1      25.337   7.973  48.159  1.00  0.00    -0.051 Br
HETATM   26  C17 UNL     1      24.807   5.360  49.136  1.00  0.00     0.048 A 
ENDBRANCH  18  20
ENDBRANCH  17  18
ENDBRANCH   1  17
TORSDOF 7
ENDMDL
MODEL 3
REMARK VINA RESULT:      -7.1      5.232      7.278
REMARK  7 active torsions:
REMARK  status: ('A' for Active; 'I' for Inactive)
REMARK    1  A    between atoms: C4_5  and  O1_6 
REMARK    2  A    between atoms: C6_8  and  O2_9 
REMARK    3  A    between atoms: C9_12  and  C10_13 
REMARK    4  A    between atoms: C10_13  and  N2_14 
REMARK    5  A    between atoms: C10_13  and  C11_15 
REMARK    6  A    between atoms: C11_15  and  N3_16 
REMARK    7  A    between atoms: N3_16  and  C12_17 
ROOT
HETATM    1  C10 UNL     1      25.753   3.949  49.576  1.00  0.00     0.033 C 
ENDROOT
BRANCH   1   2
HETATM    2  C9  UNL     1      26.375   5.074  49.299  1.00  0.00     0.019 A 
HETATM    3  C2  UNL     1      25.723   6.260  49.813  1.00  0.00     0.065 A 
HETATM    4  N1  UNL     1      24.761   6.595  50.437  1.00  0.00    -0.294 NA
HETATM    5  C3  UNL     1      26.444   7.517  49.487  1.00  0.00     0.071 A 
HETATM    6  C1  UNL     1      23.598   6.298  51.125  1.00  0.00     0.178 C 
HETATM    7  C4  UNL     1      27.598   7.609  48.784  1.00  0.00     0.103 A 
HETATM    8  C6  UNL     1      28.162   6.323  48.315  1.00  0.00     0.102 A 
HETATM    9  C8  UNL     1      27.599   5.132  48.549  1.00  0.00     0.055 A 
BRANCH   7  10
HETATM   10  O1  UNL     1      28.337   8.758  48.438  1.00  0.00    -0.353 OA
HETATM   11  C5  UNL     1      29.127   9.349  49.446  1.00  0.00     0.210 C 
ENDBRANCH   7  10
BRANCH   8  12
HETATM   12  O2  UNL     1      29.344   6.314  47.586  1.00  0.00    -0.353 OA
HETATM   13  C7  UNL     1      30.483   5.565  47.869  1.00  0.00     0.210 C 
ENDBRANCH   8  12
ENDBRANCH   1   2
BRANCH   1  14
HETATM   14  N2  UNL     1      24.427   3.525  49.318  1.00  0.00    -0.400 N 
HETATM   15  H12 UNL     1      24.138   2.573  49.645  1.00  0.00     0.156 HD
HETATM   16  H13 UNL     1      23.856   4.242  48.803  1.00  0.00     0.156 HD
ENDBRANCH   1  14
BRANCH   1  17
HETATM   17  C11 UNL     1      26.318   2.767  50.258  1.00  0.00     0.177 C 
BRANCH  17  18
HETATM   18  N3  UNL     1      26.795   3.100  51.608  1.00  0.00    -0.384 N 
HETATM   19  H16 UNL     1      26.766   4.053  52.017  1.00  0.00     0.160 HD
BRANCH  18  20
HETATM   20  C12 UNL     1      27.328   2.006  52.377  1.00  0.00     0.029 A 
HETATM   21  C13 UNL     1      28.227   2.271  53.389  1.00  0.00     0.029 A 
HETATM   22  C14 UNL     1      28.767   1.261  54.158  1.00  0.00     0.004 A 
HETATM   23  C15 UNL     1      28.423  -0.054  53.936  1.00  0.00     0.019 A 
HETATM   24  C16 UNL     1      27.524  -0.281  52.921  1.00  0.00     0.013 A 
HETATM   25 BR1  UNL     1      27.020  -2.091  52.580  1.00  0.00    -0.051 Br
HETATM   26  C17 UNL     1      26.958   0.712  52.124  1.00  0.00     0.048 A 
ENDBRANCH  18  20
ENDBRANCH  17  18
ENDBRANCH   1  17
TORSDOF 7
ENDMDL
MODEL 4
REMARK VINA RESULT:      -7.0      2.942      6.267
REMARK  7 active torsions:
REMARK  status: ('A' for Active; 'I' for Inactive)
REMARK    1  A    between atoms: C4_5  and  O1_6 
REMARK    2  A    between atoms: C6_8  and  O2_9 
REMARK    3  A    between atoms: C9_12  and  C10_13 
REMARK    4  A    between atoms: C10_13  and  N2_14 
REMARK    5  A    between atoms: C10_13  and  C11_15 
REMARK    6  A    between atoms: C11_15  and  N3_16 
REMARK    7  A    between atoms: N3_16  and  C12_17 
ROOT
HETATM    1  C10 UNL     1      24.182   2.739  52.495  1.00  0.00     0.033 C 
ENDROOT
BRANCH   1   2
HETATM    2  C9  UNL     1      25.028   1.756  52.712  1.00  0.00     0.019 A 
HETATM    3  C2  UNL     1      26.138   1.707  51.783  1.00  0.00     0.065 A 
HETATM    4  N1  UNL     1      26.580   2.280  50.833  1.00  0.00    -0.294 NA
HETATM    5  C3  UNL     1      27.079   0.589  52.048  1.00  0.00     0.071 A 
HETATM    6  C1  UNL     1      26.522   3.293  49.893  1.00  0.00     0.178 C 
HETATM    7  C4  UNL     1      26.965  -0.324  53.042  1.00  0.00     0.103 A 
HETATM    8  C6  UNL     1      25.786  -0.164  53.922  1.00  0.00     0.102 A 
HETATM    9  C8  UNL     1      24.873   0.805  53.778  1.00  0.00     0.055 A 
BRANCH   7  10
HETATM   10  O1  UNL     1      27.812  -1.406  53.354  1.00  0.00    -0.353 OA
HETATM   11  C5  UNL     1      29.168  -1.114  53.613  1.00  0.00     0.210 C 
ENDBRANCH   7  10
BRANCH   8  12
HETATM   12  O2  UNL     1      25.582  -1.051  54.970  1.00  0.00    -0.353 OA
HETATM   13  C7  UNL     1      24.364  -1.343  55.580  1.00  0.00     0.210 C 
ENDBRANCH   8  12
ENDBRANCH   1   2
BRANCH   1  14
HETATM   14  N2  UNL     1      24.281   4.130  52.737  1.00  0.00    -0.400 N 
HETATM   15  H12 UNL     1      25.228   4.574  52.703  1.00  0.00     0.156 HD
HETATM   16  H13 UNL     1      23.352   4.583  52.932  1.00  0.00     0.156 HD
ENDBRANCH   1  14
BRANCH   1  17
HETATM   17  C11 UNL     1      22.835   2.634  51.897  1.00  0.00     0.177 C 
BRANCH  17  18
HETATM   18  N3  UNL     1      22.568   1.275  51.405  1.00  0.00    -0.384 N 
HETATM   19  H16 UNL     1      23.203   0.748  50.775  1.00  0.00     0.160 HD
BRANCH  18  20
HETATM   20  C12 UNL     1      21.338   0.672  51.848  1.00  0.00     0.029 A 
HETATM   21  C13 UNL     1      21.288   0.087  53.096  1.00  0.00     0.029 A 
HETATM   22  C14 UNL     1      20.135  -0.504  53.571  1.00  0.00     0.004 A 
HETATM   23  C15 UNL     1      18.990  -0.528  52.806  1.00  0.00     0.019 A 
HETATM   24  C16 UNL     1      19.076   0.065  51.569  1.00  0.00     0.013 A 
HETATM   25 BR1  UNL     1      17.510   0.053  50.477  1.00  0.00    -0.051 Br
HETATM   26  C17 UNL     1      20.220   0.670  51.056  1.00  0.00     0.048 A 
ENDBRANCH  18  20
ENDBRANCH  17  18
ENDBRANCH   1  17
TORSDOF 7
ENDMDL
MODEL 5
REMARK VINA RESULT:      -6.8      3.440      6.463
REMARK  7 active torsions:
REMARK  status: ('A' for Active; 'I' for Inactive)
REMARK    1  A    between atoms: C4_5  and  O1_6 
REMARK    2  A    between atoms: C6_8  and  O2_9 
REMARK    3  A    between atoms: C9_12  and  C10_13 
REMARK    4  A    between atoms: C10_13  and  N2_14 
REMARK    5  A    between atoms: C10_13  and  C11_15 
REMARK    6  A    between atoms: C11_15  and  N3_16 
REMARK    7  A    between atoms: N3_16  and  C12_17 
ROOT
HETATM    1  C10 UNL     1      23.740   2.067  51.768  1.00  0.00     0.033 C 
ENDROOT
BRANCH   1   2
HETATM    2  C9  UNL     1      24.713   1.364  52.306  1.00  0.00     0.019 A 
HETATM    3  C2  UNL     1      26.017   1.609  51.728  1.00  0.00     0.065 A 
HETATM    4  N1  UNL     1      26.552   2.264  50.884  1.00  0.00    -0.294 NA
HETATM    5  C3  UNL     1      27.099   0.804  52.352  1.00  0.00     0.071 A 
HETATM    6  C1  UNL     1      26.507   3.202  49.868  1.00  0.00     0.178 C 
HETATM    7  C4  UNL     1      26.943  -0.085  53.361  1.00  0.00     0.103 A 
HETATM    8  C6  UNL     1      25.559  -0.243  53.862  1.00  0.00     0.102 A 
HETATM    9  C8  UNL     1      24.508   0.428  53.377  1.00  0.00     0.055 A 
BRANCH   7  10
HETATM   10  O1  UNL     1      27.914  -0.880  54.000  1.00  0.00    -0.353 OA
HETATM   11  C5  UNL     1      29.179  -0.299  54.232  1.00  0.00     0.210 C 
ENDBRANCH   7  10
BRANCH   8  12
HETATM   12  O2  UNL     1      25.298  -1.132  54.897  1.00  0.00    -0.353 OA
HETATM   13  C7  UNL     1      24.075  -1.321  55.534  1.00  0.00     0.210 C 
ENDBRANCH   8  12
ENDBRANCH   1   2
BRANCH   1  14
HETATM   14  N2  UNL     1      23.081   1.951  50.521  1.00  0.00    -0.400 N 
HETATM   15  H12 UNL     1      22.067   2.205  50.469  1.00  0.00     0.156 HD
HETATM   16  H13 UNL     1      23.709   1.607  49.751  1.00  0.00     0.156 HD
ENDBRANCH   1  14
BRANCH   1  17
HETATM   17  C11 UNL     1      23.039   3.218  52.372  1.00  0.00     0.177 C 
BRANCH  17  18
HETATM   18  N3  UNL     1      23.907   4.401  52.444  1.00  0.00    -0.384 N 
HETATM   19  H16 UNL     1      24.784   4.448  52.997  1.00  0.00     0.160 HD
BRANCH  18  20
HETATM   20  C12 UNL     1      23.479   5.546  51.683  1.00  0.00     0.029 A 
HETATM   21  C13 UNL     1      22.130   5.759  51.488  1.00  0.00     0.029 A 
HETATM   22  C14 UNL     1      21.666   6.840  50.768  1.00  0.00     0.004 A 
HETATM   23  C15 UNL     1      22.542   7.748  50.217  1.00  0.00     0.019 A 
HETATM   24  C16 UNL     1      23.878   7.505  50.431  1.00  0.00     0.013 A 
HETATM   25 BR1  UNL     1      25.128   8.741  49.684  1.00  0.00    -0.051 Br
HETATM   26  C17 UNL     1      24.384   6.426  51.152  1.00  0.00     0.048 A 
ENDBRANCH  18  20
ENDBRANCH  17  18
ENDBRANCH   1  17
TORSDOF 7
ENDMDL
MODEL 6
REMARK VINA RESULT:      -6.8      3.635      4.674
REMARK  7 active torsions:
REMARK  status: ('A' for Active; 'I' for Inactive)
REMARK    1  A    between atoms: C4_5  and  O1_6 
REMARK    2  A    between atoms: C6_8  and  O2_9 
REMARK    3  A    between atoms: C9_12  and  C10_13 
REMARK    4  A    between atoms: C10_13  and  N2_14 
REMARK    5  A    between atoms: C10_13  and  C11_15 
REMARK    6  A    between atoms: C11_15  and  N3_16 
REMARK    7  A    between atoms: N3_16  and  C12_17 
ROOT
HETATM    1  C10 UNL     1      23.622   4.083  52.251  1.00  0.00     0.033 C 
ENDROOT
BRANCH   1   2
HETATM    2  C9  UNL     1      23.354   2.823  52.516  1.00  0.00     0.019 A 
HETATM    3  C2  UNL     1      21.969   2.452  52.313  1.00  0.00     0.065 A 
HETATM    4  N1  UNL     1      20.923   2.916  51.969  1.00  0.00    -0.294 NA
HETATM    5  C3  UNL     1      21.691   1.025  52.620  1.00  0.00     0.071 A 
HETATM    6  C1  UNL     1      20.154   3.979  51.531  1.00  0.00     0.178 C 
HETATM    7  C4  UNL     1      22.598   0.116  53.048  1.00  0.00     0.103 A 
HETATM    8  C6  UNL     1      23.978   0.623  53.216  1.00  0.00     0.102 A 
HETATM    9  C8  UNL     1      24.344   1.887  52.970  1.00  0.00     0.055 A 
BRANCH   7  10
HETATM   10  O1  UNL     1      22.410  -1.246  53.357  1.00  0.00    -0.353 OA
HETATM   11  C5  UNL     1      21.561  -1.555  54.441  1.00  0.00     0.210 C 
ENDBRANCH   7  10
BRANCH   8  12
HETATM   12  O2  UNL     1      24.980  -0.235  53.651  1.00  0.00    -0.353 OA
HETATM   13  C7  UNL     1      26.071  -0.675  52.907  1.00  0.00     0.210 C 
ENDBRANCH   8  12
ENDBRANCH   1   2
BRANCH   1  14
HETATM   14  N2  UNL     1      23.786   5.204  53.099  1.00  0.00    -0.400 N 
HETATM   15  H12 UNL     1      24.758   5.487  53.366  1.00  0.00     0.156 HD
HETATM   16  H13 UNL     1      22.875   5.647  53.380  1.00  0.00     0.156 HD
ENDBRANCH   1  14
BRANCH   1  17
HETATM   17  C11 UNL     1      23.846   4.681  50.918  1.00  0.00     0.177 C 
BRANCH  17  18
HETATM   18  N3  UNL     1      24.962   4.031  50.216  1.00  0.00    -0.384 N 
HETATM   19  H16 UNL     1      25.078   3.003  50.132  1.00  0.00     0.160 HD
BRANCH  18  20
HETATM   20  C12 UNL     1      25.931   4.912  49.620  1.00  0.00     0.029 A 
HETATM   21  C13 UNL     1      27.064   4.376  49.044  1.00  0.00     0.029 A 
HETATM   22  C14 UNL     1      28.025   5.174  48.458  1.00  0.00     0.004 A 
HETATM   23  C15 UNL     1      27.881   6.543  48.430  1.00  0.00     0.019 A 
HETATM   24  C16 UNL     1      26.741   7.043  49.013  1.00  0.00     0.013 A 
HETATM   25 BR1  UNL     1      26.503   8.938  48.996  1.00  0.00    -0.051 Br
HETATM   26  C17 UNL     1      25.750   6.270  49.613  1.00  0.00     0.048 A 
ENDBRANCH  18  20
ENDBRANCH  17  18
ENDBRANCH   1  17
TORSDOF 7
ENDMDL
MODEL 7
REMARK VINA RESULT:      -6.7      2.750      5.152
REMARK  7 active torsions:
REMARK  status: ('A' for Active; 'I' for Inactive)
REMARK    1  A    between atoms: C4_5  and  O1_6 
REMARK    2  A    between atoms: C6_8  and  O2_9 
REMARK    3  A    between atoms: C9_12  and  C10_13 
REMARK    4  A    between atoms: C10_13  and  N2_14 
REMARK    5  A    between atoms: C10_13  and  C11_15 
REMARK    6  A    between atoms: C11_15  and  N3_16 
REMARK    7  A    between atoms: N3_16  and  C12_17 
ROOT
HETATM    1  C10 UNL     1      26.066   2.106  52.273  1.00  0.00     0.033 C 
ENDROOT
BRANCH   1   2
HETATM    2  C9  UNL     1      24.933   1.500  52.556  1.00  0.00     0.019 A 
HETATM    3  C2  UNL     1      25.078   0.113  52.947  1.00  0.00     0.065 A 
HETATM    4  N1  UNL     1      25.915  -0.723  53.112  1.00  0.00    -0.294 NA
HETATM    5  C3  UNL     1      23.786  -0.548  53.261  1.00  0.00     0.071 A 
HETATM    6  C1  UNL     1      27.237  -1.134  53.108  1.00  0.00     0.178 C 
HETATM    7  C4  UNL     1      22.565   0.033  53.206  1.00  0.00     0.103 A 
HETATM    8  C6  UNL     1      22.553   1.454  52.792  1.00  0.00     0.102 A 
HETATM    9  C8  UNL     1      23.654   2.151  52.486  1.00  0.00     0.055 A 
BRANCH   7  10
HETATM   10  O1  UNL     1      21.303  -0.527  53.487  1.00  0.00    -0.353 OA
HETATM   11  C5  UNL     1      21.250  -1.559  54.448  1.00  0.00     0.210 C 
ENDBRANCH   7  10
BRANCH   8  12
HETATM   12  O2  UNL     1      21.348   2.138  52.706  1.00  0.00    -0.353 OA
HETATM   13  C7  UNL     1      21.157   3.412  52.178  1.00  0.00     0.210 C 
ENDBRANCH   8  12
ENDBRANCH   1   2
BRANCH   1  14
HETATM   14  N2  UNL     1      27.101   2.593  53.107  1.00  0.00    -0.400 N 
HETATM   15  H12 UNL     1      26.838   3.024  54.024  1.00  0.00     0.156 HD
HETATM   16  H13 UNL     1      28.059   2.462  52.696  1.00  0.00     0.156 HD
ENDBRANCH   1  14
BRANCH   1  17
HETATM   17  C11 UNL     1      26.581   2.440  50.930  1.00  0.00     0.177 C 
BRANCH  17  18
HETATM   18  N3  UNL     1      26.433   3.873  50.636  1.00  0.00    -0.384 N 
HETATM   19  H16 UNL     1      27.171   4.582  50.807  1.00  0.00     0.160 HD
BRANCH  18  20
HETATM   20  C12 UNL     1      25.169   4.275  50.076  1.00  0.00     0.029 A 
HETATM   21  C13 UNL     1      24.675   5.530  50.365  1.00  0.00     0.029 A 
HETATM   22  C14 UNL     1      23.470   5.967  49.855  1.00  0.00     0.004 A 
HETATM   23  C15 UNL     1      22.717   5.157  49.035  1.00  0.00     0.019 A 
HETATM   24  C16 UNL     1      23.240   3.914  48.768  1.00  0.00     0.013 A 
HETATM   25 BR1  UNL     1      22.227   2.758  47.634  1.00  0.00    -0.051 Br
HETATM   26  C17 UNL     1      24.451   3.438  49.264  1.00  0.00     0.048 A 
ENDBRANCH  18  20
ENDBRANCH  17  18
ENDBRANCH   1  17
TORSDOF 7
ENDMDL
MODEL 8
REMARK VINA RESULT:      -6.7      3.509      5.637
REMARK  7 active torsions:
REMARK  status: ('A' for Active; 'I' for Inactive)
REMARK    1  A    between atoms: C4_5  and  O1_6 
REMARK    2  A    between atoms: C6_8  and  O2_9 
REMARK    3  A    between atoms: C9_12  and  C10_13 
REMARK    4  A    between atoms: C10_13  and  N2_14 
REMARK    5  A    between atoms: C10_13  and  C11_15 
REMARK    6  A    between atoms: C11_15  and  N3_16 
REMARK    7  A    between atoms: N3_16  and  C12_17 
ROOT
HETATM    1  C10 UNL     1      26.080   2.104  51.866  1.00  0.00     0.033 C 
ENDROOT
BRANCH   1   2
HETATM    2  C9  UNL     1      24.984   1.496  52.265  1.00  0.00     0.019 A 
HETATM    3  C2  UNL     1      25.204   0.188  52.847  1.00  0.00     0.065 A 
HETATM    4  N1  UNL     1      26.084  -0.577  53.107  1.00  0.00    -0.294 NA
HETATM    5  C3  UNL     1      23.952  -0.478  53.290  1.00  0.00     0.071 A 
HETATM    6  C1  UNL     1      27.423  -0.925  53.125  1.00  0.00     0.178 C 
HETATM    7  C4  UNL     1      22.704   0.035  53.186  1.00  0.00     0.103 A 
HETATM    8  C6  UNL     1      22.615   1.379  52.573  1.00  0.00     0.102 A 
HETATM    9  C8  UNL     1      23.674   2.072  52.138  1.00  0.00     0.055 A 
BRANCH   7  10
HETATM   10  O1  UNL     1      21.476  -0.534  53.581  1.00  0.00    -0.353 OA
HETATM   11  C5  UNL     1      21.525  -1.648  54.445  1.00  0.00     0.210 C 
ENDBRANCH   7  10
BRANCH   8  12
HETATM   12  O2  UNL     1      21.376   1.988  52.423  1.00  0.00    -0.353 OA
HETATM   13  C7  UNL     1      21.138   3.354  52.301  1.00  0.00     0.210 C 
ENDBRANCH   8  12
ENDBRANCH   1   2
BRANCH   1  14
HETATM   14  N2  UNL     1      27.242   2.498  52.572  1.00  0.00    -0.400 N 
HETATM   15  H12 UNL     1      27.373   2.145  53.549  1.00  0.00     0.156 HD
HETATM   16  H13 UNL     1      27.871   3.129  52.014  1.00  0.00     0.156 HD
ENDBRANCH   1  14
BRANCH   1  17
HETATM   17  C11 UNL     1      26.400   2.545  50.494  1.00  0.00     0.177 C 
BRANCH  17  18
HETATM   18  N3  UNL     1      26.757   3.970  50.454  1.00  0.00    -0.384 N 
HETATM   19  H16 UNL     1      27.561   4.383  50.964  1.00  0.00     0.160 HD
BRANCH  18  20
HETATM   20  C12 UNL     1      25.915   4.811  49.644  1.00  0.00     0.029 A 
HETATM   21  C13 UNL     1      24.579   4.497  49.512  1.00  0.00     0.029 A 
HETATM   22  C14 UNL     1      23.727   5.268  48.748  1.00  0.00     0.004 A 
HETATM   23  C15 UNL     1      24.190   6.385  48.089  1.00  0.00     0.019 A 
HETATM   24  C16 UNL     1      25.526   6.668  48.243  1.00  0.00     0.013 A 
HETATM   25 BR1  UNL     1      26.208   8.209  47.345  1.00  0.00    -0.051 Br
HETATM   26  C17 UNL     1      26.415   5.914  49.004  1.00  0.00     0.048 A 
ENDBRANCH  18  20
ENDBRANCH  17  18
ENDBRANCH   1  17
TORSDOF 7
ENDMDL
MODEL 9
REMARK VINA RESULT:      -6.6      3.065      6.633
REMARK  7 active torsions:
REMARK  status: ('A' for Active; 'I' for Inactive)
REMARK    1  A    between atoms: C4_5  and  O1_6 
REMARK    2  A    between atoms: C6_8  and  O2_9 
REMARK    3  A    between atoms: C9_12  and  C10_13 
REMARK    4  A    between atoms: C10_13  and  N2_14 
REMARK    5  A    between atoms: C10_13  and  C11_15 
REMARK    6  A    between atoms: C11_15  and  N3_16 
REMARK    7  A    between atoms: N3_16  and  C12_17 
ROOT
HETATM    1  C10 UNL     1      23.386   2.051  51.109  1.00  0.00     0.033 C 
ENDROOT
BRANCH   1   2
HETATM    2  C9  UNL     1      24.234   1.434  51.903  1.00  0.00     0.019 A 
HETATM    3  C2  UNL     1      25.625   1.738  51.643  1.00  0.00     0.065 A 
HETATM    4  N1  UNL     1      26.314   2.392  50.918  1.00  0.00    -0.294 NA
HETATM    5  C3  UNL     1      26.563   1.029  52.551  1.00  0.00     0.071 A 
HETATM    6  C1  UNL     1      26.469   3.285  49.873  1.00  0.00     0.178 C 
HETATM    7  C4  UNL     1      26.213   0.172  53.539  1.00  0.00     0.103 A 
HETATM    8  C6  UNL     1      24.759  -0.054  53.701  1.00  0.00     0.102 A 
HETATM    9  C8  UNL     1      23.824   0.530  52.941  1.00  0.00     0.055 A 
BRANCH   7  10
HETATM   10  O1  UNL     1      27.040  -0.534  54.435  1.00  0.00    -0.353 OA
HETATM   11  C5  UNL     1      28.332  -0.018  54.669  1.00  0.00     0.210 C 
ENDBRANCH   7  10
BRANCH   8  12
HETATM   12  O2  UNL     1      24.301  -0.916  54.688  1.00  0.00    -0.353 OA
HETATM   13  C7  UNL     1      22.971  -1.149  55.029  1.00  0.00     0.210 C 
ENDBRANCH   8  12
ENDBRANCH   1   2
BRANCH   1  14
HETATM   14  N2  UNL     1      23.174   3.428  50.856  1.00  0.00    -0.400 N 
HETATM   15  H12 UNL     1      23.629   4.125  51.490  1.00  0.00     0.156 HD
HETATM   16  H13 UNL     1      22.555   3.604  50.024  1.00  0.00     0.156 HD
ENDBRANCH   1  14
BRANCH   1  17
HETATM   17  C11 UNL     1      22.387   1.425  50.219  1.00  0.00     0.177 C 
BRANCH  17  18
HETATM   18  N3  UNL     1      21.061   2.040  50.378  1.00  0.00    -0.384 N 
HETATM   19  H16 UNL     1      20.851   3.033  50.166  1.00  0.00     0.160 HD
BRANCH  18  20
HETATM   20  C12 UNL     1      20.017   1.174  50.861  1.00  0.00     0.029 A 
HETATM   21  C13 UNL     1      20.157   0.573  52.094  1.00  0.00     0.029 A 
HETATM   22  C14 UNL     1      19.188  -0.265  52.605  1.00  0.00     0.004 A 
HETATM   23  C15 UNL     1      18.040  -0.529  51.891  1.00  0.00     0.019 A 
HETATM   24  C16 UNL     1      17.933   0.086  50.667  1.00  0.00     0.013 A 
HETATM   25 BR1  UNL     1      16.356  -0.254  49.645  1.00  0.00    -0.051 Br
HETATM   26  C17 UNL     1      18.890   0.937  50.119  1.00  0.00     0.048 A 
ENDBRANCH  18  20
ENDBRANCH  17  18
ENDBRANCH   1  17
TORSDOF 7
ENDMDL
