MODEL 1
REMARK VINA RESULT:      -8.4      0.000      0.000
REMARK  1 active torsions:
REMARK  status: ('A' for Active; 'I' for Inactive)
REMARK    1  A    between atoms: C1_2  and  C2_3 
ROOT
HETATM    1  C2  UNL     1      28.273   0.128  53.480  1.00  0.00     0.076 C 
HETATM    2  C3  UNL     1      28.115   1.471  52.904  1.00  0.00     0.012 C 
HETATM    3  C4  UNL     1      26.904   1.755  52.380  1.00  0.00     0.023 C 
HETATM    4  C5  UNL     1      26.125   2.828  51.700  1.00  0.00    -0.004 C 
HETATM    5  C6  UNL     1      24.890   2.472  51.404  1.00  0.00     0.086 C 
HETATM    6  N1  UNL     1      24.032   1.383  51.514  1.00  0.00    -0.350 N 
HETATM    7  C7  UNL     1      23.671   0.561  52.596  1.00  0.00     0.144 A 
HETATM    8  N2  UNL     1      24.765   0.292  53.267  1.00  0.00    -0.188 NA
HETATM    9  C8  UNL     1      24.723  -0.501  54.341  1.00  0.00     0.271 A 
HETATM   10  N3  UNL     1      23.590  -1.041  54.763  1.00  0.00    -0.206 NA
HETATM   11  C9  UNL     1      22.428  -0.780  54.087  1.00  0.00     0.075 A 
HETATM   12  C10 UNL     1      21.232  -1.286  54.453  1.00  0.00     0.032 A 
HETATM   13  C11 UNL     1      20.095  -0.963  53.702  1.00  0.00     0.002 A 
HETATM   14  C12 UNL     1      20.197  -0.124  52.585  1.00  0.00     0.001 A 
HETATM   15  C13 UNL     1      21.417   0.425  52.166  1.00  0.00     0.018 A 
HETATM   16  C14 UNL     1      22.463   0.041  52.973  1.00  0.00     0.039 A 
HETATM   17  O2  UNL     1      25.982  -0.102  54.143  1.00  0.00    -0.318 OA
HETATM   18  C15 UNL     1      27.026  -0.732  53.417  1.00  0.00     0.191 C 
HETATM   19  H7  UNL     1      23.461   0.933  50.738  1.00  0.00     0.166 HD
ENDROOT
BRANCH   1  20
HETATM   20  C1  UNL     1      28.645   0.223  54.919  1.00  0.00     0.238 C 
HETATM   21  O1  UNL     1      29.027   1.368  54.983  1.00  0.00    -0.306 OA
ENDBRANCH   1  20
TORSDOF 1
ENDMDL
MODEL 2
REMARK VINA RESULT:      -8.1      2.180      6.259
REMARK  1 active torsions:
REMARK  status: ('A' for Active; 'I' for Inactive)
REMARK    1  A    between atoms: C1_2  and  C2_3 
ROOT
HETATM    1  C2  UNL     1      21.163   1.225  51.828  1.00  0.00     0.076 C 
HETATM    2  C3  UNL     1      20.797   0.508  53.058  1.00  0.00     0.012 C 
HETATM    3  C4  UNL     1      21.813  -0.056  53.744  1.00  0.00     0.023 C 
HETATM    4  C5  UNL     1      22.126  -0.855  54.962  1.00  0.00    -0.004 C 
HETATM    5  C6  UNL     1      23.410  -1.124  55.096  1.00  0.00     0.086 C 
HETATM    6  N1  UNL     1      24.624  -0.909  54.454  1.00  0.00    -0.350 N 
HETATM    7  C7  UNL     1      25.245   0.251  53.957  1.00  0.00     0.144 A 
HETATM    8  N2  UNL     1      24.326   0.958  53.346  1.00  0.00    -0.188 NA
HETATM    9  C8  UNL     1      24.644   2.109  52.748  1.00  0.00     0.271 A 
HETATM   10  N3  UNL     1      25.883   2.574  52.747  1.00  0.00    -0.206 NA
HETATM   11  C9  UNL     1      26.868   1.861  53.376  1.00  0.00     0.075 A 
HETATM   12  C10 UNL     1      28.155   2.266  53.425  1.00  0.00     0.032 A 
HETATM   13  C11 UNL     1      29.095   1.473  54.095  1.00  0.00     0.002 A 
HETATM   14  C12 UNL     1      28.706   0.275  54.706  1.00  0.00     0.001 A 
HETATM   15  C13 UNL     1      27.383  -0.186  54.681  1.00  0.00     0.018 A 
HETATM   16  C14 UNL     1      26.548   0.668  53.999  1.00  0.00     0.039 A 
HETATM   17  O2  UNL     1      23.336   1.884  52.593  1.00  0.00    -0.318 OA
HETATM   18  C15 UNL     1      22.650   1.239  51.531  1.00  0.00     0.191 C 
HETATM   19  H7  UNL     1      25.352  -1.639  54.191  1.00  0.00     0.166 HD
ENDROOT
BRANCH   1  20
HETATM   20  C1  UNL     1      20.737   2.649  51.913  1.00  0.00     0.238 C 
HETATM   21  O1  UNL     1      19.768   2.558  52.631  1.00  0.00    -0.306 OA
ENDBRANCH   1  20
TORSDOF 1
ENDMDL
MODEL 3
REMARK VINA RESULT:      -7.9      2.354      5.248
REMARK  1 active torsions:
REMARK  status: ('A' for Active; 'I' for Inactive)
REMARK    1  A    between atoms: C1_2  and  C2_3 
ROOT
HETATM    1  C2  UNL     1      26.716  -0.139  53.847  1.00  0.00     0.076 C 
HETATM    2  C3  UNL     1      25.334  -0.624  53.716  1.00  0.00     0.012 C 
HETATM    3  C4  UNL     1      24.445   0.246  53.193  1.00  0.00     0.023 C 
HETATM    4  C5  UNL     1      23.012   0.397  52.813  1.00  0.00    -0.004 C 
HETATM    5  C6  UNL     1      22.723   1.585  52.319  1.00  0.00     0.086 C 
HETATM    6  N1  UNL     1      23.330   2.801  52.025  1.00  0.00    -0.350 N 
HETATM    7  C7  UNL     1      24.490   3.136  51.304  1.00  0.00     0.144 A 
HETATM    8  N2  UNL     1      25.425   2.281  51.644  1.00  0.00    -0.188 NA
HETATM    9  C8  UNL     1      26.653   2.380  51.128  1.00  0.00     0.271 A 
HETATM   10  N3  UNL     1      26.971   3.333  50.267  1.00  0.00    -0.206 NA
HETATM   11  C9  UNL     1      26.019   4.242  49.888  1.00  0.00     0.075 A 
HETATM   12  C10 UNL     1      26.259   5.240  49.013  1.00  0.00     0.032 A 
HETATM   13  C11 UNL     1      25.223   6.122  48.682  1.00  0.00     0.002 A 
HETATM   14  C12 UNL     1      23.953   5.971  49.252  1.00  0.00     0.001 A 
HETATM   15  C13 UNL     1      23.656   4.951  50.166  1.00  0.00     0.018 A 
HETATM   16  C14 UNL     1      24.744   4.147  50.417  1.00  0.00     0.039 A 
HETATM   17  O2  UNL     1      26.613   1.338  51.963  1.00  0.00    -0.318 OA
HETATM   18  C15 UNL     1      26.934   1.274  53.344  1.00  0.00     0.191 C 
HETATM   19  H7  UNL     1      23.010   3.770  52.325  1.00  0.00     0.166 HD
ENDROOT
BRANCH   1  20
HETATM   20  C1  UNL     1      27.645  -1.009  53.073  1.00  0.00     0.238 C 
HETATM   21  O1  UNL     1      27.094  -2.081  53.173  1.00  0.00    -0.306 OA
ENDBRANCH   1  20
TORSDOF 1
ENDMDL
MODEL 4
REMARK VINA RESULT:      -7.8      2.124      3.612
REMARK  1 active torsions:
REMARK  status: ('A' for Active; 'I' for Inactive)
REMARK    1  A    between atoms: C1_2  and  C2_3 
ROOT
HETATM    1  C2  UNL     1      26.017   3.146  51.071  1.00  0.00     0.076 C 
HETATM    2  C3  UNL     1      26.837   1.955  51.338  1.00  0.00     0.012 C 
HETATM    3  C4  UNL     1      26.254   0.984  52.072  1.00  0.00     0.023 C 
HETATM    4  C5  UNL     1      26.489  -0.365  52.659  1.00  0.00    -0.004 C 
HETATM    5  C6  UNL     1      25.456  -0.830  53.334  1.00  0.00     0.086 C 
HETATM    6  N1  UNL     1      24.165  -0.468  53.705  1.00  0.00    -0.350 N 
HETATM    7  C7  UNL     1      23.065   0.014  52.973  1.00  0.00     0.144 A 
HETATM    8  N2  UNL     1      23.517   0.908  52.128  1.00  0.00    -0.188 NA
HETATM    9  C8  UNL     1      22.677   1.557  51.316  1.00  0.00     0.271 A 
HETATM   10  N3  UNL     1      21.374   1.327  51.335  1.00  0.00    -0.206 NA
HETATM   11  C9  UNL     1      20.868   0.399  52.205  1.00  0.00     0.075 A 
HETATM   12  C10 UNL     1      19.554   0.102  52.285  1.00  0.00     0.032 A 
HETATM   13  C11 UNL     1      19.127  -0.865  53.204  1.00  0.00     0.002 A 
HETATM   14  C12 UNL     1      20.052  -1.517  54.030  1.00  0.00     0.001 A 
HETATM   15  C13 UNL     1      21.425  -1.241  53.984  1.00  0.00     0.018 A 
HETATM   16  C14 UNL     1      21.730  -0.279  53.049  1.00  0.00     0.039 A 
HETATM   17  O2  UNL     1      23.922   1.984  51.087  1.00  0.00    -0.318 OA
HETATM   18  C15 UNL     1      24.617   3.086  51.650  1.00  0.00     0.191 C 
HETATM   19  H7  UNL     1      23.750  -0.478  54.684  1.00  0.00     0.166 HD
ENDROOT
BRANCH   1  20
HETATM   20  C1  UNL     1      25.858   3.346  49.604  1.00  0.00     0.238 C 
HETATM   21  O1  UNL     1      27.010   3.484  49.263  1.00  0.00    -0.306 OA
ENDBRANCH   1  20
TORSDOF 1
ENDMDL
MODEL 5
REMARK VINA RESULT:      -7.8      2.049      5.747
REMARK  1 active torsions:
REMARK  status: ('A' for Active; 'I' for Inactive)
REMARK    1  A    between atoms: C1_2  and  C2_3 
ROOT
HETATM    1  C2  UNL     1      21.249  -0.315  54.426  1.00  0.00     0.076 C 
HETATM    2  C3  UNL     1      21.021   0.715  53.403  1.00  0.00     0.012 C 
HETATM    3  C4  UNL     1      22.066   1.524  53.129  1.00  0.00     0.023 C 
HETATM    4  C5  UNL     1      22.490   2.672  52.278  1.00  0.00    -0.004 C 
HETATM    5  C6  UNL     1      23.736   3.050  52.492  1.00  0.00     0.086 C 
HETATM    6  N1  UNL     1      24.834   2.728  53.281  1.00  0.00    -0.350 N 
HETATM    7  C7  UNL     1      25.494   1.515  53.545  1.00  0.00     0.144 A 
HETATM    8  N2  UNL     1      24.574   0.599  53.728  1.00  0.00    -0.188 NA
HETATM    9  C8  UNL     1      24.918  -0.656  54.026  1.00  0.00     0.271 A 
HETATM   10  N3  UNL     1      26.185  -1.020  54.149  1.00  0.00    -0.206 NA
HETATM   11  C9  UNL     1      27.172  -0.089  53.964  1.00  0.00     0.075 A 
HETATM   12  C10 UNL     1      28.486  -0.377  54.066  1.00  0.00     0.032 A 
HETATM   13  C11 UNL     1      29.427   0.639  53.857  1.00  0.00     0.002 A 
HETATM   14  C12 UNL     1      29.010   1.939  53.545  1.00  0.00     0.001 A 
HETATM   15  C13 UNL     1      27.657   2.286  53.428  1.00  0.00     0.018 A 
HETATM   16  C14 UNL     1      26.824   1.214  53.654  1.00  0.00     0.039 A 
HETATM   17  O2  UNL     1      23.586  -0.572  53.967  1.00  0.00    -0.318 OA
HETATM   18  C15 UNL     1      22.650  -0.324  55.005  1.00  0.00     0.191 C 
HETATM   19  H7  UNL     1      25.410   3.390  53.884  1.00  0.00     0.166 HD
ENDROOT
BRANCH   1  20
HETATM   20  C1  UNL     1      21.021  -1.671  53.855  1.00  0.00     0.238 C 
HETATM   21  O1  UNL     1      19.815  -1.744  53.907  1.00  0.00    -0.306 OA
ENDBRANCH   1  20
TORSDOF 1
ENDMDL
MODEL 6
REMARK VINA RESULT:      -7.8      2.463      5.969
REMARK  1 active torsions:
REMARK  status: ('A' for Active; 'I' for Inactive)
REMARK    1  A    between atoms: C1_2  and  C2_3 
ROOT
HETATM    1  C2  UNL     1      21.746  -0.626  53.509  1.00  0.00     0.076 C 
HETATM    2  C3  UNL     1      22.958  -0.881  54.302  1.00  0.00     0.012 C 
HETATM    3  C4  UNL     1      24.115  -0.417  53.787  1.00  0.00     0.023 C 
HETATM    4  C5  UNL     1      25.581  -0.332  54.043  1.00  0.00    -0.004 C 
HETATM    5  C6  UNL     1      26.244   0.290  53.087  1.00  0.00     0.086 C 
HETATM    6  N1  UNL     1      26.030   0.917  51.865  1.00  0.00    -0.350 N 
HETATM    7  C7  UNL     1      25.131   1.917  51.454  1.00  0.00     0.144 A 
HETATM    8  N2  UNL     1      23.965   1.640  51.984  1.00  0.00    -0.188 NA
HETATM    9  C8  UNL     1      22.907   2.416  51.736  1.00  0.00     0.271 A 
HETATM   10  N3  UNL     1      22.992   3.480  50.953  1.00  0.00    -0.206 NA
HETATM   11  C9  UNL     1      24.196   3.800  50.383  1.00  0.00     0.075 A 
HETATM   12  C10 UNL     1      24.370   4.868  49.577  1.00  0.00     0.032 A 
HETATM   13  C11 UNL     1      25.638   5.119  49.040  1.00  0.00     0.002 A 
HETATM   14  C12 UNL     1      26.714   4.273  49.336  1.00  0.00     0.001 A 
HETATM   15  C13 UNL     1      26.582   3.151  50.166  1.00  0.00     0.018 A 
HETATM   16  C14 UNL     1      25.298   3.002  50.635  1.00  0.00     0.039 A 
HETATM   17  O2  UNL     1      22.537   1.422  52.548  1.00  0.00    -0.318 OA
HETATM   18  C15 UNL     1      21.987   0.153  52.230  1.00  0.00     0.191 C 
HETATM   19  H7  UNL     1      26.535   0.730  50.948  1.00  0.00     0.166 HD
ENDROOT
BRANCH   1  20
HETATM   20  C1  UNL     1      20.765   0.164  54.303  1.00  0.00     0.238 C 
HETATM   21  O1  UNL     1      19.749  -0.037  53.680  1.00  0.00    -0.306 OA
ENDBRANCH   1  20
TORSDOF 1
ENDMDL
MODEL 7
REMARK VINA RESULT:      -7.7      2.555      5.768
REMARK  1 active torsions:
REMARK  status: ('A' for Active; 'I' for Inactive)
REMARK    1  A    between atoms: C1_2  and  C2_3 
ROOT
HETATM    1  C2  UNL     1      21.853   2.002  50.689  1.00  0.00     0.076 C 
HETATM    2  C3  UNL     1      22.609   2.595  49.577  1.00  0.00     0.012 C 
HETATM    3  C4  UNL     1      23.885   2.945  49.844  1.00  0.00     0.023 C 
HETATM    4  C5  UNL     1      25.107   3.541  49.234  1.00  0.00    -0.004 C 
HETATM    5  C6  UNL     1      26.118   3.639  50.075  1.00  0.00     0.086 C 
HETATM    6  N1  UNL     1      26.442   3.366  51.400  1.00  0.00    -0.350 N 
HETATM    7  C7  UNL     1      26.307   2.214  52.194  1.00  0.00     0.144 A 
HETATM    8  N2  UNL     1      25.125   1.702  51.946  1.00  0.00    -0.188 NA
HETATM    9  C8  UNL     1      24.714   0.607  52.589  1.00  0.00     0.271 A 
HETATM   10  N3  UNL     1      25.471   0.004  53.492  1.00  0.00    -0.206 NA
HETATM   11  C9  UNL     1      26.711   0.510  53.776  1.00  0.00     0.075 A 
HETATM   12  C10 UNL     1      27.547  -0.045  54.678  1.00  0.00     0.032 A 
HETATM   13  C11 UNL     1      28.799   0.541  54.900  1.00  0.00     0.002 A 
HETATM   14  C12 UNL     1      29.180   1.689  54.196  1.00  0.00     0.001 A 
HETATM   15  C13 UNL     1      28.347   2.302  53.250  1.00  0.00     0.018 A 
HETATM   16  C14 UNL     1      27.146   1.645  53.113  1.00  0.00     0.039 A 
HETATM   17  O2  UNL     1      23.757   1.001  51.745  1.00  0.00    -0.318 OA
HETATM   18  C15 UNL     1      22.643   1.851  51.974  1.00  0.00     0.191 C 
HETATM   19  H7  UNL     1      26.872   4.033  52.108  1.00  0.00     0.166 HD
ENDROOT
BRANCH   1  20
HETATM   20  C1  UNL     1      21.380   0.638  50.323  1.00  0.00     0.238 C 
HETATM   21  O1  UNL     1      20.506   0.470  51.141  1.00  0.00    -0.306 OA
ENDBRANCH   1  20
TORSDOF 1
ENDMDL
MODEL 8
REMARK VINA RESULT:      -7.6      3.633      5.867
REMARK  1 active torsions:
REMARK  status: ('A' for Active; 'I' for Inactive)
REMARK    1  A    between atoms: C1_2  and  C2_3 
ROOT
HETATM    1  C2  UNL     1      23.189   6.628  50.995  1.00  0.00     0.076 C 
HETATM    2  C3  UNL     1      24.065   6.600  49.815  1.00  0.00     0.012 C 
HETATM    3  C4  UNL     1      25.028   5.654  49.811  1.00  0.00     0.023 C 
HETATM    4  C5  UNL     1      26.156   5.109  49.005  1.00  0.00    -0.004 C 
HETATM    5  C6  UNL     1      26.778   4.102  49.586  1.00  0.00     0.086 C 
HETATM    6  N1  UNL     1      26.737   3.345  50.752  1.00  0.00    -0.350 N 
HETATM    7  C7  UNL     1      25.696   2.668  51.411  1.00  0.00     0.144 A 
HETATM    8  N2  UNL     1      24.644   3.450  51.391  1.00  0.00    -0.188 NA
HETATM    9  C8  UNL     1      23.506   3.068  51.976  1.00  0.00     0.271 A 
HETATM   10  N3  UNL     1      23.398   1.901  52.592  1.00  0.00    -0.206 NA
HETATM   11  C9  UNL     1      24.477   1.059  52.632  1.00  0.00     0.075 A 
HETATM   12  C10 UNL     1      24.449  -0.148  53.235  1.00  0.00     0.032 A 
HETATM   13  C11 UNL     1      25.601  -0.944  53.222  1.00  0.00     0.002 A 
HETATM   14  C12 UNL     1      26.768  -0.494  52.591  1.00  0.00     0.001 A 
HETATM   15  C13 UNL     1      26.845   0.751  51.953  1.00  0.00     0.018 A 
HETATM   16  C14 UNL     1      25.660   1.446  52.027  1.00  0.00     0.039 A 
HETATM   17  O2  UNL     1      23.334   4.278  51.438  1.00  0.00    -0.318 OA
HETATM   18  C15 UNL     1      23.492   5.559  52.027  1.00  0.00     0.191 C 
HETATM   19  H7  UNL     1      27.544   3.137  51.413  1.00  0.00     0.166 HD
ENDROOT
BRANCH   1  20
HETATM   20  C1  UNL     1      21.769   6.431  50.590  1.00  0.00     0.238 C 
HETATM   21  O1  UNL     1      21.308   7.523  50.829  1.00  0.00    -0.306 OA
ENDBRANCH   1  20
TORSDOF 1
ENDMDL
MODEL 9
REMARK VINA RESULT:      -7.5      1.613      2.192
REMARK  1 active torsions:
REMARK  status: ('A' for Active; 'I' for Inactive)
REMARK    1  A    between atoms: C1_2  and  C2_3 
ROOT
HETATM    1  C2  UNL     1      26.812   1.511  52.096  1.00  0.00     0.076 C 
HETATM    2  C3  UNL     1      26.493   2.628  51.194  1.00  0.00     0.012 C 
HETATM    3  C4  UNL     1      25.266   2.609  50.634  1.00  0.00     0.023 C 
HETATM    4  C5  UNL     1      24.368   3.360  49.712  1.00  0.00    -0.004 C 
HETATM    5  C6  UNL     1      23.194   2.784  49.539  1.00  0.00     0.086 C 
HETATM    6  N1  UNL     1      22.481   1.661  49.940  1.00  0.00    -0.350 N 
HETATM    7  C7  UNL     1      22.209   1.108  51.204  1.00  0.00     0.144 A 
HETATM    8  N2  UNL     1      23.316   1.164  51.904  1.00  0.00    -0.188 NA
HETATM    9  C8  UNL     1      23.356   0.677  53.147  1.00  0.00     0.271 A 
HETATM   10  N3  UNL     1      22.295   0.125  53.713  1.00  0.00    -0.206 NA
HETATM   11  C9  UNL     1      21.122   0.050  53.011  1.00  0.00     0.075 A 
HETATM   12  C10 UNL     1      19.994  -0.493  53.515  1.00  0.00     0.032 A 
HETATM   13  C11 UNL     1      18.838  -0.523  52.725  1.00  0.00     0.002 A 
HETATM   14  C12 UNL     1      18.852   0.004  51.427  1.00  0.00     0.001 A 
HETATM   15  C13 UNL     1      19.999   0.577  50.861  1.00  0.00     0.018 A 
HETATM   16  C14 UNL     1      21.071   0.553  51.723  1.00  0.00     0.039 A 
HETATM   17  O2  UNL     1      24.558   1.169  52.833  1.00  0.00    -0.318 OA
HETATM   18  C15 UNL     1      25.686   0.512  52.278  1.00  0.00     0.191 C 
HETATM   19  H7  UNL     1      21.985   0.955  49.316  1.00  0.00     0.166 HD
ENDROOT
BRANCH   1  20
HETATM   20  C1  UNL     1      27.144   2.022  53.455  1.00  0.00     0.238 C 
HETATM   21  O1  UNL     1      28.251   1.561  53.611  1.00  0.00    -0.306 OA
ENDBRANCH   1  20
TORSDOF 1
ENDMDL
