MODEL 1
REMARK VINA RESULT:      -6.4      0.000      0.000
REMARK  7 active torsions:
REMARK  status: ('A' for Active; 'I' for Inactive)
REMARK    1  A    between atoms: O1_2  and  C2_3 
REMARK    2  A    between atoms: C2_3  and  C3_4 
REMARK    3  A    between atoms: C3_4  and  C4_5 
REMARK    4  A    between atoms: C6_9  and  N3_10 
REMARK    5  A    between atoms: N3_10  and  C7_11 
REMARK    6  A    between atoms: C13_18  and  N4_19 
REMARK    7  A    between atoms: C15_21  and  O2_22 
ROOT
HETATM    1  C4  UNL     1      24.854   1.715  52.588  1.00  0.00     0.109 A 
HETATM    2  N1  UNL     1      25.897   1.680  53.513  1.00  0.00    -0.343 N 
HETATM    3  C5  UNL     1      27.149   2.182  52.973  1.00  0.00     0.210 A 
HETATM    4  N2  UNL     1      27.231   2.610  51.736  1.00  0.00    -0.224 NA
HETATM    5  C6  UNL     1      26.093   2.608  50.849  1.00  0.00     0.159 A 
HETATM    6  C13 UNL     1      24.873   2.165  51.234  1.00  0.00     0.109 A 
HETATM    7  H4  UNL     1      25.832   1.340  54.497  1.00  0.00     0.167 HD
ENDROOT
BRANCH   5   8
HETATM    8  N3  UNL     1      26.262   3.094  49.501  1.00  0.00    -0.339 N 
HETATM    9  H6  UNL     1      26.248   2.414  48.708  1.00  0.00     0.167 HD
BRANCH   8  10
HETATM   10  C7  UNL     1      26.440   4.496  49.337  1.00  0.00     0.035 A 
HETATM   11  C8  UNL     1      27.631   4.767  48.654  1.00  0.00     0.029 A 
HETATM   12  C9  UNL     1      28.025   6.062  48.373  1.00  0.00     0.004 A 
HETATM   13  C10 UNL     1      27.217   7.119  48.779  1.00  0.00     0.019 A 
HETATM   14  C11 UNL     1      26.049   6.837  49.449  1.00  0.00     0.013 A 
HETATM   15 BR1  UNL     1      24.893   8.234  50.035  1.00  0.00    -0.051 Br
HETATM   16  C12 UNL     1      25.643   5.551  49.737  1.00  0.00     0.048 A 
ENDBRANCH   8  10
ENDBRANCH   5   8
BRANCH   6  17
HETATM   17  N4  UNL     1      23.778   2.177  50.337  1.00  0.00    -0.389 N 
HETATM   18  C14 UNL     1      22.816   3.275  50.339  1.00  0.00     0.146 C 
HETATM   19  H11 UNL     1      23.680   1.373  49.674  1.00  0.00     0.159 HD
ENDBRANCH   6  17
BRANCH   1  20
HETATM   20  C3  UNL     1      23.710   1.274  53.030  1.00  0.00    -0.080 C 
BRANCH  20  21
HETATM   21  C2  UNL     1      22.625   0.565  53.306  1.00  0.00     0.183 C 
HETATM   22  C15 UNL     1      21.311   1.070  52.981  1.00  0.00     0.222 C 
BRANCH  21  23
HETATM   23  O1  UNL     1      23.077  -0.569  53.885  1.00  0.00    -0.366 OA
HETATM   24  C1  UNL     1      22.376  -1.087  55.003  1.00  0.00     0.204 C 
ENDBRANCH  21  23
BRANCH  22  25
HETATM   25  O2  UNL     1      20.567   0.285  52.098  1.00  0.00    -0.392 OA
HETATM   26  C16 UNL     1      19.310  -0.031  52.609  1.00  0.00     0.201 C 
ENDBRANCH  22  25
ENDBRANCH  20  21
ENDBRANCH   1  20
TORSDOF 7
ENDMDL
MODEL 2
REMARK VINA RESULT:      -6.4      2.316      3.823
REMARK  7 active torsions:
REMARK  status: ('A' for Active; 'I' for Inactive)
REMARK    1  A    between atoms: O1_2  and  C2_3 
REMARK    2  A    between atoms: C2_3  and  C3_4 
REMARK    3  A    between atoms: C3_4  and  C4_5 
REMARK    4  A    between atoms: C6_9  and  N3_10 
REMARK    5  A    between atoms: N3_10  and  C7_11 
REMARK    6  A    between atoms: C13_18  and  N4_19 
REMARK    7  A    between atoms: C15_21  and  O2_22 
ROOT
HETATM    1  C4  UNL     1      22.939   2.071  52.594  1.00  0.00     0.109 A 
HETATM    2  N1  UNL     1      21.548   2.066  52.486  1.00  0.00    -0.343 N 
HETATM    3  C5  UNL     1      20.992   3.394  52.285  1.00  0.00     0.210 A 
HETATM    4  N2  UNL     1      21.766   4.451  52.220  1.00  0.00    -0.224 NA
HETATM    5  C6  UNL     1      23.200   4.357  52.342  1.00  0.00     0.159 A 
HETATM    6  C13 UNL     1      23.837   3.178  52.532  1.00  0.00     0.109 A 
HETATM    7  H4  UNL     1      20.932   1.227  52.538  1.00  0.00     0.167 HD
ENDROOT
BRANCH   5   8
HETATM    8  N3  UNL     1      23.985   5.565  52.260  1.00  0.00    -0.339 N 
HETATM    9  H6  UNL     1      24.534   5.874  53.093  1.00  0.00     0.167 HD
BRANCH   8  10
HETATM   10  C7  UNL     1      23.958   6.271  51.025  1.00  0.00     0.035 A 
HETATM   11  C8  UNL     1      24.951   5.794  50.161  1.00  0.00     0.029 A 
HETATM   12  C9  UNL     1      25.124   6.324  48.897  1.00  0.00     0.004 A 
HETATM   13  C10 UNL     1      24.290   7.354  48.473  1.00  0.00     0.019 A 
HETATM   14  C11 UNL     1      23.319   7.812  49.333  1.00  0.00     0.013 A 
HETATM   15 BR1  UNL     1      22.141   9.219  48.821  1.00  0.00    -0.051 Br
HETATM   16  C12 UNL     1      23.134   7.294  50.598  1.00  0.00     0.048 A 
ENDBRANCH   8  10
ENDBRANCH   5   8
BRANCH   6  17
HETATM   17  N4  UNL     1      25.247   3.123  52.648  1.00  0.00    -0.389 N 
HETATM   18  C14 UNL     1      26.074   2.637  51.548  1.00  0.00     0.146 C 
HETATM   19  H11 UNL     1      25.676   3.441  53.548  1.00  0.00     0.159 HD
ENDBRANCH   6  17
BRANCH   1  20
HETATM   20  C3  UNL     1      23.482   0.901  52.775  1.00  0.00    -0.080 C 
BRANCH  20  21
HETATM   21  C2  UNL     1      23.849  -0.291  53.223  1.00  0.00     0.183 C 
HETATM   22  C15 UNL     1      25.245  -0.662  53.274  1.00  0.00     0.222 C 
BRANCH  21  23
HETATM   23  O1  UNL     1      22.700  -0.920  53.550  1.00  0.00    -0.366 OA
HETATM   24  C1  UNL     1      22.262  -0.878  54.899  1.00  0.00     0.204 C 
ENDBRANCH  21  23
BRANCH  22  25
HETATM   25  O2  UNL     1      25.739  -0.971  54.543  1.00  0.00    -0.392 OA
HETATM   26  C16 UNL     1      26.451   0.088  55.101  1.00  0.00     0.201 C 
ENDBRANCH  22  25
ENDBRANCH  20  21
ENDBRANCH   1  20
TORSDOF 7
ENDMDL
MODEL 3
REMARK VINA RESULT:      -6.4      4.198      5.403
REMARK  7 active torsions:
REMARK  status: ('A' for Active; 'I' for Inactive)
REMARK    1  A    between atoms: O1_2  and  C2_3 
REMARK    2  A    between atoms: C2_3  and  C3_4 
REMARK    3  A    between atoms: C3_4  and  C4_5 
REMARK    4  A    between atoms: C6_9  and  N3_10 
REMARK    5  A    between atoms: N3_10  and  C7_11 
REMARK    6  A    between atoms: C13_18  and  N4_19 
REMARK    7  A    between atoms: C15_21  and  O2_22 
ROOT
HETATM    1  C4  UNL     1      21.638  -0.229  53.515  1.00  0.00     0.109 A 
HETATM    2  N1  UNL     1      21.911  -0.980  54.659  1.00  0.00    -0.343 N 
HETATM    3  C5  UNL     1      23.333  -1.085  54.939  1.00  0.00     0.210 A 
HETATM    4  N2  UNL     1      24.222  -0.514  54.163  1.00  0.00    -0.224 NA
HETATM    5  C6  UNL     1      23.843   0.246  52.996  1.00  0.00     0.159 A 
HETATM    6  C13 UNL     1      22.551   0.416  52.629  1.00  0.00     0.109 A 
HETATM    7  H4  UNL     1      21.205  -1.434  55.276  1.00  0.00     0.167 HD
ENDROOT
BRANCH   5   8
HETATM    8  N3  UNL     1      24.879   0.846  52.191  1.00  0.00    -0.339 N 
HETATM    9  H6  UNL     1      24.621   1.306  51.290  1.00  0.00     0.167 HD
BRANCH   8  10
HETATM   10  C7  UNL     1      26.210   0.768  52.687  1.00  0.00     0.035 A 
HETATM   11  C8  UNL     1      26.640   2.019  53.146  1.00  0.00     0.029 A 
HETATM   12  C9  UNL     1      27.904   2.198  53.677  1.00  0.00     0.004 A 
HETATM   13  C10 UNL     1      28.767   1.109  53.757  1.00  0.00     0.019 A 
HETATM   14  C11 UNL     1      28.330  -0.113  53.302  1.00  0.00     0.013 A 
HETATM   15 BR1  UNL     1      29.456  -1.648  53.379  1.00  0.00    -0.051 Br
HETATM   16  C12 UNL     1      27.072  -0.308  52.769  1.00  0.00     0.048 A 
ENDBRANCH   8  10
ENDBRANCH   5   8
BRANCH   6  17
HETATM   17  N4  UNL     1      22.216   1.168  51.478  1.00  0.00    -0.389 N 
HETATM   18  C14 UNL     1      22.071   2.619  51.543  1.00  0.00     0.146 C 
HETATM   19  H11 UNL     1      22.074   0.650  50.580  1.00  0.00     0.159 HD
ENDBRANCH   6  17
BRANCH   1  20
HETATM   20  C3  UNL     1      20.374  -0.108  53.224  1.00  0.00    -0.080 C 
BRANCH  20  21
HETATM   21  C2  UNL     1      19.168  -0.173  52.679  1.00  0.00     0.183 C 
HETATM   22  C15 UNL     1      18.271  -1.261  52.998  1.00  0.00     0.222 C 
BRANCH  21  23
HETATM   23  O1  UNL     1      19.078   0.911  51.879  1.00  0.00    -0.366 OA
HETATM   24  C1  UNL     1      18.662   0.731  50.535  1.00  0.00     0.204 C 
ENDBRANCH  21  23
BRANCH  22  25
HETATM   25  O2  UNL     1      17.059  -0.890  53.583  1.00  0.00    -0.392 OA
HETATM   26  C16 UNL     1      16.014  -0.881  52.663  1.00  0.00     0.201 C 
ENDBRANCH  22  25
ENDBRANCH  20  21
ENDBRANCH   1  20
TORSDOF 7
ENDMDL
MODEL 4
REMARK VINA RESULT:      -6.3      4.488      7.901
REMARK  7 active torsions:
REMARK  status: ('A' for Active; 'I' for Inactive)
REMARK    1  A    between atoms: O1_2  and  C2_3 
REMARK    2  A    between atoms: C2_3  and  C3_4 
REMARK    3  A    between atoms: C3_4  and  C4_5 
REMARK    4  A    between atoms: C6_9  and  N3_10 
REMARK    5  A    between atoms: N3_10  and  C7_11 
REMARK    6  A    between atoms: C13_18  and  N4_19 
REMARK    7  A    between atoms: C15_21  and  O2_22 
ROOT
HETATM    1  C4  UNL     1      24.173  -0.285  53.887  1.00  0.00     0.109 A 
HETATM    2  N1  UNL     1      24.033  -1.217  54.915  1.00  0.00    -0.343 N 
HETATM    3  C5  UNL     1      22.661  -1.350  55.374  1.00  0.00     0.210 A 
HETATM    4  N2  UNL     1      21.695  -0.642  54.841  1.00  0.00    -0.224 NA
HETATM    5  C6  UNL     1      21.936   0.301  53.776  1.00  0.00     0.159 A 
HETATM    6  C13 UNL     1      23.171   0.516  53.262  1.00  0.00     0.109 A 
HETATM    7  H4  UNL     1      24.801  -1.779  55.340  1.00  0.00     0.167 HD
ENDROOT
BRANCH   5   8
HETATM    8  N3  UNL     1      20.822   1.044  53.239  1.00  0.00    -0.339 N 
HETATM    9  H6  UNL     1      20.892   2.083  53.162  1.00  0.00     0.167 HD
BRANCH   8  10
HETATM   10  C7  UNL     1      19.678   0.296  52.842  1.00  0.00     0.035 A 
HETATM   11  C8  UNL     1      19.042   0.906  51.755  1.00  0.00     0.029 A 
HETATM   12  C9  UNL     1      17.903   0.365  51.188  1.00  0.00     0.004 A 
HETATM   13  C10 UNL     1      17.379  -0.813  51.710  1.00  0.00     0.019 A 
HETATM   14  C11 UNL     1      18.016  -1.401  52.779  1.00  0.00     0.013 A 
HETATM   15 BR1  UNL     1      17.356  -3.015  53.546  1.00  0.00    -0.051 Br
HETATM   16  C12 UNL     1      19.153  -0.873  53.356  1.00  0.00     0.048 A 
ENDBRANCH   8  10
ENDBRANCH   5   8
BRANCH   6  17
HETATM   17  N4  UNL     1      23.371   1.449  52.217  1.00  0.00    -0.389 N 
HETATM   18  C14 UNL     1      23.630   2.856  52.505  1.00  0.00     0.146 C 
HETATM   19  H11 UNL     1      23.326   1.098  51.233  1.00  0.00     0.159 HD
ENDBRANCH   6  17
BRANCH   1  20
HETATM   20  C3  UNL     1      25.388  -0.132  53.443  1.00  0.00    -0.080 C 
BRANCH  20  21
HETATM   21  C2  UNL     1      26.666   0.176  53.272  1.00  0.00     0.183 C 
HETATM   22  C15 UNL     1      27.642  -0.129  54.294  1.00  0.00     0.222 C 
BRANCH  21  23
HETATM   23  O1  UNL     1      26.734   0.761  52.057  1.00  0.00    -0.366 OA
HETATM   24  C1  UNL     1      27.126   2.121  51.978  1.00  0.00     0.204 C 
ENDBRANCH  21  23
BRANCH  22  25
HETATM   25  O2  UNL     1      28.672  -0.987  53.904  1.00  0.00    -0.392 OA
HETATM   26  C16 UNL     1      29.836  -0.294  53.577  1.00  0.00     0.201 C 
ENDBRANCH  22  25
ENDBRANCH  20  21
ENDBRANCH   1  20
TORSDOF 7
ENDMDL
MODEL 5
REMARK VINA RESULT:      -6.2      1.817      3.615
REMARK  7 active torsions:
REMARK  status: ('A' for Active; 'I' for Inactive)
REMARK    1  A    between atoms: O1_2  and  C2_3 
REMARK    2  A    between atoms: C2_3  and  C3_4 
REMARK    3  A    between atoms: C3_4  and  C4_5 
REMARK    4  A    between atoms: C6_9  and  N3_10 
REMARK    5  A    between atoms: N3_10  and  C7_11 
REMARK    6  A    between atoms: C13_18  and  N4_19 
REMARK    7  A    between atoms: C15_21  and  O2_22 
ROOT
HETATM    1  C4  UNL     1      23.834   1.715  51.466  1.00  0.00     0.109 A 
HETATM    2  N1  UNL     1      22.807   1.589  50.530  1.00  0.00    -0.343 N 
HETATM    3  C5  UNL     1      22.839   2.627  49.514  1.00  0.00     0.210 A 
HETATM    4  N2  UNL     1      23.760   3.561  49.525  1.00  0.00    -0.224 NA
HETATM    5  C6  UNL     1      24.787   3.610  50.538  1.00  0.00     0.159 A 
HETATM    6  C13 UNL     1      24.864   2.700  51.538  1.00  0.00     0.109 A 
HETATM    7  H4  UNL     1      22.074   0.848  50.521  1.00  0.00     0.167 HD
ENDROOT
BRANCH   5   8
HETATM    8  N3  UNL     1      25.767   4.667  50.484  1.00  0.00    -0.339 N 
HETATM    9  H6  UNL     1      26.737   4.481  50.822  1.00  0.00     0.167 HD
BRANCH   8  10
HETATM   10  C7  UNL     1      25.338   5.920  49.963  1.00  0.00     0.035 A 
HETATM   11  C8  UNL     1      24.566   6.609  50.906  1.00  0.00     0.029 A 
HETATM   12  C9  UNL     1      24.033   7.855  50.632  1.00  0.00     0.004 A 
HETATM   13  C10 UNL     1      24.272   8.436  49.390  1.00  0.00     0.019 A 
HETATM   14  C11 UNL     1      25.033   7.747  48.475  1.00  0.00     0.013 A 
HETATM   15 BR1  UNL     1      25.401   8.481  46.756  1.00  0.00    -0.051 Br
HETATM   16  C12 UNL     1      25.571   6.503  48.733  1.00  0.00     0.048 A 
ENDBRANCH   8  10
ENDBRANCH   5   8
BRANCH   6  17
HETATM   17  N4  UNL     1      25.885   2.778  52.515  1.00  0.00    -0.389 N 
HETATM   18  C14 UNL     1      27.192   2.170  52.288  1.00  0.00     0.146 C 
HETATM   19  H11 UNL     1      25.671   3.285  53.405  1.00  0.00     0.159 HD
ENDBRANCH   6  17
BRANCH   1  20
HETATM   20  C3  UNL     1      23.845   0.805  52.398  1.00  0.00    -0.080 C 
BRANCH  20  21
HETATM   21  C2  UNL     1      24.003  -0.296  53.118  1.00  0.00     0.183 C 
HETATM   22  C15 UNL     1      25.324  -0.761  53.475  1.00  0.00     0.222 C 
BRANCH  21  23
HETATM   23  O1  UNL     1      22.754  -0.749  53.358  1.00  0.00    -0.366 OA
HETATM   24  C1  UNL     1      21.910   0.002  54.215  1.00  0.00     0.204 C 
ENDBRANCH  21  23
BRANCH  22  25
HETATM   25  O2  UNL     1      25.582  -0.844  54.845  1.00  0.00    -0.392 OA
HETATM   26  C16 UNL     1      26.513   0.104  55.261  1.00  0.00     0.201 C 
ENDBRANCH  22  25
ENDBRANCH  20  21
ENDBRANCH   1  20
TORSDOF 7
ENDMDL
MODEL 6
REMARK VINA RESULT:      -6.2      4.165      7.615
REMARK  7 active torsions:
REMARK  status: ('A' for Active; 'I' for Inactive)
REMARK    1  A    between atoms: O1_2  and  C2_3 
REMARK    2  A    between atoms: C2_3  and  C3_4 
REMARK    3  A    between atoms: C3_4  and  C4_5 
REMARK    4  A    between atoms: C6_9  and  N3_10 
REMARK    5  A    between atoms: N3_10  and  C7_11 
REMARK    6  A    between atoms: C13_18  and  N4_19 
REMARK    7  A    between atoms: C15_21  and  O2_22 
ROOT
HETATM    1  C4  UNL     1      24.337   5.504  50.705  1.00  0.00     0.109 A 
HETATM    2  N1  UNL     1      23.492   6.155  51.604  1.00  0.00    -0.343 N 
HETATM    3  C5  UNL     1      22.520   5.263  52.213  1.00  0.00     0.210 A 
HETATM    4  N2  UNL     1      22.487   3.987  51.912  1.00  0.00    -0.224 NA
HETATM    5  C6  UNL     1      23.406   3.401  50.967  1.00  0.00     0.159 A 
HETATM    6  C13 UNL     1      24.357   4.127  50.332  1.00  0.00     0.109 A 
HETATM    7  H4  UNL     1      23.517   7.169  51.843  1.00  0.00     0.167 HD
ENDROOT
BRANCH   5   8
HETATM    8  N3  UNL     1      23.308   1.989  50.687  1.00  0.00    -0.339 N 
HETATM    9  H6  UNL     1      23.189   1.672  49.699  1.00  0.00     0.167 HD
BRANCH   8  10
HETATM   10  C7  UNL     1      23.381   1.103  51.798  1.00  0.00     0.035 A 
HETATM   11  C8  UNL     1      24.694   1.011  52.273  1.00  0.00     0.029 A 
HETATM   12  C9  UNL     1      25.019   0.209  53.350  1.00  0.00     0.004 A 
HETATM   13  C10 UNL     1      24.015  -0.523  53.977  1.00  0.00     0.019 A 
HETATM   14  C11 UNL     1      22.729  -0.422  53.500  1.00  0.00     0.013 A 
HETATM   15 BR1  UNL     1      21.304  -1.395  54.309  1.00  0.00    -0.051 Br
HETATM   16  C12 UNL     1      22.390   0.373  52.425  1.00  0.00     0.048 A 
ENDBRANCH   8  10
ENDBRANCH   5   8
BRANCH   6  17
HETATM   17  N4  UNL     1      25.242   3.518  49.411  1.00  0.00    -0.389 N 
HETATM   18  C14 UNL     1      26.555   3.041  49.833  1.00  0.00     0.146 C 
HETATM   19  H11 UNL     1      24.925   3.423  48.418  1.00  0.00     0.159 HD
ENDBRANCH   6  17
BRANCH   1  20
HETATM   20  C3  UNL     1      25.226   6.266  50.134  1.00  0.00    -0.080 C 
BRANCH  20  21
HETATM   21  C2  UNL     1      25.884   7.248  49.535  1.00  0.00     0.183 C 
HETATM   22  C15 UNL     1      25.957   8.560  50.135  1.00  0.00     0.222 C 
BRANCH  21  23
HETATM   23  O1  UNL     1      26.368   6.710  48.395  1.00  0.00    -0.366 OA
HETATM   24  C1  UNL     1      27.687   6.187  48.395  1.00  0.00     0.204 C 
ENDBRANCH  21  23
BRANCH  22  25
HETATM   25  O2  UNL     1      27.243   9.017  50.428  1.00  0.00    -0.392 OA
HETATM   26  C16 UNL     1      27.752   9.835  49.422  1.00  0.00     0.201 C 
ENDBRANCH  22  25
ENDBRANCH  20  21
ENDBRANCH   1  20
TORSDOF 7
ENDMDL
MODEL 7
REMARK VINA RESULT:      -6.1      1.426      2.345
REMARK  7 active torsions:
REMARK  status: ('A' for Active; 'I' for Inactive)
REMARK    1  A    between atoms: O1_2  and  C2_3 
REMARK    2  A    between atoms: C2_3  and  C3_4 
REMARK    3  A    between atoms: C3_4  and  C4_5 
REMARK    4  A    between atoms: C6_9  and  N3_10 
REMARK    5  A    between atoms: N3_10  and  C7_11 
REMARK    6  A    between atoms: C13_18  and  N4_19 
REMARK    7  A    between atoms: C15_21  and  O2_22 
ROOT
HETATM    1  C4  UNL     1      24.698   1.796  52.126  1.00  0.00     0.109 A 
HETATM    2  N1  UNL     1      25.951   1.527  52.676  1.00  0.00    -0.343 N 
HETATM    3  C5  UNL     1      27.035   2.166  51.949  1.00  0.00     0.210 A 
HETATM    4  N2  UNL     1      26.801   2.907  50.892  1.00  0.00    -0.224 NA
HETATM    5  C6  UNL     1      25.464   3.129  50.396  1.00  0.00     0.159 A 
HETATM    6  C13 UNL     1      24.372   2.588  50.986  1.00  0.00     0.109 A 
HETATM    7  H4  UNL     1      26.139   0.938  53.515  1.00  0.00     0.167 HD
ENDROOT
BRANCH   5   8
HETATM    8  N3  UNL     1      25.285   3.957  49.228  1.00  0.00    -0.339 N 
HETATM    9  H6  UNL     1      24.715   3.596  48.431  1.00  0.00     0.167 HD
BRANCH   8  10
HETATM   10  C7  UNL     1      25.910   5.235  49.239  1.00  0.00     0.035 A 
HETATM   11  C8  UNL     1      25.230   6.110  50.094  1.00  0.00     0.029 A 
HETATM   12  C9  UNL     1      25.649   7.415  50.275  1.00  0.00     0.004 A 
HETATM   13  C10 UNL     1      26.773   7.867  49.590  1.00  0.00     0.019 A 
HETATM   14  C11 UNL     1      27.431   6.995  48.753  1.00  0.00     0.013 A 
HETATM   15 BR1  UNL     1      28.976   7.544  47.784  1.00  0.00    -0.051 Br
HETATM   16  C12 UNL     1      27.025   5.690  48.563  1.00  0.00     0.048 A 
ENDBRANCH   8  10
ENDBRANCH   5   8
BRANCH   6  17
HETATM   17  N4  UNL     1      23.075   2.828  50.471  1.00  0.00    -0.389 N 
HETATM   18  C14 UNL     1      22.479   1.932  49.485  1.00  0.00     0.146 C 
HETATM   19  H11 UNL     1      22.558   3.668  50.821  1.00  0.00     0.159 HD
ENDBRANCH   6  17
BRANCH   1  20
HETATM   20  C3  UNL     1      23.694   1.243  52.747  1.00  0.00    -0.080 C 
BRANCH  20  21
HETATM   21  C2  UNL     1      22.589   0.593  53.080  1.00  0.00     0.183 C 
HETATM   22  C15 UNL     1      22.636  -0.805  53.443  1.00  0.00     0.222 C 
BRANCH  21  23
HETATM   23  O1  UNL     1      21.596   1.502  52.981  1.00  0.00    -0.366 OA
HETATM   24  C1  UNL     1      20.332   1.079  52.494  1.00  0.00     0.204 C 
ENDBRANCH  21  23
BRANCH  22  25
HETATM   25  O2  UNL     1      22.189  -1.107  54.731  1.00  0.00    -0.392 OA
HETATM   26  C16 UNL     1      23.236  -1.455  55.582  1.00  0.00     0.201 C 
ENDBRANCH  22  25
ENDBRANCH  20  21
ENDBRANCH   1  20
TORSDOF 7
ENDMDL
MODEL 8
REMARK VINA RESULT:      -6.0      2.982      4.758
REMARK  7 active torsions:
REMARK  status: ('A' for Active; 'I' for Inactive)
REMARK    1  A    between atoms: O1_2  and  C2_3 
REMARK    2  A    between atoms: C2_3  and  C3_4 
REMARK    3  A    between atoms: C3_4  and  C4_5 
REMARK    4  A    between atoms: C6_9  and  N3_10 
REMARK    5  A    between atoms: N3_10  and  C7_11 
REMARK    6  A    between atoms: C13_18  and  N4_19 
REMARK    7  A    between atoms: C15_21  and  O2_22 
ROOT
HETATM    1  C4  UNL     1      25.674   2.943  51.518  1.00  0.00     0.109 A 
HETATM    2  N1  UNL     1      26.827   3.325  50.830  1.00  0.00    -0.343 N 
HETATM    3  C5  UNL     1      26.549   4.200  49.704  1.00  0.00     0.210 A 
HETATM    4  N2  UNL     1      25.323   4.561  49.411  1.00  0.00    -0.224 NA
HETATM    5  C6  UNL     1      24.189   4.115  50.183  1.00  0.00     0.159 A 
HETATM    6  C13 UNL     1      24.317   3.297  51.255  1.00  0.00     0.109 A 
HETATM    7  H4  UNL     1      27.802   3.038  51.063  1.00  0.00     0.167 HD
ENDROOT
BRANCH   5   8
HETATM    8  N3  UNL     1      22.870   4.555  49.799  1.00  0.00    -0.339 N 
HETATM    9  H6  UNL     1      22.211   4.892  50.536  1.00  0.00     0.167 HD
BRANCH   8  10
HETATM   10  C7  UNL     1      22.547   4.498  48.415  1.00  0.00     0.035 A 
HETATM   11  C8  UNL     1      22.284   3.181  48.021  1.00  0.00     0.029 A 
HETATM   12  C9  UNL     1      21.946   2.870  46.718  1.00  0.00     0.004 A 
HETATM   13  C10 UNL     1      21.865   3.891  45.776  1.00  0.00     0.019 A 
HETATM   14  C11 UNL     1      22.125   5.181  46.178  1.00  0.00     0.013 A 
HETATM   15 BR1  UNL     1      22.033   6.629  44.944  1.00  0.00    -0.051 Br
HETATM   16  C12 UNL     1      22.465   5.507  47.474  1.00  0.00     0.048 A 
ENDBRANCH   8  10
ENDBRANCH   5   8
BRANCH   6  17
HETATM   17  N4  UNL     1      23.182   2.878  51.990  1.00  0.00    -0.389 N 
HETATM   18  C14 UNL     1      22.500   1.628  51.672  1.00  0.00     0.146 C 
HETATM   19  H11 UNL     1      22.849   3.495  52.766  1.00  0.00     0.159 HD
ENDBRANCH   6  17
BRANCH   1  20
HETATM   20  C3  UNL     1      25.875   2.156  52.537  1.00  0.00    -0.080 C 
BRANCH  20  21
HETATM   21  C2  UNL     1      26.336   1.547  53.619  1.00  0.00     0.183 C 
HETATM   22  C15 UNL     1      25.787   0.278  54.042  1.00  0.00     0.222 C 
BRANCH  21  23
HETATM   23  O1  UNL     1      27.303   2.356  54.101  1.00  0.00    -0.366 OA
HETATM   24  C1  UNL     1      28.640   2.148  53.675  1.00  0.00     0.204 C 
ENDBRANCH  21  23
BRANCH  22  25
HETATM   25  O2  UNL     1      26.693  -0.782  54.092  1.00  0.00    -0.392 OA
HETATM   26  C16 UNL     1      26.930  -1.330  52.834  1.00  0.00     0.201 C 
ENDBRANCH  22  25
ENDBRANCH  20  21
ENDBRANCH   1  20
TORSDOF 7
ENDMDL
MODEL 9
REMARK VINA RESULT:      -5.9      1.255      2.392
REMARK  7 active torsions:
REMARK  status: ('A' for Active; 'I' for Inactive)
REMARK    1  A    between atoms: O1_2  and  C2_3 
REMARK    2  A    between atoms: C2_3  and  C3_4 
REMARK    3  A    between atoms: C3_4  and  C4_5 
REMARK    4  A    between atoms: C6_9  and  N3_10 
REMARK    5  A    between atoms: N3_10  and  C7_11 
REMARK    6  A    between atoms: C13_18  and  N4_19 
REMARK    7  A    between atoms: C15_21  and  O2_22 
ROOT
HETATM    1  C4  UNL     1      23.775   1.905  51.386  1.00  0.00     0.109 A 
HETATM    2  N1  UNL     1      22.828   1.876  50.362  1.00  0.00    -0.343 N 
HETATM    3  C5  UNL     1      23.203   2.694  49.222  1.00  0.00     0.210 A 
HETATM    4  N2  UNL     1      24.327   3.369  49.210  1.00  0.00    -0.224 NA
HETATM    5  C6  UNL     1      25.249   3.338  50.320  1.00  0.00     0.159 A 
HETATM    6  C13 UNL     1      25.013   2.614  51.439  1.00  0.00     0.109 A 
HETATM    7  H4  UNL     1      21.933   1.340  50.371  1.00  0.00     0.167 HD
ENDROOT
BRANCH   5   8
HETATM    8  N3  UNL     1      26.466   4.107  50.234  1.00  0.00    -0.339 N 
HETATM    9  H6  UNL     1      27.330   3.747  50.697  1.00  0.00     0.167 HD
BRANCH   8  10
HETATM   10  C7  UNL     1      26.408   5.330  49.509  1.00  0.00     0.035 A 
HETATM   11  C8  UNL     1      27.515   5.454  48.660  1.00  0.00     0.029 A 
HETATM   12  C9  UNL     1      27.683   6.561  47.850  1.00  0.00     0.004 A 
HETATM   13  C10 UNL     1      26.729   7.574  47.879  1.00  0.00     0.019 A 
HETATM   14  C11 UNL     1      25.647   7.437  48.718  1.00  0.00     0.013 A 
HETATM   15 BR1  UNL     1      24.302   8.783  48.811  1.00  0.00    -0.051 Br
HETATM   16  C12 UNL     1      25.466   6.339  49.533  1.00  0.00     0.048 A 
ENDBRANCH   8  10
ENDBRANCH   5   8
BRANCH   6  17
HETATM   17  N4  UNL     1      25.940   2.606  52.509  1.00  0.00    -0.389 N 
HETATM   18  C14 UNL     1      27.108   1.731  52.486  1.00  0.00     0.146 C 
HETATM   19  H11 UNL     1      25.759   3.246  53.317  1.00  0.00     0.159 HD
ENDBRANCH   6  17
BRANCH   1  20
HETATM   20  C3  UNL     1      23.481   1.185  52.431  1.00  0.00    -0.080 C 
BRANCH  20  21
HETATM   21  C2  UNL     1      23.213   0.208  53.285  1.00  0.00     0.183 C 
HETATM   22  C15 UNL     1      21.969   0.191  54.020  1.00  0.00     0.222 C 
BRANCH  21  23
HETATM   23  O1  UNL     1      24.290  -0.606  53.246  1.00  0.00    -0.366 OA
HETATM   24  C1  UNL     1      25.101  -0.717  54.404  1.00  0.00     0.204 C 
ENDBRANCH  21  23
BRANCH  22  25
HETATM   25  O2  UNL     1      21.157  -0.924  53.802  1.00  0.00    -0.392 OA
HETATM   26  C16 UNL     1      19.882  -0.567  53.369  1.00  0.00     0.201 C 
ENDBRANCH  22  25
ENDBRANCH  20  21
ENDBRANCH   1  20
TORSDOF 7
ENDMDL
