MODEL 1
REMARK VINA RESULT:      -7.9      0.000      0.000
REMARK  5 active torsions:
REMARK  status: ('A' for Active; 'I' for Inactive)
REMARK    1  A    between atoms: C2_2  and  S1_4 
REMARK    2  A    between atoms: S1_4  and  N1_5 
REMARK    3  A    between atoms: N1_5  and  C3_6 
REMARK    4  A    between atoms: C8_13  and  N4_14 
REMARK    5  A    between atoms: N4_14  and  C9_15 
ROOT
HETATM    1  C3  UNL     1      24.395  -0.292  53.417  1.00  0.00     0.039 A 
HETATM    2  C4  UNL     1      24.964  -0.551  54.666  1.00  0.00     0.032 A 
HETATM    3  C5  UNL     1      26.173  -0.031  55.073  1.00  0.00     0.035 A 
HETATM    4  C6  UNL     1      26.843   0.786  54.189  1.00  0.00     0.072 A 
HETATM    5  N2  UNL     1      28.025   1.329  54.525  1.00  0.00    -0.241 NA
HETATM    6  C7  UNL     1      28.679   2.132  53.656  1.00  0.00     0.236 A 
HETATM    7  N3  UNL     1      28.140   2.391  52.445  1.00  0.00    -0.224 NA
HETATM    8  C8  UNL     1      26.967   1.878  52.063  1.00  0.00     0.142 A 
HETATM    9  C15 UNL     1      26.300   1.058  52.949  1.00  0.00     0.041 A 
HETATM   10  C16 UNL     1      25.080   0.529  52.546  1.00  0.00     0.047 A 
ENDROOT
BRANCH   8  11
HETATM   11  N4  UNL     1      26.522   2.240  50.764  1.00  0.00    -0.340 N 
HETATM   12  H8  UNL     1      26.663   1.300  50.327  1.00  0.00     0.167 HD
BRANCH  11  13
HETATM   13  C9  UNL     1      26.027   3.385  50.083  1.00  0.00     0.035 A 
HETATM   14  C10 UNL     1      24.656   3.463  49.982  1.00  0.00     0.029 A 
HETATM   15  C11 UNL     1      24.156   4.565  49.331  1.00  0.00     0.004 A 
HETATM   16  C12 UNL     1      24.995   5.538  48.808  1.00  0.00     0.019 A 
HETATM   17  C13 UNL     1      26.360   5.379  48.954  1.00  0.00     0.013 A 
HETATM   18 BR1  UNL     1      27.387   6.794  48.186  1.00  0.00    -0.051 Br
HETATM   19  C14 UNL     1      26.926   4.299  49.596  1.00  0.00     0.048 A 
ENDBRANCH  11  13
ENDBRANCH   8  11
BRANCH   1  20
HETATM   20  N1  UNL     1      23.133  -0.875  53.081  1.00  0.00    -0.324 N 
HETATM   21  H4  UNL     1      23.149  -1.846  52.644  1.00  0.00     0.174 HD
BRANCH  20  22
HETATM   22  S1  UNL     1      21.591  -0.115  53.332  1.00  0.00     0.024 SA
BRANCH  22  23
HETATM   23  C2  UNL     1      20.888   0.342  51.728  1.00  0.00     0.202 C 
HETATM   24  C1  UNL     1      21.861   1.028  50.802  1.00  0.00     0.106 C 
HETATM   25  O1  UNL     1      19.735   0.124  51.406  1.00  0.00    -0.284 OA
ENDBRANCH  22  23
ENDBRANCH  20  22
ENDBRANCH   1  20
TORSDOF 5
ENDMDL
MODEL 2
REMARK VINA RESULT:      -7.8      3.104      4.815
REMARK  5 active torsions:
REMARK  status: ('A' for Active; 'I' for Inactive)
REMARK    1  A    between atoms: C2_2  and  S1_4 
REMARK    2  A    between atoms: S1_4  and  N1_5 
REMARK    3  A    between atoms: N1_5  and  C3_6 
REMARK    4  A    between atoms: C8_13  and  N4_14 
REMARK    5  A    between atoms: N4_14  and  C9_15 
ROOT
HETATM    1  C3  UNL     1      24.388  -0.092  53.540  1.00  0.00     0.039 A 
HETATM    2  C4  UNL     1      23.169  -0.739  53.754  1.00  0.00     0.032 A 
HETATM    3  C5  UNL     1      21.946  -0.156  53.509  1.00  0.00     0.035 A 
HETATM    4  C6  UNL     1      21.943   1.135  53.027  1.00  0.00     0.072 A 
HETATM    5  N2  UNL     1      20.783   1.760  52.764  1.00  0.00    -0.241 NA
HETATM    6  C7  UNL     1      20.783   3.026  52.289  1.00  0.00     0.236 A 
HETATM    7  N3  UNL     1      21.954   3.663  52.078  1.00  0.00    -0.224 NA
HETATM    8  C8  UNL     1      23.135   3.086  52.322  1.00  0.00     0.142 A 
HETATM    9  C15 UNL     1      23.135   1.795  52.806  1.00  0.00     0.041 A 
HETATM   10  C16 UNL     1      24.365   1.200  53.057  1.00  0.00     0.047 A 
ENDROOT
BRANCH   8  11
HETATM   11  N4  UNL     1      24.283   3.875  52.048  1.00  0.00    -0.340 N 
HETATM   12  H8  UNL     1      24.433   4.205  53.030  1.00  0.00     0.167 HD
BRANCH  11  13
HETATM   13  C9  UNL     1      25.098   4.231  50.940  1.00  0.00     0.035 A 
HETATM   14  C10 UNL     1      25.985   3.263  50.527  1.00  0.00     0.029 A 
HETATM   15  C11 UNL     1      26.779   3.585  49.453  1.00  0.00     0.004 A 
HETATM   16  C12 UNL     1      26.685   4.819  48.828  1.00  0.00     0.019 A 
HETATM   17  C13 UNL     1      25.766   5.733  49.309  1.00  0.00     0.013 A 
HETATM   18 BR1  UNL     1      25.748   7.385  48.351  1.00  0.00    -0.051 Br
HETATM   19  C14 UNL     1      24.939   5.473  50.381  1.00  0.00     0.048 A 
ENDBRANCH  11  13
ENDBRANCH   8  11
BRANCH   1  20
HETATM   20  N1  UNL     1      25.611  -0.777  53.821  1.00  0.00    -0.324 N 
HETATM   21  H4  UNL     1      25.604  -1.468  54.631  1.00  0.00     0.174 HD
BRANCH  20  22
HETATM   22  S1  UNL     1      27.095  -0.561  52.943  1.00  0.00     0.024 SA
BRANCH  22  23
HETATM   23  C2  UNL     1      28.408  -0.102  54.101  1.00  0.00     0.202 C 
HETATM   24  C1  UNL     1      29.751  -0.712  53.784  1.00  0.00     0.106 C 
HETATM   25  O1  UNL     1      28.242   0.633  55.057  1.00  0.00    -0.284 OA
ENDBRANCH  22  23
ENDBRANCH  20  22
ENDBRANCH   1  20
TORSDOF 5
ENDMDL
MODEL 3
REMARK VINA RESULT:      -7.8      3.120      5.069
REMARK  5 active torsions:
REMARK  status: ('A' for Active; 'I' for Inactive)
REMARK    1  A    between atoms: C2_2  and  S1_4 
REMARK    2  A    between atoms: S1_4  and  N1_5 
REMARK    3  A    between atoms: N1_5  and  C3_6 
REMARK    4  A    between atoms: C8_13  and  N4_14 
REMARK    5  A    between atoms: N4_14  and  C9_15 
ROOT
HETATM    1  C3  UNL     1      24.415  -0.590  54.166  1.00  0.00     0.039 A 
HETATM    2  C4  UNL     1      23.437  -1.123  55.008  1.00  0.00     0.032 A 
HETATM    3  C5  UNL     1      22.088  -0.897  54.844  1.00  0.00     0.035 A 
HETATM    4  C6  UNL     1      21.701  -0.100  53.788  1.00  0.00     0.072 A 
HETATM    5  N2  UNL     1      20.401   0.157  53.571  1.00  0.00    -0.241 NA
HETATM    6  C7  UNL     1      20.024   0.937  52.533  1.00  0.00     0.236 A 
HETATM    7  N3  UNL     1      20.959   1.459  51.711  1.00  0.00    -0.224 NA
HETATM    8  C8  UNL     1      22.265   1.233  51.883  1.00  0.00     0.142 A 
HETATM    9  C15 UNL     1      22.649   0.438  52.942  1.00  0.00     0.041 A 
HETATM   10  C16 UNL     1      24.009   0.205  53.114  1.00  0.00     0.047 A 
ENDROOT
BRANCH   8  11
HETATM   11  N4  UNL     1      23.133   1.843  50.939  1.00  0.00    -0.340 N 
HETATM   12  H8  UNL     1      23.220   1.012  50.309  1.00  0.00     0.167 HD
BRANCH  11  13
HETATM   13  C9  UNL     1      23.772   3.094  50.725  1.00  0.00     0.035 A 
HETATM   14  C10 UNL     1      23.124   4.185  51.259  1.00  0.00     0.029 A 
HETATM   15  C11 UNL     1      23.728   5.404  51.067  1.00  0.00     0.004 A 
HETATM   16  C12 UNL     1      24.924   5.518  50.373  1.00  0.00     0.019 A 
HETATM   17  C13 UNL     1      25.506   4.369  49.870  1.00  0.00     0.013 A 
HETATM   18 BR1  UNL     1      27.145   4.679  48.941  1.00  0.00    -0.051 Br
HETATM   19  C14 UNL     1      24.953   3.117  50.028  1.00  0.00     0.048 A 
ENDBRANCH  11  13
ENDBRANCH   8  11
BRANCH   1  20
HETATM   20  N1  UNL     1      25.793  -0.880  54.411  1.00  0.00    -0.324 N 
HETATM   21  H4  UNL     1      26.038  -1.304  55.358  1.00  0.00     0.174 HD
BRANCH  20  22
HETATM   22  S1  UNL     1      27.085  -0.591  53.286  1.00  0.00     0.024 SA
BRANCH  22  23
HETATM   23  C2  UNL     1      28.574  -0.119  54.201  1.00  0.00     0.202 C 
HETATM   24  C1  UNL     1      29.830  -0.812  53.733  1.00  0.00     0.106 C 
HETATM   25  O1  UNL     1      28.582   0.683  55.115  1.00  0.00    -0.284 OA
ENDBRANCH  22  23
ENDBRANCH  20  22
ENDBRANCH   1  20
TORSDOF 5
ENDMDL
MODEL 4
REMARK VINA RESULT:      -7.5      4.002      6.808
REMARK  5 active torsions:
REMARK  status: ('A' for Active; 'I' for Inactive)
REMARK    1  A    between atoms: C2_2  and  S1_4 
REMARK    2  A    between atoms: S1_4  and  N1_5 
REMARK    3  A    between atoms: N1_5  and  C3_6 
REMARK    4  A    between atoms: C8_13  and  N4_14 
REMARK    5  A    between atoms: N4_14  and  C9_15 
ROOT
HETATM    1  C3  UNL     1      26.174   2.496  52.477  1.00  0.00     0.039 A 
HETATM    2  C4  UNL     1      26.782   2.905  51.288  1.00  0.00     0.032 A 
HETATM    3  C5  UNL     1      26.087   3.150  50.125  1.00  0.00     0.035 A 
HETATM    4  C6  UNL     1      24.720   2.978  50.153  1.00  0.00     0.072 A 
HETATM    5  N2  UNL     1      23.983   3.204  49.052  1.00  0.00    -0.241 NA
HETATM    6  C7  UNL     1      22.642   3.037  49.084  1.00  0.00     0.236 A 
HETATM    7  N3  UNL     1      22.041   2.643  50.227  1.00  0.00    -0.224 NA
HETATM    8  C8  UNL     1      22.728   2.406  51.348  1.00  0.00     0.142 A 
HETATM    9  C15 UNL     1      24.096   2.576  51.316  1.00  0.00     0.041 A 
HETATM   10  C16 UNL     1      24.805   2.330  52.486  1.00  0.00     0.047 A 
ENDROOT
BRANCH   8  11
HETATM   11  N4  UNL     1      21.963   2.002  52.474  1.00  0.00    -0.340 N 
HETATM   12  H8  UNL     1      21.824   2.961  52.869  1.00  0.00     0.167 HD
BRANCH  11  13
HETATM   13  C9  UNL     1      21.455   0.806  53.050  1.00  0.00     0.035 A 
HETATM   14  C10 UNL     1      22.356   0.086  53.802  1.00  0.00     0.029 A 
HETATM   15  C11 UNL     1      21.884  -1.071  54.372  1.00  0.00     0.004 A 
HETATM   16  C12 UNL     1      20.572  -1.483  54.193  1.00  0.00     0.019 A 
HETATM   17  C13 UNL     1      19.735  -0.699  53.420  1.00  0.00     0.013 A 
HETATM   18 BR1  UNL     1      17.962  -1.390  53.262  1.00  0.00    -0.051 Br
HETATM   19  C14 UNL     1      20.145   0.472  52.822  1.00  0.00     0.048 A 
ENDBRANCH  11  13
ENDBRANCH   8  11
BRANCH   1  20
HETATM   20  N1  UNL     1      26.975   2.267  53.639  1.00  0.00    -0.324 N 
HETATM   21  H4  UNL     1      27.104   3.085  54.308  1.00  0.00     0.174 HD
BRANCH  20  22
HETATM   22  S1  UNL     1      27.751   0.761  54.028  1.00  0.00     0.024 SA
BRANCH  22  23
HETATM   23  C2  UNL     1      26.579  -0.594  53.769  1.00  0.00     0.202 C 
HETATM   24  C1  UNL     1      26.665  -1.230  52.404  1.00  0.00     0.106 C 
HETATM   25  O1  UNL     1      25.784  -0.972  54.609  1.00  0.00    -0.284 OA
ENDBRANCH  22  23
ENDBRANCH  20  22
ENDBRANCH   1  20
TORSDOF 5
ENDMDL
MODEL 5
REMARK VINA RESULT:      -7.4      3.548      5.614
REMARK  5 active torsions:
REMARK  status: ('A' for Active; 'I' for Inactive)
REMARK    1  A    between atoms: C2_2  and  S1_4 
REMARK    2  A    between atoms: S1_4  and  N1_5 
REMARK    3  A    between atoms: N1_5  and  C3_6 
REMARK    4  A    between atoms: C8_13  and  N4_14 
REMARK    5  A    between atoms: N4_14  and  C9_15 
ROOT
HETATM    1  C3  UNL     1      20.393   0.516  51.533  1.00  0.00     0.039 A 
HETATM    2  C4  UNL     1      19.440  -0.108  52.342  1.00  0.00     0.032 A 
HETATM    3  C5  UNL     1      19.750  -0.778  53.503  1.00  0.00     0.035 A 
HETATM    4  C6  UNL     1      21.077  -0.827  53.874  1.00  0.00     0.072 A 
HETATM    5  N2  UNL     1      21.447  -1.462  54.998  1.00  0.00    -0.241 NA
HETATM    6  C7  UNL     1      22.749  -1.505  55.360  1.00  0.00     0.236 A 
HETATM    7  N3  UNL     1      23.681  -0.906  54.588  1.00  0.00    -0.224 NA
HETATM    8  C8  UNL     1      23.365  -0.261  53.461  1.00  0.00     0.142 A 
HETATM    9  C15 UNL     1      22.037  -0.217  53.092  1.00  0.00     0.041 A 
HETATM   10  C16 UNL     1      21.715   0.458  51.920  1.00  0.00     0.047 A 
ENDROOT
BRANCH   8  11
HETATM   11  N4  UNL     1      24.448   0.324  52.754  1.00  0.00    -0.340 N 
HETATM   12  H8  UNL     1      23.912   0.541  51.881  1.00  0.00     0.167 HD
BRANCH  11  13
HETATM   13  C9  UNL     1      25.825   0.614  52.953  1.00  0.00     0.035 A 
HETATM   14  C10 UNL     1      26.138   1.952  53.043  1.00  0.00     0.029 A 
HETATM   15  C11 UNL     1      27.464   2.254  53.240  1.00  0.00     0.004 A 
HETATM   16  C12 UNL     1      28.425   1.259  53.341  1.00  0.00     0.019 A 
HETATM   17  C13 UNL     1      28.022  -0.060  53.238  1.00  0.00     0.013 A 
HETATM   18 BR1  UNL     1      29.451  -1.316  53.397  1.00  0.00    -0.051 Br
HETATM   19  C14 UNL     1      26.709  -0.430  53.041  1.00  0.00     0.048 A 
ENDBRANCH  11  13
ENDBRANCH   8  11
BRANCH   1  20
HETATM   20  N1  UNL     1      19.977   1.191  50.344  1.00  0.00    -0.324 N 
HETATM   21  H4  UNL     1      19.140   0.786  49.824  1.00  0.00     0.174 HD
BRANCH  20  22
HETATM   22  S1  UNL     1      20.737   2.611  49.691  1.00  0.00     0.024 SA
BRANCH  22  23
HETATM   23  C2  UNL     1      21.731   2.143  48.253  1.00  0.00     0.202 C 
HETATM   24  C1  UNL     1      22.297   3.314  47.488  1.00  0.00     0.106 C 
HETATM   25  O1  UNL     1      21.937   0.993  47.916  1.00  0.00    -0.284 OA
ENDBRANCH  22  23
ENDBRANCH  20  22
ENDBRANCH   1  20
TORSDOF 5
ENDMDL
MODEL 6
REMARK VINA RESULT:      -7.2      1.684      2.182
REMARK  5 active torsions:
REMARK  status: ('A' for Active; 'I' for Inactive)
REMARK    1  A    between atoms: C2_2  and  S1_4 
REMARK    2  A    between atoms: S1_4  and  N1_5 
REMARK    3  A    between atoms: N1_5  and  C3_6 
REMARK    4  A    between atoms: C8_13  and  N4_14 
REMARK    5  A    between atoms: N4_14  and  C9_15 
ROOT
HETATM    1  C3  UNL     1      22.948   0.438  52.668  1.00  0.00     0.039 A 
HETATM    2  C4  UNL     1      23.510  -0.367  53.661  1.00  0.00     0.032 A 
HETATM    3  C5  UNL     1      24.850  -0.361  53.976  1.00  0.00     0.035 A 
HETATM    4  C6  UNL     1      25.667   0.490  53.264  1.00  0.00     0.072 A 
HETATM    5  N2  UNL     1      26.983   0.547  53.524  1.00  0.00    -0.241 NA
HETATM    6  C7  UNL     1      27.781   1.385  52.824  1.00  0.00     0.236 A 
HETATM    7  N3  UNL     1      27.251   2.169  51.862  1.00  0.00    -0.224 NA
HETATM    8  C8  UNL     1      25.948   2.151  51.565  1.00  0.00     0.142 A 
HETATM    9  C15 UNL     1      25.135   1.297  52.278  1.00  0.00     0.041 A 
HETATM   10  C16 UNL     1      23.780   1.284  51.966  1.00  0.00     0.047 A 
ENDROOT
BRANCH   8  11
HETATM   11  N4  UNL     1      25.533   3.033  50.532  1.00  0.00    -0.340 N 
HETATM   12  H8  UNL     1      24.708   2.467  50.222  1.00  0.00     0.167 HD
BRANCH  11  13
HETATM   13  C9  UNL     1      25.929   4.270  49.957  1.00  0.00     0.035 A 
HETATM   14  C10 UNL     1      27.031   4.210  49.133  1.00  0.00     0.029 A 
HETATM   15  C11 UNL     1      27.428   5.394  48.562  1.00  0.00     0.004 A 
HETATM   16  C12 UNL     1      26.751   6.579  48.809  1.00  0.00     0.019 A 
HETATM   17  C13 UNL     1      25.654   6.549  49.650  1.00  0.00     0.013 A 
HETATM   18 BR1  UNL     1      24.824   8.250  49.895  1.00  0.00    -0.051 Br
HETATM   19  C14 UNL     1      25.203   5.395  50.254  1.00  0.00     0.048 A 
ENDBRANCH  11  13
ENDBRANCH   8  11
BRANCH   1  20
HETATM   20  N1  UNL     1      21.543   0.366  52.411  1.00  0.00    -0.324 N 
HETATM   21  H4  UNL     1      21.189   0.836  51.523  1.00  0.00     0.174 HD
BRANCH  20  22
HETATM   22  S1  UNL     1      20.385  -0.423  53.438  1.00  0.00     0.024 SA
BRANCH  22  23
HETATM   23  C2  UNL     1      18.835  -0.637  52.528  1.00  0.00     0.202 C 
HETATM   24  C1  UNL     1      17.775  -1.396  53.287  1.00  0.00     0.106 C 
HETATM   25  O1  UNL     1      18.645  -0.215  51.403  1.00  0.00    -0.284 OA
ENDBRANCH  22  23
ENDBRANCH  20  22
ENDBRANCH   1  20
TORSDOF 5
ENDMDL
MODEL 7
REMARK VINA RESULT:      -7.1      3.694      5.704
REMARK  5 active torsions:
REMARK  status: ('A' for Active; 'I' for Inactive)
REMARK    1  A    between atoms: C2_2  and  S1_4 
REMARK    2  A    between atoms: S1_4  and  N1_5 
REMARK    3  A    between atoms: N1_5  and  C3_6 
REMARK    4  A    between atoms: C8_13  and  N4_14 
REMARK    5  A    between atoms: N4_14  and  C9_15 
ROOT
HETATM    1  C3  UNL     1      25.178  -0.105  53.848  1.00  0.00     0.039 A 
HETATM    2  C4  UNL     1      24.990  -0.882  54.993  1.00  0.00     0.032 A 
HETATM    3  C5  UNL     1      23.767  -1.379  55.382  1.00  0.00     0.035 A 
HETATM    4  C6  UNL     1      22.679  -1.084  54.589  1.00  0.00     0.072 A 
HETATM    5  N2  UNL     1      21.458  -1.541  54.911  1.00  0.00    -0.241 NA
HETATM    6  C7  UNL     1      20.393  -1.251  54.129  1.00  0.00     0.236 A 
HETATM    7  N3  UNL     1      20.560  -0.501  53.019  1.00  0.00    -0.224 NA
HETATM    8  C8  UNL     1      21.754  -0.023  52.654  1.00  0.00     0.142 A 
HETATM    9  C15 UNL     1      22.839  -0.318  53.451  1.00  0.00     0.041 A 
HETATM   10  C16 UNL     1      24.078   0.180  53.066  1.00  0.00     0.047 A 
ENDROOT
BRANCH   8  11
HETATM   11  N4  UNL     1      21.779   0.746  51.461  1.00  0.00    -0.340 N 
HETATM   12  H8  UNL     1      21.973  -0.052  50.813  1.00  0.00     0.167 HD
BRANCH  11  13
HETATM   13  C9  UNL     1      21.625   2.100  51.057  1.00  0.00     0.035 A 
HETATM   14  C10 UNL     1      20.973   2.912  51.957  1.00  0.00     0.029 A 
HETATM   15  C11 UNL     1      20.817   4.226  51.588  1.00  0.00     0.004 A 
HETATM   16  C12 UNL     1      21.294   4.698  50.374  1.00  0.00     0.019 A 
HETATM   17  C13 UNL     1      21.937   3.812  49.529  1.00  0.00     0.013 A 
HETATM   18 BR1  UNL     1      22.538   4.601  47.898  1.00  0.00    -0.051 Br
HETATM   19  C14 UNL     1      22.126   2.483  49.840  1.00  0.00     0.048 A 
ENDBRANCH  11  13
ENDBRANCH   8  11
BRANCH   1  20
HETATM   20  N1  UNL     1      26.487   0.367  53.520  1.00  0.00    -0.324 N 
HETATM   21  H4  UNL     1      26.603   0.866  52.586  1.00  0.00     0.174 HD
BRANCH  20  22
HETATM   22  S1  UNL     1      27.891   0.181  54.528  1.00  0.00     0.024 SA
BRANCH  22  23
HETATM   23  C2  UNL     1      29.026  -0.996  53.751  1.00  0.00     0.202 C 
HETATM   24  C1  UNL     1      30.378  -0.418  53.415  1.00  0.00     0.106 C 
HETATM   25  O1  UNL     1      28.743  -2.155  53.514  1.00  0.00    -0.284 OA
ENDBRANCH  22  23
ENDBRANCH  20  22
ENDBRANCH   1  20
TORSDOF 5
ENDMDL
MODEL 8
REMARK VINA RESULT:      -7.0      3.029      5.021
REMARK  5 active torsions:
REMARK  status: ('A' for Active; 'I' for Inactive)
REMARK    1  A    between atoms: C2_2  and  S1_4 
REMARK    2  A    between atoms: S1_4  and  N1_5 
REMARK    3  A    between atoms: N1_5  and  C3_6 
REMARK    4  A    between atoms: C8_13  and  N4_14 
REMARK    5  A    between atoms: N4_14  and  C9_15 
ROOT
HETATM    1  C3  UNL     1      26.626   2.033  52.395  1.00  0.00     0.039 A 
HETATM    2  C4  UNL     1      27.546   1.607  53.356  1.00  0.00     0.032 A 
HETATM    3  C5  UNL     1      27.250   0.683  54.333  1.00  0.00     0.035 A 
HETATM    4  C6  UNL     1      25.974   0.162  54.350  1.00  0.00     0.072 A 
HETATM    5  N2  UNL     1      25.622  -0.746  55.275  1.00  0.00    -0.241 NA
HETATM    6  C7  UNL     1      24.369  -1.256  55.287  1.00  0.00     0.236 A 
HETATM    7  N3  UNL     1      23.471  -0.853  54.364  1.00  0.00    -0.224 NA
HETATM    8  C8  UNL     1      23.771   0.046  53.422  1.00  0.00     0.142 A 
HETATM    9  C15 UNL     1      25.048   0.567  53.410  1.00  0.00     0.041 A 
HETATM   10  C16 UNL     1      25.355   1.501  52.427  1.00  0.00     0.047 A 
ENDROOT
BRANCH   8  11
HETATM   11  N4  UNL     1      22.728   0.372  52.516  1.00  0.00    -0.340 N 
HETATM   12  H8  UNL     1      22.229  -0.546  52.580  1.00  0.00     0.167 HD
BRANCH  11  13
HETATM   13  C9  UNL     1      22.314   1.465  51.709  1.00  0.00     0.035 A 
HETATM   14  C10 UNL     1      21.767   2.528  52.393  1.00  0.00     0.029 A 
HETATM   15  C11 UNL     1      21.364   3.598  51.631  1.00  0.00     0.004 A 
HETATM   16  C12 UNL     1      21.504   3.598  50.251  1.00  0.00     0.019 A 
HETATM   17  C13 UNL     1      22.063   2.487  49.646  1.00  0.00     0.013 A 
HETATM   18 BR1  UNL     1      22.192   2.629  47.746  1.00  0.00    -0.051 Br
HETATM   19  C14 UNL     1      22.488   1.382  50.351  1.00  0.00     0.048 A 
ENDBRANCH  11  13
ENDBRANCH   8  11
BRANCH   1  20
HETATM   20  N1  UNL     1      27.024   2.996  51.415  1.00  0.00    -0.324 N 
HETATM   21  H4  UNL     1      27.852   3.620  51.657  1.00  0.00     0.174 HD
BRANCH  20  22
HETATM   22  S1  UNL     1      26.254   3.219  49.873  1.00  0.00     0.024 SA
BRANCH  22  23
HETATM   23  C2  UNL     1      26.518   4.922  49.320  1.00  0.00     0.202 C 
HETATM   24  C1  UNL     1      27.779   5.120  48.516  1.00  0.00     0.106 C 
HETATM   25  O1  UNL     1      25.758   5.840  49.565  1.00  0.00    -0.284 OA
ENDBRANCH  22  23
ENDBRANCH  20  22
ENDBRANCH   1  20
TORSDOF 5
ENDMDL
MODEL 9
REMARK VINA RESULT:      -7.0      5.089      7.978
REMARK  5 active torsions:
REMARK  status: ('A' for Active; 'I' for Inactive)
REMARK    1  A    between atoms: C2_2  and  S1_4 
REMARK    2  A    between atoms: S1_4  and  N1_5 
REMARK    3  A    between atoms: N1_5  and  C3_6 
REMARK    4  A    between atoms: C8_13  and  N4_14 
REMARK    5  A    between atoms: N4_14  and  C9_15 
ROOT
HETATM    1  C3  UNL     1      22.202   1.676  51.431  1.00  0.00     0.039 A 
HETATM    2  C4  UNL     1      23.565   1.452  51.641  1.00  0.00     0.032 A 
HETATM    3  C5  UNL     1      24.055   0.597  52.602  1.00  0.00     0.035 A 
HETATM    4  C6  UNL     1      23.139  -0.065  53.390  1.00  0.00     0.072 A 
HETATM    5  N2  UNL     1      23.552  -0.916  54.344  1.00  0.00    -0.241 NA
HETATM    6  C7  UNL     1      22.650  -1.567  55.114  1.00  0.00     0.236 A 
HETATM    7  N3  UNL     1      21.330  -1.360  54.922  1.00  0.00    -0.224 NA
HETATM    8  C8  UNL     1      20.868  -0.525  53.987  1.00  0.00     0.142 A 
HETATM    9  C15 UNL     1      21.787   0.138  53.201  1.00  0.00     0.041 A 
HETATM   10  C16 UNL     1      21.301   1.004  52.229  1.00  0.00     0.047 A 
ENDROOT
BRANCH   8  11
HETATM   11  N4  UNL     1      19.456  -0.411  53.896  1.00  0.00    -0.340 N 
HETATM   12  H8  UNL     1      19.385   0.518  54.374  1.00  0.00     0.167 HD
BRANCH  11  13
HETATM   13  C9  UNL     1      18.352  -1.150  53.392  1.00  0.00     0.035 A 
HETATM   14  C10 UNL     1      17.575  -0.491  52.467  1.00  0.00     0.029 A 
HETATM   15  C11 UNL     1      16.505  -1.190  51.964  1.00  0.00     0.004 A 
HETATM   16  C12 UNL     1      16.232  -2.487  52.372  1.00  0.00     0.019 A 
HETATM   17  C13 UNL     1      17.065  -3.073  53.307  1.00  0.00     0.013 A 
HETATM   18 BR1  UNL     1      16.567  -4.857  53.772  1.00  0.00    -0.051 Br
HETATM   19  C14 UNL     1      18.154  -2.428  53.850  1.00  0.00     0.048 A 
ENDBRANCH  11  13
ENDBRANCH   8  11
BRANCH   1  20
HETATM   20  N1  UNL     1      21.784   2.581  50.406  1.00  0.00    -0.324 N 
HETATM   21  H4  UNL     1      21.868   2.245  49.399  1.00  0.00     0.174 HD
BRANCH  20  22
HETATM   22  S1  UNL     1      21.158   4.178  50.687  1.00  0.00     0.024 SA
BRANCH  22  23
HETATM   23  C2  UNL     1      19.395   4.063  51.081  1.00  0.00     0.202 C 
HETATM   24  C1  UNL     1      18.488   4.636  50.021  1.00  0.00     0.106 C 
HETATM   25  O1  UNL     1      18.961   3.570  52.105  1.00  0.00    -0.284 OA
ENDBRANCH  22  23
ENDBRANCH  20  22
ENDBRANCH   1  20
TORSDOF 5
ENDMDL
