MODEL 1
REMARK VINA RESULT:     -10.1      0.000      0.000
REMARK  0 active torsions:
REMARK  status: ('A' for Active; 'I' for Inactive)
ROOT
HETATM    1  C1  UNL     1      27.890   2.077  53.681  1.00  0.00     0.050 C 
HETATM    2  C2  UNL     1      27.173   1.149  52.700  1.00  0.00     0.217 C 
HETATM    3  O1  UNL     1      26.184   0.470  53.494  1.00  0.00    -0.339 OA
HETATM    4  C3  UNL     1      24.859   0.755  53.414  1.00  0.00     0.067 C 
HETATM    5  C4  UNL     1      24.132  -0.244  53.753  1.00  0.00     0.035 C 
HETATM    6  C5  UNL     1      22.704  -0.402  53.819  1.00  0.00     0.020 C 
HETATM    7  C6  UNL     1      21.556  -0.991  54.025  1.00  0.00     0.090 C 
HETATM    8  N1  UNL     1      20.172  -0.720  53.949  1.00  0.00    -0.348 N 
HETATM    9  C7  UNL     1      19.315  -0.466  52.853  1.00  0.00     0.187 A 
HETATM   10  N2  UNL     1      19.667   0.251  51.771  1.00  0.00    -0.042 NA
HETATM   11  C8  UNL     1      18.773   0.443  50.754  1.00  0.00     0.728 A 
HETATM   12  N3  UNL     1      17.533  -0.069  50.800  1.00  0.00    -0.072 NA
HETATM   13  C9  UNL     1      17.180  -0.795  51.900  1.00  0.00     0.182 A 
HETATM   14  C10 UNL     1      18.058  -1.021  52.968  1.00  0.00     0.180 A 
HETATM   15  F1  UNL     1      17.724  -1.739  54.066  1.00  0.00    -0.200 F 
HETATM   16  N4  UNL     1      19.024   1.157  49.586  1.00  0.00    -0.198 N 
HETATM   17  C11 UNL     1      18.793   2.491  49.254  1.00  0.00     0.106 C 
HETATM   18  C12 UNL     1      18.433   3.657  48.830  1.00  0.00     0.017 C 
HETATM   19  C13 UNL     1      18.731   5.053  48.944  1.00  0.00    -0.001 C 
HETATM   20  C14 UNL     1      19.497   5.932  49.511  1.00  0.00    -0.001 C 
HETATM   21  C15 UNL     1      19.699   7.386  49.536  1.00  0.00     0.198 C 
HETATM   22  O2  UNL     1      20.984   7.730  49.118  1.00  0.00    -0.363 OA
HETATM   23  C16 UNL     1      21.964   7.178  49.903  1.00  0.00     0.340 C 
HETATM   24  O3  UNL     1      23.259   7.535  49.470  1.00  0.00    -0.343 OA
HETATM   25  C17 UNL     1      24.165   6.895  50.365  1.00  0.00     0.342 C 
HETATM   26  O4  UNL     1      23.957   5.532  50.282  1.00  0.00    -0.351 OA
HETATM   27  C18 UNL     1      24.765   4.772  51.107  1.00  0.00     0.281 C 
HETATM   28  N5  UNL     1      24.480   3.365  50.950  1.00  0.00    -0.212 NA
HETATM   29  N6  UNL     1      25.191   2.537  51.809  1.00  0.00    -0.272 N 
HETATM   30  C19 UNL     1      24.454   2.086  52.978  1.00  0.00     0.211 C 
HETATM   31  C20 UNL     1      26.523   2.059  51.720  1.00  0.00     0.263 C 
HETATM   32  O5  UNL     1      27.154   2.471  50.711  1.00  0.00    -0.269 OA
HETATM   33  H8  UNL     1      19.898  -0.756  54.953  1.00  0.00     0.167 HD
HETATM   34  H10 UNL     1      19.453   0.472  48.932  1.00  0.00     0.183 HD
HETATM   35  H23 UNL     1      23.471   3.153  50.916  1.00  0.00     0.149 HD
ENDROOT
TORSDOF 0
ENDMDL
MODEL 2
REMARK VINA RESULT:      -9.3      3.694      6.956
REMARK  0 active torsions:
REMARK  status: ('A' for Active; 'I' for Inactive)
ROOT
HETATM    1  C1  UNL     1      21.804  -2.035  54.216  1.00  0.00     0.050 C 
HETATM    2  C2  UNL     1      22.417  -0.699  54.636  1.00  0.00     0.217 C 
HETATM    3  O1  UNL     1      23.611  -0.578  53.845  1.00  0.00    -0.339 OA
HETATM    4  C3  UNL     1      23.712   0.278  52.795  1.00  0.00     0.067 C 
HETATM    5  C4  UNL     1      24.924   0.626  52.575  1.00  0.00     0.035 C 
HETATM    6  C5  UNL     1      25.498   1.501  51.588  1.00  0.00     0.020 C 
HETATM    7  C6  UNL     1      26.422   2.156  50.937  1.00  0.00     0.090 C 
HETATM    8  N1  UNL     1      26.553   3.049  49.850  1.00  0.00    -0.348 N 
HETATM    9  C7  UNL     1      26.133   4.387  49.667  1.00  0.00     0.187 A 
HETATM   10  N2  UNL     1      24.971   4.882  50.127  1.00  0.00    -0.042 NA
HETATM   11  C8  UNL     1      24.648   6.193  49.907  1.00  0.00     0.728 A 
HETATM   12  N3  UNL     1      25.466   7.017  49.233  1.00  0.00    -0.072 NA
HETATM   13  C9  UNL     1      26.645   6.509  48.767  1.00  0.00     0.182 A 
HETATM   14  C10 UNL     1      27.022   5.175  48.966  1.00  0.00     0.180 A 
HETATM   15  F1  UNL     1      28.186   4.656  48.511  1.00  0.00    -0.200 F 
HETATM   16  N4  UNL     1      23.482   6.818  50.340  1.00  0.00    -0.198 N 
HETATM   17  C11 UNL     1      22.256   7.020  49.707  1.00  0.00     0.106 C 
HETATM   18  C12 UNL     1      21.175   7.398  49.109  1.00  0.00     0.017 C 
HETATM   19  C13 UNL     1      19.925   6.918  48.603  1.00  0.00    -0.001 C 
HETATM   20  C14 UNL     1      19.172   5.872  48.451  1.00  0.00    -0.001 C 
HETATM   21  C15 UNL     1      17.863   5.511  47.893  1.00  0.00     0.198 C 
HETATM   22  O2  UNL     1      17.026   4.967  48.867  1.00  0.00    -0.363 OA
HETATM   23  C16 UNL     1      17.543   3.833  49.438  1.00  0.00     0.340 C 
HETATM   24  O3  UNL     1      16.687   3.291  50.420  1.00  0.00    -0.343 OA
HETATM   25  C17 UNL     1      17.344   2.132  50.924  1.00  0.00     0.342 C 
HETATM   26  O4  UNL     1      18.553   2.528  51.462  1.00  0.00    -0.351 OA
HETATM   27  C18 UNL     1      19.317   1.501  51.988  1.00  0.00     0.281 C 
HETATM   28  N5  UNL     1      20.555   2.007  52.530  1.00  0.00    -0.212 NA
HETATM   29  N6  UNL     1      21.418   1.027  53.000  1.00  0.00    -0.272 N 
HETATM   30  C19 UNL     1      22.496   0.669  52.093  1.00  0.00     0.211 C 
HETATM   31  C20 UNL     1      21.416   0.324  54.232  1.00  0.00     0.263 C 
HETATM   32  O5  UNL     1      20.467   0.632  55.001  1.00  0.00    -0.269 OA
HETATM   33  H8  UNL     1      27.070   2.463  49.161  1.00  0.00     0.167 HD
HETATM   34  H10 UNL     1      23.688   7.145  51.303  1.00  0.00     0.183 HD
HETATM   35  H23 UNL     1      21.015   2.702  51.921  1.00  0.00     0.149 HD
ENDROOT
TORSDOF 0
ENDMDL
MODEL 3
REMARK VINA RESULT:      -9.3      1.603      6.533
REMARK  0 active torsions:
REMARK  status: ('A' for Active; 'I' for Inactive)
ROOT
HETATM    1  C1  UNL     1      22.478   6.875  47.138  1.00  0.00     0.050 C 
HETATM    2  C2  UNL     1      21.629   6.790  48.407  1.00  0.00     0.217 C 
HETATM    3  O1  UNL     1      20.572   5.872  48.080  1.00  0.00    -0.339 OA
HETATM    4  C3  UNL     1      20.526   4.604  48.566  1.00  0.00     0.067 C 
HETATM    5  C4  UNL     1      19.328   4.153  48.615  1.00  0.00     0.035 C 
HETATM    6  C5  UNL     1      18.807   2.885  49.052  1.00  0.00     0.020 C 
HETATM    7  C6  UNL     1      17.919   1.965  49.316  1.00  0.00     0.090 C 
HETATM    8  N1  UNL     1      17.843   0.647  49.821  1.00  0.00    -0.348 N 
HETATM    9  C7  UNL     1      18.101   0.107  51.102  1.00  0.00     0.187 A 
HETATM   10  N2  UNL     1      19.095   0.518  51.908  1.00  0.00    -0.042 NA
HETATM   11  C8  UNL     1      19.268  -0.059  53.136  1.00  0.00     0.728 A 
HETATM   12  N3  UNL     1      18.464  -1.042  53.572  1.00  0.00    -0.072 NA
HETATM   13  C9  UNL     1      17.456  -1.457  52.750  1.00  0.00     0.182 A 
HETATM   14  C10 UNL     1      17.237  -0.897  51.484  1.00  0.00     0.180 A 
HETATM   15  F1  UNL     1      16.242  -1.297  50.657  1.00  0.00    -0.200 F 
HETATM   16  N4  UNL     1      20.253   0.287  54.056  1.00  0.00    -0.198 N 
HETATM   17  C11 UNL     1      21.525  -0.236  54.284  1.00  0.00     0.106 C 
HETATM   18  C12 UNL     1      22.627  -0.797  54.660  1.00  0.00     0.017 C 
HETATM   19  C13 UNL     1      23.995  -0.986  54.287  1.00  0.00    -0.001 C 
HETATM   20  C14 UNL     1      24.898  -0.722  53.393  1.00  0.00    -0.001 C 
HETATM   21  C15 UNL     1      26.316  -0.990  53.127  1.00  0.00     0.198 C 
HETATM   22  O2  UNL     1      27.053   0.192  53.044  1.00  0.00    -0.363 OA
HETATM   23  C16 UNL     1      26.610   1.024  52.048  1.00  0.00     0.340 C 
HETATM   24  O3  UNL     1      27.364   2.215  51.973  1.00  0.00    -0.343 OA
HETATM   25  C17 UNL     1      26.798   2.976  50.910  1.00  0.00     0.342 C 
HETATM   26  O4  UNL     1      25.476   3.227  51.221  1.00  0.00    -0.351 OA
HETATM   27  C18 UNL     1      24.785   3.956  50.270  1.00  0.00     0.281 C 
HETATM   28  N5  UNL     1      23.418   4.172  50.681  1.00  0.00    -0.212 NA
HETATM   29  N6  UNL     1      22.632   4.822  49.739  1.00  0.00    -0.272 N 
HETATM   30  C19 UNL     1      21.773   3.956  48.950  1.00  0.00     0.211 C 
HETATM   31  C20 UNL     1      22.533   6.204  49.432  1.00  0.00     0.263 C 
HETATM   32  O5  UNL     1      23.295   6.941  50.112  1.00  0.00    -0.269 OA
HETATM   33  H8  UNL     1      17.528   0.121  48.979  1.00  0.00     0.167 HD
HETATM   34  H10 UNL     1      19.852   1.073  54.605  1.00  0.00     0.183 HD
HETATM   35  H23 UNL     1      22.972   3.330  51.078  1.00  0.00     0.149 HD
ENDROOT
TORSDOF 0
ENDMDL
MODEL 4
REMARK VINA RESULT:      -9.1      3.386      7.065
REMARK  0 active torsions:
REMARK  status: ('A' for Active; 'I' for Inactive)
ROOT
HETATM    1  C1  UNL     1      15.183  -1.025  51.671  1.00  0.00     0.050 C 
HETATM    2  C2  UNL     1      15.920  -0.174  52.705  1.00  0.00     0.217 C 
HETATM    3  O1  UNL     1      17.047  -0.973  53.102  1.00  0.00    -0.339 OA
HETATM    4  C3  UNL     1      18.317  -0.696  52.708  1.00  0.00     0.067 C 
HETATM    5  C4  UNL     1      19.185  -1.144  53.538  1.00  0.00     0.035 C 
HETATM    6  C5  UNL     1      20.622  -1.085  53.534  1.00  0.00     0.020 C 
HETATM    7  C6  UNL     1      21.845  -1.277  53.950  1.00  0.00     0.090 C 
HETATM    8  N1  UNL     1      23.175  -1.000  53.564  1.00  0.00    -0.348 N 
HETATM    9  C7  UNL     1      23.899   0.211  53.457  1.00  0.00     0.187 A 
HETATM   10  N2  UNL     1      23.372   1.368  53.019  1.00  0.00    -0.042 NA
HETATM   11  C8  UNL     1      24.146   2.493  52.954  1.00  0.00     0.728 A 
HETATM   12  N3  UNL     1      25.438   2.483  53.317  1.00  0.00    -0.072 NA
HETATM   13  C9  UNL     1      25.969   1.305  53.761  1.00  0.00     0.182 A 
HETATM   14  C10 UNL     1      25.218   0.126  53.848  1.00  0.00     0.180 A 
HETATM   15  F1  UNL     1      25.729  -1.050  54.285  1.00  0.00    -0.200 F 
HETATM   16  N4  UNL     1      23.712   3.744  52.526  1.00  0.00    -0.198 N 
HETATM   17  C11 UNL     1      23.752   4.355  51.273  1.00  0.00     0.106 C 
HETATM   18  C12 UNL     1      23.932   5.035  50.189  1.00  0.00     0.017 C 
HETATM   19  C13 UNL     1      23.480   5.167  48.837  1.00  0.00    -0.001 C 
HETATM   20  C14 UNL     1      22.664   4.703  47.941  1.00  0.00    -0.001 C 
HETATM   21  C15 UNL     1      22.292   4.942  46.541  1.00  0.00     0.198 C 
HETATM   22  O2  UNL     1      20.944   5.279  46.422  1.00  0.00    -0.363 OA
HETATM   23  C16 UNL     1      20.109   4.299  46.895  1.00  0.00     0.340 C 
HETATM   24  O3  UNL     1      18.748   4.650  46.767  1.00  0.00    -0.343 OA
HETATM   25  C17 UNL     1      18.005   3.555  47.295  1.00  0.00     0.342 C 
HETATM   26  O4  UNL     1      18.368   3.391  48.617  1.00  0.00    -0.351 OA
HETATM   27  C18 UNL     1      17.730   2.351  49.268  1.00  0.00     0.281 C 
HETATM   28  N5  UNL     1      18.167   2.258  50.641  1.00  0.00    -0.212 NA
HETATM   29  N6  UNL     1      17.638   1.181  51.339  1.00  0.00    -0.272 N 
HETATM   30  C19 UNL     1      18.520   0.033  51.463  1.00  0.00     0.211 C 
HETATM   31  C20 UNL     1      16.369   1.030  51.958  1.00  0.00     0.263 C 
HETATM   32  O5  UNL     1      15.609   2.026  51.828  1.00  0.00    -0.269 OA
HETATM   33  H8  UNL     1      23.537  -1.956  53.363  1.00  0.00     0.167 HD
HETATM   34  H10 UNL     1      23.315   4.201  53.370  1.00  0.00     0.183 HD
HETATM   35  H23 UNL     1      19.188   2.359  50.753  1.00  0.00     0.149 HD
ENDROOT
TORSDOF 0
ENDMDL
MODEL 5
REMARK VINA RESULT:      -8.9      3.960      6.768
REMARK  0 active torsions:
REMARK  status: ('A' for Active; 'I' for Inactive)
ROOT
HETATM    1  C1  UNL     1      28.531   0.099  53.395  1.00  0.00     0.050 C 
HETATM    2  C2  UNL     1      27.916   1.479  53.634  1.00  0.00     0.217 C 
HETATM    3  O1  UNL     1      27.889   2.098  52.337  1.00  0.00    -0.339 OA
HETATM    4  C3  UNL     1      26.743   2.264  51.627  1.00  0.00     0.067 C 
HETATM    5  C4  UNL     1      26.822   3.250  50.813  1.00  0.00     0.035 C 
HETATM    6  C5  UNL     1      25.871   3.789  49.878  1.00  0.00     0.020 C 
HETATM    7  C6  UNL     1      25.390   4.581  48.957  1.00  0.00     0.090 C 
HETATM    8  N1  UNL     1      24.208   4.776  48.208  1.00  0.00    -0.348 N 
HETATM    9  C7  UNL     1      22.906   5.185  48.580  1.00  0.00     0.187 A 
HETATM   10  N2  UNL     1      22.299   4.821  49.723  1.00  0.00    -0.042 NA
HETATM   11  C8  UNL     1      21.038   5.269  50.004  1.00  0.00     0.728 A 
HETATM   12  N3  UNL     1      20.372   6.075  49.162  1.00  0.00    -0.072 NA
HETATM   13  C9  UNL     1      20.993   6.441  48.002  1.00  0.00     0.182 A 
HETATM   14  C10 UNL     1      22.283   6.010  47.668  1.00  0.00     0.180 A 
HETATM   15  F1  UNL     1      22.912   6.365  46.523  1.00  0.00    -0.200 F 
HETATM   16  N4  UNL     1      20.315   4.966  51.154  1.00  0.00    -0.198 N 
HETATM   17  C11 UNL     1      19.382   3.964  51.419  1.00  0.00     0.106 C 
HETATM   18  C12 UNL     1      18.384   3.180  51.660  1.00  0.00     0.017 C 
HETATM   19  C13 UNL     1      18.041   1.812  51.901  1.00  0.00    -0.001 C 
HETATM   20  C14 UNL     1      18.504   0.605  52.013  1.00  0.00    -0.001 C 
HETATM   21  C15 UNL     1      18.020  -0.757  52.271  1.00  0.00     0.198 C 
HETATM   22  O2  UNL     1      18.604  -1.297  53.417  1.00  0.00    -0.363 OA
HETATM   23  C16 UNL     1      19.971  -1.368  53.332  1.00  0.00     0.340 C 
HETATM   24  O3  UNL     1      20.551  -1.918  54.496  1.00  0.00    -0.343 OA
HETATM   25  C17 UNL     1      21.957  -1.929  54.271  1.00  0.00     0.342 C 
HETATM   26  O4  UNL     1      22.367  -0.626  54.064  1.00  0.00    -0.351 OA
HETATM   27  C18 UNL     1      23.720  -0.476  53.821  1.00  0.00     0.281 C 
HETATM   28  N5  UNL     1      24.055   0.914  53.621  1.00  0.00    -0.212 NA
HETATM   29  N6  UNL     1      25.383   1.140  53.285  1.00  0.00    -0.272 N 
HETATM   30  C19 UNL     1      25.632   1.352  51.869  1.00  0.00     0.211 C 
HETATM   31  C20 UNL     1      26.535   1.203  54.111  1.00  0.00     0.263 C 
HETATM   32  O5  UNL     1      26.306   1.001  55.333  1.00  0.00    -0.269 OA
HETATM   33  H8  UNL     1      24.531   4.538  47.247  1.00  0.00     0.167 HD
HETATM   34  H10 UNL     1      20.603   5.677  51.855  1.00  0.00     0.183 HD
HETATM   35  H23 UNL     1      23.386   1.412  53.013  1.00  0.00     0.149 HD
ENDROOT
TORSDOF 0
ENDMDL
MODEL 6
REMARK VINA RESULT:      -8.6      6.839     10.997
REMARK  0 active torsions:
REMARK  status: ('A' for Active; 'I' for Inactive)
ROOT
HETATM    1  C1  UNL     1      23.745   3.323  49.522  1.00  0.00     0.050 C 
HETATM    2  C2  UNL     1      24.798   4.031  50.376  1.00  0.00     0.217 C 
HETATM    3  O1  UNL     1      26.011   3.944  49.609  1.00  0.00    -0.339 OA
HETATM    4  C3  UNL     1      26.546   5.011  48.961  1.00  0.00     0.067 C 
HETATM    5  C4  UNL     1      27.812   4.892  48.806  1.00  0.00     0.035 C 
HETATM    6  C5  UNL     1      28.779   5.760  48.189  1.00  0.00     0.020 C 
HETATM    7  C6  UNL     1      29.946   6.175  47.774  1.00  0.00     0.090 C 
HETATM    8  N1  UNL     1      30.528   7.274  47.104  1.00  0.00    -0.348 N 
HETATM    9  C7  UNL     1      30.698   8.628  47.475  1.00  0.00     0.187 A 
HETATM   10  N2  UNL     1      29.794   9.339  48.170  1.00  0.00    -0.042 NA
HETATM   11  C8  UNL     1      30.045  10.645  48.490  1.00  0.00     0.728 A 
HETATM   12  N3  UNL     1      31.185  11.253  48.126  1.00  0.00    -0.072 NA
HETATM   13  C9  UNL     1      32.101  10.527  47.419  1.00  0.00     0.182 A 
HETATM   14  C10 UNL     1      31.891   9.187  47.068  1.00  0.00     0.180 A 
HETATM   15  F1  UNL     1      32.788   8.453  46.368  1.00  0.00    -0.200 F 
HETATM   16  N4  UNL     1      29.191  11.476  49.209  1.00  0.00    -0.198 N 
HETATM   17  C11 UNL     1      28.215  12.380  48.790  1.00  0.00     0.106 C 
HETATM   18  C12 UNL     1      27.439  13.358  48.458  1.00  0.00     0.017 C 
HETATM   19  C13 UNL     1      26.156  13.655  47.897  1.00  0.00    -0.001 C 
HETATM   20  C14 UNL     1      25.066  13.147  47.410  1.00  0.00    -0.001 C 
HETATM   21  C15 UNL     1      23.783  13.587  46.851  1.00  0.00     0.198 C 
HETATM   22  O2  UNL     1      22.708  13.107  47.600  1.00  0.00    -0.363 OA
HETATM   23  C16 UNL     1      22.671  11.737  47.656  1.00  0.00     0.340 C 
HETATM   24  O3  UNL     1      21.578  11.264  48.415  1.00  0.00    -0.343 OA
HETATM   25  C17 UNL     1      21.666   9.842  48.391  1.00  0.00     0.342 C 
HETATM   26  O4  UNL     1      22.874   9.479  48.953  1.00  0.00    -0.351 OA
HETATM   27  C18 UNL     1      23.108   8.116  48.993  1.00  0.00     0.281 C 
HETATM   28  N5  UNL     1      24.387   7.832  49.598  1.00  0.00    -0.212 NA
HETATM   29  N6  UNL     1      24.736   6.488  49.597  1.00  0.00    -0.272 N 
HETATM   30  C19 UNL     1      25.662   6.094  48.548  1.00  0.00     0.211 C 
HETATM   31  C20 UNL     1      24.334   5.440  50.464  1.00  0.00     0.263 C 
HETATM   32  O5  UNL     1      23.518   5.793  51.357  1.00  0.00    -0.269 OA
HETATM   33  H8  UNL     1      30.831   6.835  46.209  1.00  0.00     0.167 HD
HETATM   34  H10 UNL     1      29.417  11.303  50.208  1.00  0.00     0.183 HD
HETATM   35  H23 UNL     1      25.143   8.454  49.269  1.00  0.00     0.149 HD
ENDROOT
TORSDOF 0
ENDMDL
MODEL 7
REMARK VINA RESULT:      -8.5      3.975      9.438
REMARK  0 active torsions:
REMARK  status: ('A' for Active; 'I' for Inactive)
ROOT
HETATM    1  C1  UNL     1      14.202   3.112  49.152  1.00  0.00     0.050 C 
HETATM    2  C2  UNL     1      15.455   3.066  48.276  1.00  0.00     0.217 C 
HETATM    3  O1  UNL     1      16.100   4.332  48.493  1.00  0.00    -0.339 OA
HETATM    4  C3  UNL     1      17.232   4.461  49.232  1.00  0.00     0.067 C 
HETATM    5  C4  UNL     1      17.919   5.485  48.884  1.00  0.00     0.035 C 
HETATM    6  C5  UNL     1      19.165   6.006  49.378  1.00  0.00     0.020 C 
HETATM    7  C6  UNL     1      20.193   6.806  49.472  1.00  0.00     0.090 C 
HETATM    8  N1  UNL     1      21.378   6.961  50.226  1.00  0.00    -0.348 N 
HETATM    9  C7  UNL     1      22.562   6.191  50.300  1.00  0.00     0.187 A 
HETATM   10  N2  UNL     1      22.592   4.848  50.250  1.00  0.00    -0.042 NA
HETATM   11  C8  UNL     1      23.785   4.184  50.325  1.00  0.00     0.728 A 
HETATM   12  N3  UNL     1      24.950   4.840  50.449  1.00  0.00    -0.072 NA
HETATM   13  C9  UNL     1      24.914   6.204  50.500  1.00  0.00     0.182 A 
HETATM   14  C10 UNL     1      23.718   6.930  50.427  1.00  0.00     0.180 A 
HETATM   15  F1  UNL     1      23.666   8.282  50.476  1.00  0.00    -0.200 F 
HETATM   16  N4  UNL     1      23.941   2.802  50.276  1.00  0.00    -0.198 N 
HETATM   17  C11 UNL     1      24.019   1.847  51.290  1.00  0.00     0.106 C 
HETATM   18  C12 UNL     1      24.282   0.951  52.182  1.00  0.00     0.017 C 
HETATM   19  C13 UNL     1      23.687   0.168  53.222  1.00  0.00    -0.001 C 
HETATM   20  C14 UNL     1      22.586  -0.093  53.857  1.00  0.00    -0.001 C 
HETATM   21  C15 UNL     1      22.101  -0.952  54.944  1.00  0.00     0.198 C 
HETATM   22  O2  UNL     1      21.098  -1.816  54.503  1.00  0.00    -0.363 OA
HETATM   23  C16 UNL     1      20.008  -1.151  54.004  1.00  0.00     0.340 C 
HETATM   24  O3  UNL     1      18.999  -2.035  53.563  1.00  0.00    -0.343 OA
HETATM   25  C17 UNL     1      17.941  -1.216  53.073  1.00  0.00     0.342 C 
HETATM   26  O4  UNL     1      18.439  -0.452  52.036  1.00  0.00    -0.351 OA
HETATM   27  C18 UNL     1      17.522   0.408  51.458  1.00  0.00     0.281 C 
HETATM   28  N5  UNL     1      18.128   1.160  50.386  1.00  0.00    -0.212 NA
HETATM   29  N6  UNL     1      17.295   2.110  49.810  1.00  0.00    -0.272 N 
HETATM   30  C19 UNL     1      17.507   3.473  50.268  1.00  0.00     0.211 C 
HETATM   31  C20 UNL     1      16.272   1.958  48.839  1.00  0.00     0.263 C 
HETATM   32  O5  UNL     1      16.088   0.770  48.464  1.00  0.00    -0.269 OA
HETATM   33  H8  UNL     1      21.175   7.837  50.753  1.00  0.00     0.167 HD
HETATM   34  H10 UNL     1      24.000   2.568  49.266  1.00  0.00     0.183 HD
HETATM   35  H23 UNL     1      19.066   1.523  50.619  1.00  0.00     0.149 HD
ENDROOT
TORSDOF 0
ENDMDL
MODEL 8
REMARK VINA RESULT:      -8.1     24.928     27.560
REMARK  0 active torsions:
REMARK  status: ('A' for Active; 'I' for Inactive)
ROOT
HETATM    1  C1  UNL     1      37.714   6.597  75.314  1.00  0.00     0.050 C 
HETATM    2  C2  UNL     1      38.476   5.272  75.256  1.00  0.00     0.217 C 
HETATM    3  O1  UNL     1      37.722   4.455  74.345  1.00  0.00    -0.339 OA
HETATM    4  C3  UNL     1      38.147   4.178  73.086  1.00  0.00     0.067 C 
HETATM    5  C4  UNL     1      37.663   3.075  72.648  1.00  0.00     0.035 C 
HETATM    6  C5  UNL     1      37.833   2.394  71.393  1.00  0.00     0.020 C 
HETATM    7  C6  UNL     1      37.684   1.466  70.486  1.00  0.00     0.090 C 
HETATM    8  N1  UNL     1      38.113   1.153  69.177  1.00  0.00    -0.348 N 
HETATM    9  C7  UNL     1      39.380   0.807  68.652  1.00  0.00     0.187 A 
HETATM   10  N2  UNL     1      40.540   1.348  69.064  1.00  0.00    -0.042 NA
HETATM   11  C8  UNL     1      41.721   0.949  68.502  1.00  0.00     0.728 A 
HETATM   12  N3  UNL     1      41.764   0.019  67.535  1.00  0.00    -0.072 NA
HETATM   13  C9  UNL     1      40.583  -0.527  67.119  1.00  0.00     0.182 A 
HETATM   14  C10 UNL     1      39.347  -0.153  67.663  1.00  0.00     0.180 A 
HETATM   15  F1  UNL     1      38.168  -0.684  67.263  1.00  0.00    -0.200 F 
HETATM   16  N4  UNL     1      42.980   1.429  68.850  1.00  0.00    -0.198 N 
HETATM   17  C11 UNL     1      43.753   2.460  68.317  1.00  0.00     0.106 C 
HETATM   18  C12 UNL     1      44.583   3.272  67.749  1.00  0.00     0.017 C 
HETATM   19  C13 UNL     1      44.856   4.661  67.540  1.00  0.00    -0.001 C 
HETATM   20  C14 UNL     1      44.454   5.871  67.781  1.00  0.00    -0.001 C 
HETATM   21  C15 UNL     1      44.846   7.255  67.493  1.00  0.00     0.198 C 
HETATM   22  O2  UNL     1      45.089   7.971  68.666  1.00  0.00    -0.363 OA
HETATM   23  C16 UNL     1      43.993   8.029  69.488  1.00  0.00     0.340 C 
HETATM   24  O3  UNL     1      44.251   8.757  70.670  1.00  0.00    -0.343 OA
HETATM   25  C17 UNL     1      43.041   8.734  71.421  1.00  0.00     0.342 C 
HETATM   26  O4  UNL     1      42.732   7.415  71.691  1.00  0.00    -0.351 OA
HETATM   27  C18 UNL     1      41.568   7.229  72.414  1.00  0.00     0.281 C 
HETATM   28  N5  UNL     1      41.328   5.825  72.651  1.00  0.00    -0.212 NA
HETATM   29  N6  UNL     1      40.130   5.549  73.297  1.00  0.00    -0.272 N 
HETATM   30  C19 UNL     1      39.049   5.115  72.429  1.00  0.00     0.211 C 
HETATM   31  C20 UNL     1      39.800   5.619  74.675  1.00  0.00     0.263 C 
HETATM   32  O5  UNL     1      40.742   6.013  75.413  1.00  0.00    -0.269 OA
HETATM   33  H8  UNL     1      37.223   1.235  68.642  1.00  0.00     0.167 HD
HETATM   34  H10 UNL     1      43.288   0.840  69.648  1.00  0.00     0.183 HD
HETATM   35  H23 UNL     1      41.493   5.236  71.820  1.00  0.00     0.149 HD
ENDROOT
TORSDOF 0
ENDMDL
MODEL 9
REMARK VINA RESULT:      -7.9      4.212      6.398
REMARK  0 active torsions:
REMARK  status: ('A' for Active; 'I' for Inactive)
ROOT
HETATM    1  C1  UNL     1      29.829   8.860  47.213  1.00  0.00     0.050 C 
HETATM    2  C2  UNL     1      29.075   7.723  46.520  1.00  0.00     0.217 C 
HETATM    3  O1  UNL     1      29.023   6.670  47.498  1.00  0.00    -0.339 OA
HETATM    4  C3  UNL     1      27.885   6.345  48.164  1.00  0.00     0.067 C 
HETATM    5  C4  UNL     1      27.888   5.124  48.552  1.00  0.00     0.035 C 
HETATM    6  C5  UNL     1      26.913   4.355  49.278  1.00  0.00     0.020 C 
HETATM    7  C6  UNL     1      26.381   3.320  49.871  1.00  0.00     0.090 C 
HETATM    8  N1  UNL     1      25.206   2.956  50.566  1.00  0.00    -0.348 N 
HETATM    9  C7  UNL     1      23.861   2.822  50.148  1.00  0.00     0.187 A 
HETATM   10  N2  UNL     1      23.263   3.634  49.259  1.00  0.00    -0.042 NA
HETATM   11  C8  UNL     1      21.957   3.426  48.909  1.00  0.00     0.728 A 
HETATM   12  N3  UNL     1      21.238   2.422  49.435  1.00  0.00    -0.072 NA
HETATM   13  C9  UNL     1      21.849   1.601  50.338  1.00  0.00     0.182 A 
HETATM   14  C10 UNL     1      23.184   1.771  50.728  1.00  0.00     0.180 A 
HETATM   15  F1  UNL     1      23.805   0.965  51.622  1.00  0.00    -0.200 F 
HETATM   16  N4  UNL     1      21.237   4.193  47.998  1.00  0.00    -0.198 N 
HETATM   17  C11 UNL     1      20.400   5.294  48.178  1.00  0.00     0.106 C 
HETATM   18  C12 UNL     1      19.478   6.189  48.303  1.00  0.00     0.017 C 
HETATM   19  C13 UNL     1      19.264   7.572  48.604  1.00  0.00    -0.001 C 
HETATM   20  C14 UNL     1      19.840   8.692  48.916  1.00  0.00    -0.001 C 
HETATM   21  C15 UNL     1      19.485  10.086  49.207  1.00  0.00     0.198 C 
HETATM   22  O2  UNL     1      20.090  10.965  48.307  1.00  0.00    -0.363 OA
HETATM   23  C16 UNL     1      21.459  10.888  48.330  1.00  0.00     0.340 C 
HETATM   24  O3  UNL     1      22.058  11.783  47.417  1.00  0.00    -0.343 OA
HETATM   25  C17 UNL     1      23.465  11.595  47.545  1.00  0.00     0.342 C 
HETATM   26  O4  UNL     1      23.750  10.280  47.233  1.00  0.00    -0.351 OA
HETATM   27  C18 UNL     1      25.088   9.941  47.320  1.00  0.00     0.281 C 
HETATM   28  N5  UNL     1      25.290   8.554  46.975  1.00  0.00    -0.212 NA
HETATM   29  N6  UNL     1      26.598   8.112  47.122  1.00  0.00    -0.272 N 
HETATM   30  C19 UNL     1      26.862   7.368  48.343  1.00  0.00     0.211 C 
HETATM   31  C20 UNL     1      27.716   8.268  46.263  1.00  0.00     0.263 C 
HETATM   32  O5  UNL     1      27.476   8.928  45.217  1.00  0.00    -0.269 OA
HETATM   33  H8  UNL     1      25.575   2.792  51.526  1.00  0.00     0.167 HD
HETATM   34  H10 UNL     1      21.436   3.773  47.069  1.00  0.00     0.183 HD
HETATM   35  H23 UNL     1      24.592   7.921  47.395  1.00  0.00     0.149 HD
ENDROOT
TORSDOF 0
ENDMDL
