MODEL 1
REMARK VINA RESULT:      -7.8      0.000      0.000
REMARK  6 active torsions:
REMARK  status: ('A' for Active; 'I' for Inactive)
REMARK    1  A    between atoms: C2_2  and  N1_3 
REMARK    2  A    between atoms: C2_2  and  C12_17 
REMARK    3  A    between atoms: N1_3  and  C3_4 
REMARK    4  A    between atoms: C3_4  and  N2_5 
REMARK    5  A    between atoms: C5_9  and  C6_10 
REMARK    6  A    between atoms: C9_13  and  O1_14 
ROOT
HETATM    1  N2  UNL     1      27.489   0.551  53.797  1.00  0.00    -0.183 NA
HETATM    2  N3  UNL     1      28.744   0.564  54.386  1.00  0.00    -0.310 N 
HETATM    3  C4  UNL     1      29.138   1.935  54.139  1.00  0.00     0.214 C 
HETATM    4  N4  UNL     1      28.465   2.480  53.152  1.00  0.00    -0.257 NA
HETATM    5  C5  UNL     1      27.538   1.448  52.662  1.00  0.00     0.237 C 
HETATM    6  H8  UNL     1      29.589   0.184  54.909  1.00  0.00     0.181 HD
ENDROOT
BRANCH   1   7
HETATM    7  C3  UNL     1      27.177  -0.807  53.395  1.00  0.00     0.232 C 
BRANCH   7   8
HETATM    8  N1  UNL     1      25.930  -1.310  53.756  1.00  0.00    -0.401 N 
HETATM    9  H5  UNL     1      25.740  -2.309  53.526  1.00  0.00     0.155 HD
BRANCH   8  10
HETATM   10  C2  UNL     1      24.960  -0.633  54.483  1.00  0.00     0.107 C 
HETATM   11  C1  UNL     1      24.862  -1.299  55.888  1.00  0.00     0.037 C 
BRANCH  10  12
HETATM   12  C12 UNL     1      23.584  -0.551  54.000  1.00  0.00    -0.036 A 
HETATM   13  C13 UNL     1      23.090  -0.093  52.802  1.00  0.00     0.010 A 
HETATM   14  C14 UNL     1      21.795  -0.035  52.379  1.00  0.00     0.019 A 
HETATM   15  C15 UNL     1      20.811  -0.484  53.229  1.00  0.00     0.011 A 
HETATM   16 BR1  UNL     1      18.986  -0.429  52.695  1.00  0.00    -0.051 Br
HETATM   17  C16 UNL     1      21.165  -0.971  54.467  1.00  0.00     0.019 A 
HETATM   18  C17 UNL     1      22.503  -0.983  54.791  1.00  0.00     0.010 A 
ENDBRANCH  10  12
ENDBRANCH   8  10
ENDBRANCH   7   8
ENDBRANCH   1   7
BRANCH   5  19
HETATM   19  C6  UNL     1      26.249   2.157  52.469  1.00  0.00    -0.018 A 
HETATM   20  C7  UNL     1      25.855   2.280  51.150  1.00  0.00     0.013 A 
HETATM   21  C8  UNL     1      24.671   2.916  50.766  1.00  0.00     0.037 A 
HETATM   22  C9  UNL     1      23.861   3.444  51.774  1.00  0.00     0.065 A 
HETATM   23  C10 UNL     1      24.264   3.313  53.083  1.00  0.00     0.037 A 
HETATM   24  C11 UNL     1      25.433   2.684  53.447  1.00  0.00     0.013 A 
BRANCH  22  25
HETATM   25  O1  UNL     1      22.706   4.059  51.349  1.00  0.00    -0.361 OA
HETATM   26  H13 UNL     1      21.799   3.605  51.303  1.00  0.00     0.217 HD
ENDBRANCH  22  25
ENDBRANCH   5  19
TORSDOF 6
ENDMDL
MODEL 2
REMARK VINA RESULT:      -7.7      2.882      4.382
REMARK  6 active torsions:
REMARK  status: ('A' for Active; 'I' for Inactive)
REMARK    1  A    between atoms: C2_2  and  N1_3 
REMARK    2  A    between atoms: C2_2  and  C12_17 
REMARK    3  A    between atoms: N1_3  and  C3_4 
REMARK    4  A    between atoms: C3_4  and  N2_5 
REMARK    5  A    between atoms: C5_9  and  C6_10 
REMARK    6  A    between atoms: C9_13  and  O1_14 
ROOT
HETATM    1  N2  UNL     1      25.160   1.485  52.073  1.00  0.00    -0.183 NA
HETATM    2  N3  UNL     1      24.944   2.573  51.241  1.00  0.00    -0.310 N 
HETATM    3  C4  UNL     1      26.292   2.819  50.773  1.00  0.00     0.214 C 
HETATM    4  N4  UNL     1      27.201   2.302  51.566  1.00  0.00    -0.257 NA
HETATM    5  C5  UNL     1      26.471   1.650  52.664  1.00  0.00     0.237 C 
HETATM    6  H8  UNL     1      24.395   3.332  50.738  1.00  0.00     0.181 HD
ENDROOT
BRANCH   1   7
HETATM    7  C3  UNL     1      24.117   1.454  53.081  1.00  0.00     0.232 C 
BRANCH   7   8
HETATM    8  N1  UNL     1      23.322   0.313  53.142  1.00  0.00    -0.401 N 
HETATM    9  H5  UNL     1      23.716  -0.559  52.728  1.00  0.00     0.155 HD
BRANCH   8  10
HETATM   10  C2  UNL     1      22.100   0.208  53.792  1.00  0.00     0.107 C 
HETATM   11  C1  UNL     1      22.152  -1.052  54.709  1.00  0.00     0.037 C 
BRANCH  10  12
HETATM   12  C12 UNL     1      20.858   0.079  53.035  1.00  0.00    -0.036 A 
HETATM   13  C13 UNL     1      19.665  -0.511  53.382  1.00  0.00     0.010 A 
HETATM   14  C14 UNL     1      18.518  -0.609  52.651  1.00  0.00     0.019 A 
HETATM   15  C15 UNL     1      18.499  -0.061  51.390  1.00  0.00     0.011 A 
HETATM   16 BR1  UNL     1      16.928  -0.167  50.324  1.00  0.00    -0.051 Br
HETATM   17  C16 UNL     1      19.630   0.562  50.913  1.00  0.00     0.019 A 
HETATM   18  C17 UNL     1      20.733   0.604  51.736  1.00  0.00     0.010 A 
ENDBRANCH  10  12
ENDBRANCH   8  10
ENDBRANCH   7   8
ENDBRANCH   1   7
BRANCH   5  19
HETATM   19  C6  UNL     1      27.154   0.345  52.851  1.00  0.00    -0.018 A 
HETATM   20  C7  UNL     1      26.478  -0.736  52.317  1.00  0.00     0.013 A 
HETATM   21  C8  UNL     1      26.959  -2.046  52.391  1.00  0.00     0.037 A 
HETATM   22  C9  UNL     1      28.179  -2.254  53.037  1.00  0.00     0.065 A 
HETATM   23  C10 UNL     1      28.843  -1.169  53.563  1.00  0.00     0.037 A 
HETATM   24  C11 UNL     1      28.357   0.116  53.482  1.00  0.00     0.013 A 
BRANCH  22  25
HETATM   25  O1  UNL     1      28.614  -3.558  53.085  1.00  0.00    -0.361 OA
HETATM   26  H13 UNL     1      29.529  -3.870  52.773  1.00  0.00     0.217 HD
ENDBRANCH  22  25
ENDBRANCH   5  19
TORSDOF 6
ENDMDL
MODEL 3
REMARK VINA RESULT:      -7.7      2.885      4.718
REMARK  6 active torsions:
REMARK  status: ('A' for Active; 'I' for Inactive)
REMARK    1  A    between atoms: C2_2  and  N1_3 
REMARK    2  A    between atoms: C2_2  and  C12_17 
REMARK    3  A    between atoms: N1_3  and  C3_4 
REMARK    4  A    between atoms: C3_4  and  N2_5 
REMARK    5  A    between atoms: C5_9  and  C6_10 
REMARK    6  A    between atoms: C9_13  and  O1_14 
ROOT
HETATM    1  N2  UNL     1      23.571  -0.675  54.490  1.00  0.00    -0.183 NA
HETATM    2  N3  UNL     1      23.294  -1.363  55.661  1.00  0.00    -0.310 N 
HETATM    3  C4  UNL     1      24.581  -1.287  56.322  1.00  0.00     0.214 C 
HETATM    4  N4  UNL     1      25.562  -1.045  55.483  1.00  0.00    -0.257 NA
HETATM    5  C5  UNL     1      24.952  -0.944  54.148  1.00  0.00     0.237 C 
HETATM    6  H8  UNL     1      22.717  -1.908  56.369  1.00  0.00     0.181 HD
ENDROOT
BRANCH   1   7
HETATM    7  C3  UNL     1      22.663  -1.133  53.455  1.00  0.00     0.232 C 
BRANCH   7   8
HETATM    8  N1  UNL     1      22.083  -0.165  52.640  1.00  0.00    -0.401 N 
HETATM    9  H5  UNL     1      21.609  -0.501  51.774  1.00  0.00     0.155 HD
BRANCH   8  10
HETATM   10  C2  UNL     1      21.988   1.190  52.928  1.00  0.00     0.107 C 
HETATM   11  C1  UNL     1      20.484   1.593  52.848  1.00  0.00     0.037 C 
BRANCH  10  12
HETATM   12  C12 UNL     1      22.693   2.179  52.117  1.00  0.00    -0.036 A 
HETATM   13  C13 UNL     1      23.097   3.455  52.429  1.00  0.00     0.010 A 
HETATM   14  C14 UNL     1      23.760   4.354  51.647  1.00  0.00     0.019 A 
HETATM   15  C15 UNL     1      24.094   3.983  50.366  1.00  0.00     0.011 A 
HETATM   16 BR1  UNL     1      25.021   5.194  49.229  1.00  0.00    -0.051 Br
HETATM   17  C16 UNL     1      23.749   2.727  49.920  1.00  0.00     0.019 A 
HETATM   18  C17 UNL     1      23.080   1.900  50.794  1.00  0.00     0.010 A 
ENDBRANCH  10  12
ENDBRANCH   8  10
ENDBRANCH   7   8
ENDBRANCH   1   7
BRANCH   5  19
HETATM   19  C6  UNL     1      25.600   0.237  53.524  1.00  0.00    -0.018 A 
HETATM   20  C7  UNL     1      26.011   0.040  52.219  1.00  0.00     0.013 A 
HETATM   21  C8  UNL     1      26.641   1.032  51.463  1.00  0.00     0.037 A 
HETATM   22  C9  UNL     1      26.856   2.272  52.068  1.00  0.00     0.065 A 
HETATM   23  C10 UNL     1      26.441   2.455  53.367  1.00  0.00     0.037 A 
HETATM   24  C11 UNL     1      25.821   1.469  54.101  1.00  0.00     0.013 A 
BRANCH  22  25
HETATM   25  O1  UNL     1      27.478   3.217  51.286  1.00  0.00    -0.361 OA
HETATM   26  H13 UNL     1      27.437   4.218  51.454  1.00  0.00     0.217 HD
ENDBRANCH  22  25
ENDBRANCH   5  19
TORSDOF 6
ENDMDL
MODEL 4
REMARK VINA RESULT:      -7.5      4.088      5.785
REMARK  6 active torsions:
REMARK  status: ('A' for Active; 'I' for Inactive)
REMARK    1  A    between atoms: C2_2  and  N1_3 
REMARK    2  A    between atoms: C2_2  and  C12_17 
REMARK    3  A    between atoms: N1_3  and  C3_4 
REMARK    4  A    between atoms: C3_4  and  N2_5 
REMARK    5  A    between atoms: C5_9  and  C6_10 
REMARK    6  A    between atoms: C9_13  and  O1_14 
ROOT
HETATM    1  N2  UNL     1      22.811   2.193  50.206  1.00  0.00    -0.183 NA
HETATM    2  N3  UNL     1      21.866   1.343  49.654  1.00  0.00    -0.310 N 
HETATM    3  C4  UNL     1      22.025   1.648  48.248  1.00  0.00     0.214 C 
HETATM    4  N4  UNL     1      22.592   2.816  48.048  1.00  0.00    -0.257 NA
HETATM    5  C5  UNL     1      22.854   3.382  49.381  1.00  0.00     0.237 C 
HETATM    6  H8  UNL     1      21.100   0.605  49.633  1.00  0.00     0.181 HD
ENDROOT
BRANCH   1   7
HETATM    7  C3  UNL     1      22.423   2.500  51.570  1.00  0.00     0.232 C 
BRANCH   7   8
HETATM    8  N1  UNL     1      23.186   1.944  52.592  1.00  0.00    -0.401 N 
HETATM    9  H5  UNL     1      23.262   2.493  53.475  1.00  0.00     0.155 HD
BRANCH   8  10
HETATM   10  C2  UNL     1      23.766   0.683  52.579  1.00  0.00     0.107 C 
HETATM   11  C1  UNL     1      23.079  -0.172  53.687  1.00  0.00     0.037 C 
BRANCH  10  12
HETATM   12  C12 UNL     1      25.200   0.516  52.801  1.00  0.00    -0.036 A 
HETATM   13  C13 UNL     1      26.183   1.459  52.993  1.00  0.00     0.010 A 
HETATM   14  C14 UNL     1      27.516   1.269  53.204  1.00  0.00     0.019 A 
HETATM   15  C15 UNL     1      27.994  -0.020  53.238  1.00  0.00     0.011 A 
HETATM   16 BR1  UNL     1      29.845  -0.347  53.529  1.00  0.00    -0.051 Br
HETATM   17  C16 UNL     1      27.117  -1.066  53.060  1.00  0.00     0.019 A 
HETATM   18  C17 UNL     1      25.790  -0.759  52.854  1.00  0.00     0.010 A 
ENDBRANCH  10  12
ENDBRANCH   8  10
ENDBRANCH   7   8
ENDBRANCH   1   7
BRANCH   5  19
HETATM   19  C6  UNL     1      24.228   3.937  49.293  1.00  0.00    -0.018 A 
HETATM   20  C7  UNL     1      25.230   3.033  49.594  1.00  0.00     0.013 A 
HETATM   21  C8  UNL     1      26.587   3.366  49.567  1.00  0.00     0.037 A 
HETATM   22  C9  UNL     1      26.928   4.675  49.219  1.00  0.00     0.065 A 
HETATM   23  C10 UNL     1      25.921   5.564  48.922  1.00  0.00     0.037 A 
HETATM   24  C11 UNL     1      24.588   5.222  48.952  1.00  0.00     0.013 A 
BRANCH  22  25
HETATM   25  O1  UNL     1      28.274   4.956  49.206  1.00  0.00    -0.361 OA
HETATM   26  H13 UNL     1      28.896   4.824  49.998  1.00  0.00     0.217 HD
ENDBRANCH  22  25
ENDBRANCH   5  19
TORSDOF 6
ENDMDL
MODEL 5
REMARK VINA RESULT:      -7.4      4.046      6.669
REMARK  6 active torsions:
REMARK  status: ('A' for Active; 'I' for Inactive)
REMARK    1  A    between atoms: C2_2  and  N1_3 
REMARK    2  A    between atoms: C2_2  and  C12_17 
REMARK    3  A    between atoms: N1_3  and  C3_4 
REMARK    4  A    between atoms: C3_4  and  N2_5 
REMARK    5  A    between atoms: C5_9  and  C6_10 
REMARK    6  A    between atoms: C9_13  and  O1_14 
ROOT
HETATM    1  N2  UNL     1      20.625   2.910  52.335  1.00  0.00    -0.183 NA
HETATM    2  N3  UNL     1      19.422   3.367  51.821  1.00  0.00    -0.310 N 
HETATM    3  C4  UNL     1      18.706   2.117  51.674  1.00  0.00     0.214 C 
HETATM    4  N4  UNL     1      19.510   1.080  51.630  1.00  0.00    -0.257 NA
HETATM    5  C5  UNL     1      20.877   1.610  51.750  1.00  0.00     0.237 C 
HETATM    6  H8  UNL     1      18.706   4.072  51.473  1.00  0.00     0.181 HD
ENDROOT
BRANCH   1   7
HETATM    7  C3  UNL     1      21.668   3.861  51.999  1.00  0.00     0.232 C 
BRANCH   7   8
HETATM    8  N1  UNL     1      22.917   3.673  52.584  1.00  0.00    -0.401 N 
HETATM    9  H5  UNL     1      22.932   3.477  53.608  1.00  0.00     0.155 HD
BRANCH   8  10
HETATM   10  C2  UNL     1      24.130   3.621  51.911  1.00  0.00     0.107 C 
HETATM   11  C1  UNL     1      23.830   3.408  50.396  1.00  0.00     0.037 C 
BRANCH  10  12
HETATM   12  C12 UNL     1      25.131   2.612  52.249  1.00  0.00    -0.036 A 
HETATM   13  C13 UNL     1      25.880   1.799  51.432  1.00  0.00     0.010 A 
HETATM   14  C14 UNL     1      26.813   0.868  51.780  1.00  0.00     0.019 A 
HETATM   15  C15 UNL     1      27.078   0.678  53.116  1.00  0.00     0.011 A 
HETATM   16 BR1  UNL     1      28.370  -0.607  53.663  1.00  0.00    -0.051 Br
HETATM   17  C16 UNL     1      26.398   1.428  54.048  1.00  0.00     0.019 A 
HETATM   18  C17 UNL     1      25.476   2.340  53.585  1.00  0.00     0.010 A 
ENDBRANCH  10  12
ENDBRANCH   8  10
ENDBRANCH   7   8
ENDBRANCH   1   7
BRANCH   5  19
HETATM   19  C6  UNL     1      21.553   0.701  52.708  1.00  0.00    -0.018 A 
HETATM   20  C7  UNL     1      20.870   0.510  53.895  1.00  0.00     0.013 A 
HETATM   21  C8  UNL     1      21.344  -0.310  54.922  1.00  0.00     0.037 A 
HETATM   22  C9  UNL     1      22.564  -0.960  54.723  1.00  0.00     0.065 A 
HETATM   23  C10 UNL     1      23.233  -0.763  53.537  1.00  0.00     0.037 A 
HETATM   24  C11 UNL     1      22.754   0.049  52.534  1.00  0.00     0.013 A 
BRANCH  22  25
HETATM   25  O1  UNL     1      22.991  -1.757  55.760  1.00  0.00    -0.361 OA
HETATM   26  H13 UNL     1      23.707  -2.472  55.676  1.00  0.00     0.217 HD
ENDBRANCH  22  25
ENDBRANCH   5  19
TORSDOF 6
ENDMDL
MODEL 6
REMARK VINA RESULT:      -7.3      2.375      4.533
REMARK  6 active torsions:
REMARK  status: ('A' for Active; 'I' for Inactive)
REMARK    1  A    between atoms: C2_2  and  N1_3 
REMARK    2  A    between atoms: C2_2  and  C12_17 
REMARK    3  A    between atoms: N1_3  and  C3_4 
REMARK    4  A    between atoms: C3_4  and  N2_5 
REMARK    5  A    between atoms: C5_9  and  C6_10 
REMARK    6  A    between atoms: C9_13  and  O1_14 
ROOT
HETATM    1  N2  UNL     1      25.575   1.105  52.846  1.00  0.00    -0.183 NA
HETATM    2  N3  UNL     1      26.668   1.025  51.996  1.00  0.00    -0.310 N 
HETATM    3  C4  UNL     1      26.856  -0.410  51.943  1.00  0.00     0.214 C 
HETATM    4  N4  UNL     1      26.305  -1.027  52.963  1.00  0.00    -0.257 NA
HETATM    5  C5  UNL     1      25.688   0.018  53.795  1.00  0.00     0.237 C 
HETATM    6  H8  UNL     1      27.447   1.371  51.361  1.00  0.00     0.181 HD
ENDROOT
BRANCH   1   7
HETATM    7  C3  UNL     1      25.591   2.397  53.505  1.00  0.00     0.232 C 
BRANCH   7   8
HETATM    8  N1  UNL     1      24.548   3.273  53.218  1.00  0.00    -0.401 N 
HETATM    9  H5  UNL     1      24.253   3.920  53.981  1.00  0.00     0.155 HD
BRANCH   8  10
HETATM   10  C2  UNL     1      23.938   3.434  51.982  1.00  0.00     0.107 C 
HETATM   11  C1  UNL     1      23.706   4.959  51.756  1.00  0.00     0.037 C 
BRANCH  10  12
HETATM   12  C12 UNL     1      22.652   2.804  51.695  1.00  0.00    -0.036 A 
HETATM   13  C13 UNL     1      21.452   2.895  52.360  1.00  0.00     0.010 A 
HETATM   14  C14 UNL     1      20.264   2.296  52.061  1.00  0.00     0.019 A 
HETATM   15  C15 UNL     1      20.204   1.482  50.955  1.00  0.00     0.011 A 
HETATM   16 BR1  UNL     1      18.574   0.620  50.488  1.00  0.00    -0.051 Br
HETATM   17  C16 UNL     1      21.337   1.300  50.194  1.00  0.00     0.019 A 
HETATM   18  C17 UNL     1      22.483   1.953  50.587  1.00  0.00     0.010 A 
ENDBRANCH  10  12
ENDBRANCH   8  10
ENDBRANCH   7   8
ENDBRANCH   1   7
BRANCH   5  19
HETATM   19  C6  UNL     1      24.357  -0.527  54.162  1.00  0.00    -0.018 A 
HETATM   20  C7  UNL     1      23.381  -0.351  53.199  1.00  0.00     0.013 A 
HETATM   21  C8  UNL     1      22.066  -0.794  53.359  1.00  0.00     0.037 A 
HETATM   22  C9  UNL     1      21.740  -1.443  54.553  1.00  0.00     0.065 A 
HETATM   23  C10 UNL     1      22.721  -1.612  55.503  1.00  0.00     0.037 A 
HETATM   24  C11 UNL     1      24.013  -1.170  55.331  1.00  0.00     0.013 A 
BRANCH  22  25
HETATM   25  O1  UNL     1      20.435  -1.862  54.666  1.00  0.00    -0.361 OA
HETATM   26  H13 UNL     1      20.134  -2.829  54.584  1.00  0.00     0.217 HD
ENDBRANCH  22  25
ENDBRANCH   5  19
TORSDOF 6
ENDMDL
MODEL 7
REMARK VINA RESULT:      -7.3      4.021      6.925
REMARK  6 active torsions:
REMARK  status: ('A' for Active; 'I' for Inactive)
REMARK    1  A    between atoms: C2_2  and  N1_3 
REMARK    2  A    between atoms: C2_2  and  C12_17 
REMARK    3  A    between atoms: N1_3  and  C3_4 
REMARK    4  A    between atoms: C3_4  and  N2_5 
REMARK    5  A    between atoms: C5_9  and  C6_10 
REMARK    6  A    between atoms: C9_13  and  O1_14 
ROOT
HETATM    1  N2  UNL     1      25.648   0.550  52.236  1.00  0.00    -0.183 NA
HETATM    2  N3  UNL     1      26.936   0.069  52.053  1.00  0.00    -0.310 N 
HETATM    3  C4  UNL     1      26.862  -1.171  52.795  1.00  0.00     0.214 C 
HETATM    4  N4  UNL     1      25.882  -1.176  53.670  1.00  0.00    -0.257 NA
HETATM    5  C5  UNL     1      25.215   0.130  53.552  1.00  0.00     0.237 C 
HETATM    6  H8  UNL     1      27.939   0.054  51.700  1.00  0.00     0.181 HD
ENDROOT
BRANCH   1   7
HETATM    7  C3  UNL     1      25.668   1.995  52.113  1.00  0.00     0.232 C 
BRANCH   7   8
HETATM    8  N1  UNL     1      25.832   2.526  50.837  1.00  0.00    -0.401 N 
HETATM    9  H5  UNL     1      26.389   1.962  50.161  1.00  0.00     0.155 HD
BRANCH   8  10
HETATM   10  C2  UNL     1      25.236   3.684  50.356  1.00  0.00     0.107 C 
HETATM   11  C1  UNL     1      24.098   3.266  49.376  1.00  0.00     0.037 C 
BRANCH  10  12
HETATM   12  C12 UNL     1      26.018   4.682  49.631  1.00  0.00    -0.036 A 
HETATM   13  C13 UNL     1      25.735   5.998  49.352  1.00  0.00     0.010 A 
HETATM   14  C14 UNL     1      26.492   6.908  48.675  1.00  0.00     0.019 A 
HETATM   15  C15 UNL     1      27.712   6.505  48.184  1.00  0.00     0.011 A 
HETATM   16 BR1  UNL     1      28.813   7.730  47.232  1.00  0.00    -0.051 Br
HETATM   17  C16 UNL     1      28.123   5.208  48.392  1.00  0.00     0.019 A 
HETATM   18  C17 UNL     1      27.279   4.374  49.089  1.00  0.00     0.010 A 
ENDBRANCH  10  12
ENDBRANCH   8  10
ENDBRANCH   7   8
ENDBRANCH   1   7
BRANCH   5  19
HETATM   19  C6  UNL     1      23.765  -0.182  53.576  1.00  0.00    -0.018 A 
HETATM   20  C7  UNL     1      23.369  -0.984  54.631  1.00  0.00     0.013 A 
HETATM   21  C8  UNL     1      22.045  -1.387  54.825  1.00  0.00     0.037 A 
HETATM   22  C9  UNL     1      21.091  -0.950  53.903  1.00  0.00     0.065 A 
HETATM   23  C10 UNL     1      21.498  -0.151  52.859  1.00  0.00     0.037 A 
HETATM   24  C11 UNL     1      22.806   0.238  52.680  1.00  0.00     0.013 A 
BRANCH  22  25
HETATM   25  O1  UNL     1      19.802  -1.370  54.135  1.00  0.00    -0.361 OA
HETATM   26  H13 UNL     1      19.325  -1.291  55.028  1.00  0.00     0.217 HD
ENDBRANCH  22  25
ENDBRANCH   5  19
TORSDOF 6
ENDMDL
MODEL 8
REMARK VINA RESULT:      -7.3      1.736      2.479
REMARK  6 active torsions:
REMARK  status: ('A' for Active; 'I' for Inactive)
REMARK    1  A    between atoms: C2_2  and  N1_3 
REMARK    2  A    between atoms: C2_2  and  C12_17 
REMARK    3  A    between atoms: N1_3  and  C3_4 
REMARK    4  A    between atoms: C3_4  and  N2_5 
REMARK    5  A    between atoms: C5_9  and  C6_10 
REMARK    6  A    between atoms: C9_13  and  O1_14 
ROOT
HETATM    1  N2  UNL     1      25.742   0.192  54.267  1.00  0.00    -0.183 NA
HETATM    2  N3  UNL     1      26.977  -0.321  54.631  1.00  0.00    -0.310 N 
HETATM    3  C4  UNL     1      27.842   0.403  53.723  1.00  0.00     0.214 C 
HETATM    4  N4  UNL     1      27.196   0.872  52.681  1.00  0.00    -0.257 NA
HETATM    5  C5  UNL     1      25.792   0.465  52.846  1.00  0.00     0.237 C 
HETATM    6  H8  UNL     1      27.675  -0.917  55.169  1.00  0.00     0.181 HD
ENDROOT
BRANCH   1   7
HETATM    7  C3  UNL     1      24.718  -0.783  54.591  1.00  0.00     0.232 C 
BRANCH   7   8
HETATM    8  N1  UNL     1      23.606  -0.843  53.755  1.00  0.00    -0.401 N 
HETATM    9  H5  UNL     1      23.716  -1.372  52.863  1.00  0.00     0.155 HD
BRANCH   8  10
HETATM   10  C2  UNL     1      22.341  -0.353  54.048  1.00  0.00     0.107 C 
HETATM   11  C1  UNL     1      21.427  -1.565  54.400  1.00  0.00     0.037 C 
BRANCH  10  12
HETATM   12  C12 UNL     1      21.591   0.420  53.062  1.00  0.00    -0.036 A 
HETATM   13  C13 UNL     1      20.859   1.574  53.211  1.00  0.00     0.010 A 
HETATM   14  C14 UNL     1      20.172   2.276  52.265  1.00  0.00     0.019 A 
HETATM   15  C15 UNL     1      20.180   1.808  50.972  1.00  0.00     0.011 A 
HETATM   16 BR1  UNL     1      19.240   2.745  49.609  1.00  0.00    -0.051 Br
HETATM   17  C16 UNL     1      20.877   0.657  50.679  1.00  0.00     0.019 A 
HETATM   18  C17 UNL     1      21.535   0.028  51.712  1.00  0.00     0.010 A 
ENDBRANCH  10  12
ENDBRANCH   8  10
ENDBRANCH   7   8
ENDBRANCH   1   7
BRANCH   5  19
HETATM   19  C6  UNL     1      25.003   1.671  52.493  1.00  0.00    -0.018 A 
HETATM   20  C7  UNL     1      24.634   1.744  51.163  1.00  0.00     0.013 A 
HETATM   21  C8  UNL     1      23.889   2.804  50.637  1.00  0.00     0.037 A 
HETATM   22  C9  UNL     1      23.508   3.825  51.510  1.00  0.00     0.065 A 
HETATM   23  C10 UNL     1      23.881   3.739  52.832  1.00  0.00     0.037 A 
HETATM   24  C11 UNL     1      24.615   2.690  53.336  1.00  0.00     0.013 A 
BRANCH  22  25
HETATM   25  O1  UNL     1      22.776   4.846  50.950  1.00  0.00    -0.361 OA
HETATM   26  H13 UNL     1      22.796   5.092  49.964  1.00  0.00     0.217 HD
ENDBRANCH  22  25
ENDBRANCH   5  19
TORSDOF 6
ENDMDL
MODEL 9
REMARK VINA RESULT:      -7.2      4.140      6.948
REMARK  6 active torsions:
REMARK  status: ('A' for Active; 'I' for Inactive)
REMARK    1  A    between atoms: C2_2  and  N1_3 
REMARK    2  A    between atoms: C2_2  and  C12_17 
REMARK    3  A    between atoms: N1_3  and  C3_4 
REMARK    4  A    between atoms: C3_4  and  N2_5 
REMARK    5  A    between atoms: C5_9  and  C6_10 
REMARK    6  A    between atoms: C9_13  and  O1_14 
ROOT
HETATM    1  N2  UNL     1      23.441   1.121  52.820  1.00  0.00    -0.183 NA
HETATM    2  N3  UNL     1      22.124   1.075  53.248  1.00  0.00    -0.310 N 
HETATM    3  C4  UNL     1      22.176  -0.066  54.139  1.00  0.00     0.214 C 
HETATM    4  N4  UNL     1      23.200  -0.849  53.892  1.00  0.00    -0.257 NA
HETATM    5  C5  UNL     1      23.923  -0.243  52.764  1.00  0.00     0.237 C 
HETATM    6  H8  UNL     1      21.104   1.366  53.324  1.00  0.00     0.181 HD
ENDROOT
BRANCH   1   7
HETATM    7  C3  UNL     1      23.487   1.760  51.519  1.00  0.00     0.232 C 
BRANCH   7   8
HETATM    8  N1  UNL     1      24.383   2.813  51.355  1.00  0.00    -0.401 N 
HETATM    9  H5  UNL     1      24.286   3.620  52.007  1.00  0.00     0.155 HD
BRANCH   8  10
HETATM   10  C2  UNL     1      25.454   2.838  50.472  1.00  0.00     0.107 C 
HETATM   11  C1  UNL     1      26.736   2.435  51.262  1.00  0.00     0.037 C 
BRANCH  10  12
HETATM   12  C12 UNL     1      25.811   4.064  49.763  1.00  0.00    -0.036 A 
HETATM   13  C13 UNL     1      25.067   5.194  49.517  1.00  0.00     0.010 A 
HETATM   14  C14 UNL     1      25.433   6.328  48.854  1.00  0.00     0.019 A 
HETATM   15  C15 UNL     1      26.708   6.402  48.343  1.00  0.00     0.011 A 
HETATM   16 BR1  UNL     1      27.276   7.959  47.409  1.00  0.00    -0.051 Br
HETATM   17  C16 UNL     1      27.563   5.337  48.517  1.00  0.00     0.019 A 
HETATM   18  C17 UNL     1      27.089   4.242  49.202  1.00  0.00     0.010 A 
ENDBRANCH  10  12
ENDBRANCH   8  10
ENDBRANCH   7   8
ENDBRANCH   1   7
BRANCH   5  19
HETATM   19  C6  UNL     1      25.356  -0.332  53.141  1.00  0.00    -0.018 A 
HETATM   20  C7  UNL     1      25.711   0.445  54.228  1.00  0.00     0.013 A 
HETATM   21  C8  UNL     1      27.013   0.495  54.734  1.00  0.00     0.037 A 
HETATM   22  C9  UNL     1      27.986  -0.281  54.100  1.00  0.00     0.065 A 
HETATM   23  C10 UNL     1      27.619  -1.050  53.020  1.00  0.00     0.037 A 
HETATM   24  C11 UNL     1      26.333  -1.091  52.533  1.00  0.00     0.013 A 
BRANCH  22  25
HETATM   25  O1  UNL     1      29.252  -0.200  54.633  1.00  0.00    -0.361 OA
HETATM   26  H13 UNL     1      29.451  -0.054  55.618  1.00  0.00     0.217 HD
ENDBRANCH  22  25
ENDBRANCH   5  19
TORSDOF 6
ENDMDL
