MODEL 1
REMARK VINA RESULT:      -7.7      0.000      0.000
REMARK  4 active torsions:
REMARK  status: ('A' for Active; 'I' for Inactive)
REMARK    1  A    between atoms: O1_2  and  C2_3 
REMARK    2  A    between atoms: C7_9  and  N2_10 
REMARK    3  A    between atoms: N2_10  and  C8_11 
REMARK    4  A    between atoms: C16_20  and  O2_21 
ROOT
HETATM    1  C2  UNL     1      19.661  -0.075  52.373  1.00  0.00     0.103 A 
HETATM    2  C3  UNL     1      20.063  -0.695  53.534  1.00  0.00     0.072 A 
HETATM    3  C4  UNL     1      21.394  -0.749  53.878  1.00  0.00     0.071 A 
HETATM    4  N1  UNL     1      21.643  -1.394  55.054  1.00  0.00    -0.260 NA
HETATM    5  C5  UNL     1      22.913  -1.517  55.509  1.00  0.00     0.119 A 
HETATM    6  C6  UNL     1      23.882  -0.952  54.703  1.00  0.00     0.049 A 
HETATM    7  C7  UNL     1      23.702  -0.293  53.514  1.00  0.00     0.046 A 
HETATM    8  C14 UNL     1      22.405  -0.199  53.105  1.00  0.00     0.022 A 
HETATM    9  C15 UNL     1      21.953   0.405  51.964  1.00  0.00     0.055 A 
HETATM   10  C16 UNL     1      20.633   0.487  51.572  1.00  0.00     0.102 A 
ENDROOT
BRANCH   7  11
HETATM   11  N2  UNL     1      24.695   0.283  52.726  1.00  0.00    -0.355 N 
HETATM   12  H7  UNL     1      24.568   0.527  51.745  1.00  0.00     0.166 HD
BRANCH  11  13
HETATM   13  C8  UNL     1      26.036   0.677  52.983  1.00  0.00     0.033 A 
HETATM   14  C9  UNL     1      26.505   1.960  53.193  1.00  0.00     0.029 A 
HETATM   15  C10 UNL     1      27.808   2.290  53.458  1.00  0.00     0.004 A 
HETATM   16  C11 UNL     1      28.755   1.295  53.530  1.00  0.00     0.019 A 
HETATM   17  C12 UNL     1      28.352  -0.005  53.330  1.00  0.00     0.013 A 
HETATM   18 BR1  UNL     1      29.735  -1.311  53.450  1.00  0.00    -0.051 Br
HETATM   19  C13 UNL     1      27.034  -0.299  53.066  1.00  0.00     0.048 A 
ENDBRANCH  11  13
ENDBRANCH   7  11
BRANCH  10  20
HETATM   20  O2  UNL     1      20.231   1.109  50.406  1.00  0.00    -0.353 OA
HETATM   21  C17 UNL     1      20.467   2.498  50.248  1.00  0.00     0.210 C 
ENDBRANCH  10  20
BRANCH   1  22
HETATM   22  O1  UNL     1      18.334  -0.008  52.006  1.00  0.00    -0.353 OA
HETATM   23  C1  UNL     1      17.412  -0.903  52.639  1.00  0.00     0.210 C 
ENDBRANCH   1  22
TORSDOF 4
ENDMDL
MODEL 2
REMARK VINA RESULT:      -7.6      4.103      7.549
REMARK  4 active torsions:
REMARK  status: ('A' for Active; 'I' for Inactive)
REMARK    1  A    between atoms: O1_2  and  C2_3 
REMARK    2  A    between atoms: C7_9  and  N2_10 
REMARK    3  A    between atoms: N2_10  and  C8_11 
REMARK    4  A    between atoms: C16_20  and  O2_21 
ROOT
HETATM    1  C2  UNL     1      26.410   1.121  54.019  1.00  0.00     0.103 A 
HETATM    2  C3  UNL     1      25.875   2.375  53.836  1.00  0.00     0.072 A 
HETATM    3  C4  UNL     1      24.659   2.536  53.212  1.00  0.00     0.071 A 
HETATM    4  N1  UNL     1      24.254   3.835  53.101  1.00  0.00    -0.260 NA
HETATM    5  C5  UNL     1      23.074   4.133  52.507  1.00  0.00     0.119 A 
HETATM    6  C6  UNL     1      22.356   3.045  52.049  1.00  0.00     0.049 A 
HETATM    7  C7  UNL     1      22.703   1.720  52.127  1.00  0.00     0.046 A 
HETATM    8  C14 UNL     1      23.899   1.479  52.734  1.00  0.00     0.022 A 
HETATM    9  C15 UNL     1      24.476   0.256  52.941  1.00  0.00     0.055 A 
HETATM   10  C16 UNL     1      25.689   0.039  53.559  1.00  0.00     0.102 A 
ENDROOT
BRANCH   7  11
HETATM   11  N2  UNL     1      21.955   0.639  51.672  1.00  0.00    -0.355 N 
HETATM   12  H7  UNL     1      22.291  -0.031  50.981  1.00  0.00     0.166 HD
BRANCH  11  13
HETATM   13  C8  UNL     1      20.651   0.160  51.973  1.00  0.00     0.033 A 
HETATM   14  C9  UNL     1      20.233  -0.453  53.139  1.00  0.00     0.029 A 
HETATM   15  C10 UNL     1      18.956  -0.880  53.392  1.00  0.00     0.004 A 
HETATM   16  C11 UNL     1      17.983  -0.703  52.436  1.00  0.00     0.019 A 
HETATM   17  C12 UNL     1      18.335  -0.098  51.252  1.00  0.00     0.013 A 
HETATM   18 BR1  UNL     1      16.919   0.102  49.992  1.00  0.00    -0.051 Br
HETATM   19  C13 UNL     1      19.627   0.318  51.032  1.00  0.00     0.048 A 
ENDBRANCH  11  13
ENDBRANCH   7  11
BRANCH  10  20
HETATM   20  O2  UNL     1      26.226  -1.221  53.743  1.00  0.00    -0.353 OA
HETATM   21  C17 UNL     1      26.865  -1.865  52.653  1.00  0.00     0.210 C 
ENDBRANCH  10  20
BRANCH   1  22
HETATM   22  O1  UNL     1      27.626   0.933  54.640  1.00  0.00    -0.353 OA
HETATM   23  C1  UNL     1      28.804   1.403  53.974  1.00  0.00     0.210 C 
ENDBRANCH   1  22
TORSDOF 4
ENDMDL
MODEL 3
REMARK VINA RESULT:      -7.6      4.361      6.613
REMARK  4 active torsions:
REMARK  status: ('A' for Active; 'I' for Inactive)
REMARK    1  A    between atoms: O1_2  and  C2_3 
REMARK    2  A    between atoms: C7_9  and  N2_10 
REMARK    3  A    between atoms: N2_10  and  C8_11 
REMARK    4  A    between atoms: C16_20  and  O2_21 
ROOT
HETATM    1  C2  UNL     1      26.656   0.171  54.305  1.00  0.00     0.103 A 
HETATM    2  C3  UNL     1      25.545  -0.597  54.041  1.00  0.00     0.072 A 
HETATM    3  C4  UNL     1      24.407  -0.029  53.517  1.00  0.00     0.071 A 
HETATM    4  N1  UNL     1      23.386  -0.911  53.308  1.00  0.00    -0.260 NA
HETATM    5  C5  UNL     1      22.208  -0.482  52.795  1.00  0.00     0.119 A 
HETATM    6  C6  UNL     1      22.146   0.871  52.519  1.00  0.00     0.049 A 
HETATM    7  C7  UNL     1      23.129   1.809  52.704  1.00  0.00     0.046 A 
HETATM    8  C14 UNL     1      24.292   1.321  53.222  1.00  0.00     0.022 A 
HETATM    9  C15 UNL     1      25.422   2.039  53.503  1.00  0.00     0.055 A 
HETATM   10  C16 UNL     1      26.588   1.521  54.027  1.00  0.00     0.102 A 
ENDROOT
BRANCH   7  11
HETATM   11  N2  UNL     1      23.049   3.165  52.403  1.00  0.00    -0.355 N 
HETATM   12  H7  UNL     1      22.691   3.868  53.048  1.00  0.00     0.166 HD
BRANCH  11  13
HETATM   13  C8  UNL     1      23.393   3.930  51.256  1.00  0.00     0.033 A 
HETATM   14  C9  UNL     1      23.594   3.466  49.970  1.00  0.00     0.029 A 
HETATM   15  C10 UNL     1      23.905   4.248  48.889  1.00  0.00     0.004 A 
HETATM   16  C11 UNL     1      24.036   5.608  49.054  1.00  0.00     0.019 A 
HETATM   17  C12 UNL     1      23.848   6.133  50.311  1.00  0.00     0.013 A 
HETATM   18 BR1  UNL     1      24.051   8.023  50.439  1.00  0.00    -0.051 Br
HETATM   19  C13 UNL     1      23.537   5.317  51.374  1.00  0.00     0.048 A 
ENDBRANCH  11  13
ENDBRANCH   7  11
BRANCH  10  20
HETATM   20  O2  UNL     1      27.703   2.293  54.292  1.00  0.00    -0.353 OA
HETATM   21  C17 UNL     1      28.616   2.570  53.244  1.00  0.00     0.210 C 
ENDBRANCH  10  20
BRANCH   1  22
HETATM   22  O1  UNL     1      27.808  -0.373  54.830  1.00  0.00    -0.353 OA
HETATM   23  C1  UNL     1      28.772  -0.920  53.923  1.00  0.00     0.210 C 
ENDBRANCH   1  22
TORSDOF 4
ENDMDL
MODEL 4
REMARK VINA RESULT:      -7.5      3.940      7.468
REMARK  4 active torsions:
REMARK  status: ('A' for Active; 'I' for Inactive)
REMARK    1  A    between atoms: O1_2  and  C2_3 
REMARK    2  A    between atoms: C7_9  and  N2_10 
REMARK    3  A    between atoms: N2_10  and  C8_11 
REMARK    4  A    between atoms: C16_20  and  O2_21 
ROOT
HETATM    1  C2  UNL     1      27.386   0.179  53.893  1.00  0.00     0.103 A 
HETATM    2  C3  UNL     1      27.670   1.056  52.871  1.00  0.00     0.072 A 
HETATM    3  C4  UNL     1      26.661   1.727  52.220  1.00  0.00     0.071 A 
HETATM    4  N1  UNL     1      27.091   2.563  51.230  1.00  0.00    -0.260 NA
HETATM    5  C5  UNL     1      26.199   3.283  50.510  1.00  0.00     0.119 A 
HETATM    6  C6  UNL     1      24.875   3.097  50.860  1.00  0.00     0.049 A 
HETATM    7  C7  UNL     1      24.376   2.277  51.839  1.00  0.00     0.046 A 
HETATM    8  C14 UNL     1      25.318   1.577  52.531  1.00  0.00     0.022 A 
HETATM    9  C15 UNL     1      25.090   0.695  53.552  1.00  0.00     0.055 A 
HETATM   10  C16 UNL     1      26.063  -0.002  54.238  1.00  0.00     0.102 A 
ENDROOT
BRANCH   7  11
HETATM   11  N2  UNL     1      23.037   2.119  52.185  1.00  0.00    -0.355 N 
HETATM   12  H7  UNL     1      22.658   2.351  53.102  1.00  0.00     0.166 HD
BRANCH  11  13
HETATM   13  C8  UNL     1      21.897   1.648  51.478  1.00  0.00     0.033 A 
HETATM   14  C9  UNL     1      21.642   1.770  50.126  1.00  0.00     0.029 A 
HETATM   15  C10 UNL     1      20.535   1.280  49.484  1.00  0.00     0.004 A 
HETATM   16  C11 UNL     1      19.578   0.608  50.208  1.00  0.00     0.019 A 
HETATM   17  C12 UNL     1      19.773   0.452  51.561  1.00  0.00     0.013 A 
HETATM   18 BR1  UNL     1      18.393  -0.492  52.475  1.00  0.00    -0.051 Br
HETATM   19  C13 UNL     1      20.897   0.958  52.171  1.00  0.00     0.048 A 
ENDBRANCH  11  13
ENDBRANCH   7  11
BRANCH  10  20
HETATM   20  O2  UNL     1      25.777  -0.883  55.263  1.00  0.00    -0.353 OA
HETATM   21  C17 UNL     1      24.432  -1.275  55.482  1.00  0.00     0.210 C 
ENDBRANCH  10  20
BRANCH   1  22
HETATM   22  O1  UNL     1      28.378  -0.505  54.560  1.00  0.00    -0.353 OA
HETATM   23  C1  UNL     1      29.564  -0.854  53.836  1.00  0.00     0.210 C 
ENDBRANCH   1  22
TORSDOF 4
ENDMDL
MODEL 5
REMARK VINA RESULT:      -7.5      3.947      6.930
REMARK  4 active torsions:
REMARK  status: ('A' for Active; 'I' for Inactive)
REMARK    1  A    between atoms: O1_2  and  C2_3 
REMARK    2  A    between atoms: C7_9  and  N2_10 
REMARK    3  A    between atoms: N2_10  and  C8_11 
REMARK    4  A    between atoms: C16_20  and  O2_21 
ROOT
HETATM    1  C2  UNL     1      27.337   0.711  53.574  1.00  0.00     0.103 A 
HETATM    2  C3  UNL     1      26.726   0.001  54.583  1.00  0.00     0.072 A 
HETATM    3  C4  UNL     1      25.396  -0.341  54.496  1.00  0.00     0.071 A 
HETATM    4  N1  UNL     1      24.927  -1.044  55.568  1.00  0.00    -0.260 NA
HETATM    5  C5  UNL     1      23.634  -1.443  55.609  1.00  0.00     0.119 A 
HETATM    6  C6  UNL     1      22.874  -1.086  54.512  1.00  0.00     0.049 A 
HETATM    7  C7  UNL     1      23.280  -0.384  53.406  1.00  0.00     0.046 A 
HETATM    8  C14 UNL     1      24.590  -0.008  53.418  1.00  0.00     0.022 A 
HETATM    9  C15 UNL     1      25.244   0.696  52.445  1.00  0.00     0.055 A 
HETATM   10  C16 UNL     1      26.573   1.064  52.481  1.00  0.00     0.102 A 
ENDROOT
BRANCH   7  11
HETATM   11  N2  UNL     1      22.499  -0.050  52.303  1.00  0.00    -0.355 N 
HETATM   12  H7  UNL     1      22.673  -0.397  51.361  1.00  0.00     0.166 HD
BRANCH  11  13
HETATM   13  C8  UNL     1      21.351   0.771  52.135  1.00  0.00     0.033 A 
HETATM   14  C9  UNL     1      21.202   2.090  52.515  1.00  0.00     0.029 A 
HETATM   15  C10 UNL     1      20.080   2.848  52.312  1.00  0.00     0.004 A 
HETATM   16  C11 UNL     1      18.992   2.289  51.682  1.00  0.00     0.019 A 
HETATM   17  C12 UNL     1      19.077   0.977  51.278  1.00  0.00     0.013 A 
HETATM   18 BR1  UNL     1      17.521   0.293  50.415  1.00  0.00    -0.051 Br
HETATM   19  C13 UNL     1      20.220   0.246  51.499  1.00  0.00     0.048 A 
ENDBRANCH  11  13
ENDBRANCH   7  11
BRANCH  10  20
HETATM   20  O2  UNL     1      27.185   1.777  51.469  1.00  0.00    -0.353 OA
HETATM   21  C17 UNL     1      26.492   2.858  50.869  1.00  0.00     0.210 C 
ENDBRANCH  10  20
BRANCH   1  22
HETATM   22  O1  UNL     1      28.666   1.066  53.638  1.00  0.00    -0.353 OA
HETATM   23  C1  UNL     1      29.645   0.020  53.669  1.00  0.00     0.210 C 
ENDBRANCH   1  22
TORSDOF 4
ENDMDL
MODEL 6
REMARK VINA RESULT:      -7.5      3.680      6.627
REMARK  4 active torsions:
REMARK  status: ('A' for Active; 'I' for Inactive)
REMARK    1  A    between atoms: O1_2  and  C2_3 
REMARK    2  A    between atoms: C7_9  and  N2_10 
REMARK    3  A    between atoms: N2_10  and  C8_11 
REMARK    4  A    between atoms: C16_20  and  O2_21 
ROOT
HETATM    1  C2  UNL     1      27.344   0.590  53.584  1.00  0.00     0.103 A 
HETATM    2  C3  UNL     1      26.711  -0.141  54.564  1.00  0.00     0.072 A 
HETATM    3  C4  UNL     1      25.363  -0.403  54.484  1.00  0.00     0.071 A 
HETATM    4  N1  UNL     1      24.873  -1.138  55.524  1.00  0.00    -0.260 NA
HETATM    5  C5  UNL     1      23.559  -1.466  55.569  1.00  0.00     0.119 A 
HETATM    6  C6  UNL     1      22.803  -1.005  54.509  1.00  0.00     0.049 A 
HETATM    7  C7  UNL     1      23.229  -0.265  53.436  1.00  0.00     0.046 A 
HETATM    8  C14 UNL     1      24.559   0.036  53.443  1.00  0.00     0.022 A 
HETATM    9  C15 UNL     1      25.236   0.757  52.498  1.00  0.00     0.055 A 
HETATM   10  C16 UNL     1      26.584   1.048  52.529  1.00  0.00     0.102 A 
ENDROOT
BRANCH   7  11
HETATM   11  N2  UNL     1      22.450   0.175  52.370  1.00  0.00    -0.355 N 
HETATM   12  H7  UNL     1      22.391  -0.309  51.475  1.00  0.00     0.166 HD
BRANCH  11  13
HETATM   13  C8  UNL     1      21.588   1.290  52.187  1.00  0.00     0.033 A 
HETATM   14  C9  UNL     1      20.208   1.295  52.225  1.00  0.00     0.029 A 
HETATM   15  C10 UNL     1      19.418   2.402  52.064  1.00  0.00     0.004 A 
HETATM   16  C11 UNL     1      20.007   3.626  51.846  1.00  0.00     0.019 A 
HETATM   17  C12 UNL     1      21.380   3.689  51.798  1.00  0.00     0.013 A 
HETATM   18 BR1  UNL     1      22.102   5.426  51.492  1.00  0.00    -0.051 Br
HETATM   19  C13 UNL     1      22.141   2.556  51.964  1.00  0.00     0.048 A 
ENDBRANCH  11  13
ENDBRANCH   7  11
BRANCH  10  20
HETATM   20  O2  UNL     1      27.218   1.782  51.545  1.00  0.00    -0.353 OA
HETATM   21  C17 UNL     1      26.508   2.823  50.894  1.00  0.00     0.210 C 
ENDBRANCH  10  20
BRANCH   1  22
HETATM   22  O1  UNL     1      28.692   0.866  53.641  1.00  0.00    -0.353 OA
HETATM   23  C1  UNL     1      29.607  -0.235  53.681  1.00  0.00     0.210 C 
ENDBRANCH   1  22
TORSDOF 4
ENDMDL
MODEL 7
REMARK VINA RESULT:      -7.4      2.118      3.614
REMARK  4 active torsions:
REMARK  status: ('A' for Active; 'I' for Inactive)
REMARK    1  A    between atoms: O1_2  and  C2_3 
REMARK    2  A    between atoms: C7_9  and  N2_10 
REMARK    3  A    between atoms: N2_10  and  C8_11 
REMARK    4  A    between atoms: C16_20  and  O2_21 
ROOT
HETATM    1  C2  UNL     1      21.133   0.540  52.080  1.00  0.00     0.103 A 
HETATM    2  C3  UNL     1      21.489   1.170  50.909  1.00  0.00     0.072 A 
HETATM    3  C4  UNL     1      22.699   1.815  50.798  1.00  0.00     0.071 A 
HETATM    4  N1  UNL     1      22.916   2.393  49.581  1.00  0.00    -0.260 NA
HETATM    5  C5  UNL     1      24.069   3.060  49.339  1.00  0.00     0.119 A 
HETATM    6  C6  UNL     1      24.960   3.095  50.394  1.00  0.00     0.049 A 
HETATM    7  C7  UNL     1      24.806   2.538  51.638  1.00  0.00     0.046 A 
HETATM    8  C14 UNL     1      23.628   1.879  51.826  1.00  0.00     0.022 A 
HETATM    9  C15 UNL     1      23.226   1.239  52.966  1.00  0.00     0.055 A 
HETATM   10  C16 UNL     1      22.026   0.578  53.130  1.00  0.00     0.102 A 
ENDROOT
BRANCH   7  11
HETATM   11  N2  UNL     1      25.726   2.572  52.682  1.00  0.00    -0.355 N 
HETATM   12  H7  UNL     1      25.694   3.250  53.443  1.00  0.00     0.166 HD
BRANCH  11  13
HETATM   13  C8  UNL     1      26.864   1.784  53.004  1.00  0.00     0.033 A 
HETATM   14  C9  UNL     1      28.058   2.221  53.544  1.00  0.00     0.029 A 
HETATM   15  C10 UNL     1      29.122   1.417  53.859  1.00  0.00     0.004 A 
HETATM   16  C11 UNL     1      29.035   0.062  53.635  1.00  0.00     0.019 A 
HETATM   17  C12 UNL     1      27.871  -0.436  53.099  1.00  0.00     0.013 A 
HETATM   18 BR1  UNL     1      27.846  -2.322  52.826  1.00  0.00    -0.051 Br
HETATM   19  C13 UNL     1      26.823   0.401  52.795  1.00  0.00     0.048 A 
ENDBRANCH  11  13
ENDBRANCH   7  11
BRANCH  10  20
HETATM   20  O2  UNL     1      21.670  -0.053  54.306  1.00  0.00    -0.353 OA
HETATM   21  C17 UNL     1      22.308  -1.269  54.659  1.00  0.00     0.210 C 
ENDBRANCH  10  20
BRANCH   1  22
HETATM   22  O1  UNL     1      19.927  -0.112  52.217  1.00  0.00    -0.353 OA
HETATM   23  C1  UNL     1      18.797   0.398  51.499  1.00  0.00     0.210 C 
ENDBRANCH   1  22
TORSDOF 4
ENDMDL
MODEL 8
REMARK VINA RESULT:      -7.4      3.696      6.277
REMARK  4 active torsions:
REMARK  status: ('A' for Active; 'I' for Inactive)
REMARK    1  A    between atoms: O1_2  and  C2_3 
REMARK    2  A    between atoms: C7_9  and  N2_10 
REMARK    3  A    between atoms: N2_10  and  C8_11 
REMARK    4  A    between atoms: C16_20  and  O2_21 
ROOT
HETATM    1  C2  UNL     1      26.289  -0.247  53.279  1.00  0.00     0.103 A 
HETATM    2  C3  UNL     1      25.341  -0.833  54.087  1.00  0.00     0.072 A 
HETATM    3  C4  UNL     1      24.020  -0.457  54.007  1.00  0.00     0.071 A 
HETATM    4  N1  UNL     1      23.195  -1.122  54.868  1.00  0.00    -0.260 NA
HETATM    5  C5  UNL     1      21.869  -0.847  54.892  1.00  0.00     0.119 A 
HETATM    6  C6  UNL     1      21.455   0.125  54.001  1.00  0.00     0.049 A 
HETATM    7  C7  UNL     1      22.227   0.829  53.113  1.00  0.00     0.046 A 
HETATM    8  C14 UNL     1      23.552   0.512  53.133  1.00  0.00     0.022 A 
HETATM    9  C15 UNL     1      24.533   1.062  52.353  1.00  0.00     0.055 A 
HETATM   10  C16 UNL     1      25.869   0.722  52.392  1.00  0.00     0.102 A 
ENDROOT
BRANCH   7  11
HETATM   11  N2  UNL     1      21.784   1.794  52.213  1.00  0.00    -0.355 N 
HETATM   12  H7  UNL     1      21.288   2.641  52.490  1.00  0.00     0.166 HD
BRANCH  11  13
HETATM   13  C8  UNL     1      21.863   1.917  50.799  1.00  0.00     0.033 A 
HETATM   14  C9  UNL     1      21.559   0.954  49.858  1.00  0.00     0.029 A 
HETATM   15  C10 UNL     1      21.630   1.127  48.501  1.00  0.00     0.004 A 
HETATM   16  C11 UNL     1      22.031   2.342  47.995  1.00  0.00     0.019 A 
HETATM   17  C12 UNL     1      22.348   3.344  48.882  1.00  0.00     0.013 A 
HETATM   18 BR1  UNL     1      22.893   4.988  48.086  1.00  0.00    -0.051 Br
HETATM   19  C13 UNL     1      22.265   3.134  50.238  1.00  0.00     0.048 A 
ENDBRANCH  11  13
ENDBRANCH   7  11
BRANCH  10  20
HETATM   20  O2  UNL     1      26.819   1.311  51.580  1.00  0.00    -0.353 OA
HETATM   21  C17 UNL     1      26.634   2.652  51.160  1.00  0.00     0.210 C 
ENDBRANCH  10  20
BRANCH   1  22
HETATM   22  O1  UNL     1      27.617  -0.605  53.339  1.00  0.00    -0.353 OA
HETATM   23  C1  UNL     1      28.417  -0.061  54.396  1.00  0.00     0.210 C 
ENDBRANCH   1  22
TORSDOF 4
ENDMDL
MODEL 9
REMARK VINA RESULT:      -7.4      3.963      5.027
REMARK  4 active torsions:
REMARK  status: ('A' for Active; 'I' for Inactive)
REMARK    1  A    between atoms: O1_2  and  C2_3 
REMARK    2  A    between atoms: C7_9  and  N2_10 
REMARK    3  A    between atoms: N2_10  and  C8_11 
REMARK    4  A    between atoms: C16_20  and  O2_21 
ROOT
HETATM    1  C2  UNL     1      22.638  -0.051  53.913  1.00  0.00     0.103 A 
HETATM    2  C3  UNL     1      23.984  -0.328  53.997  1.00  0.00     0.072 A 
HETATM    3  C4  UNL     1      24.887   0.316  53.183  1.00  0.00     0.071 A 
HETATM    4  N1  UNL     1      26.184  -0.059  53.379  1.00  0.00    -0.260 NA
HETATM    5  C5  UNL     1      27.174   0.499  52.642  1.00  0.00     0.119 A 
HETATM    6  C6  UNL     1      26.760   1.440  51.719  1.00  0.00     0.049 A 
HETATM    7  C7  UNL     1      25.479   1.862  51.472  1.00  0.00     0.046 A 
HETATM    8  C14 UNL     1      24.524   1.267  52.242  1.00  0.00     0.022 A 
HETATM    9  C15 UNL     1      23.178   1.505  52.198  1.00  0.00     0.055 A 
HETATM   10  C16 UNL     1      22.231   0.889  52.989  1.00  0.00     0.102 A 
ENDROOT
BRANCH   7  11
HETATM   11  N2  UNL     1      25.087   2.825  50.546  1.00  0.00    -0.355 N 
HETATM   12  H7  UNL     1      24.164   2.852  50.115  1.00  0.00     0.166 HD
BRANCH  11  13
HETATM   13  C8  UNL     1      25.743   3.945  49.969  1.00  0.00     0.033 A 
HETATM   14  C9  UNL     1      26.883   3.937  49.189  1.00  0.00     0.029 A 
HETATM   15  C10 UNL     1      27.469   5.044  48.635  1.00  0.00     0.004 A 
HETATM   16  C11 UNL     1      26.908   6.283  48.848  1.00  0.00     0.019 A 
HETATM   17  C12 UNL     1      25.770   6.359  49.616  1.00  0.00     0.013 A 
HETATM   18 BR1  UNL     1      25.068   8.115  49.854  1.00  0.00    -0.051 Br
HETATM   19  C13 UNL     1      25.210   5.225  50.157  1.00  0.00     0.048 A 
ENDBRANCH  11  13
ENDBRANCH   7  11
BRANCH  10  20
HETATM   20  O2  UNL     1      20.881   1.168  52.903  1.00  0.00    -0.353 OA
HETATM   21  C17 UNL     1      20.466   2.493  52.616  1.00  0.00     0.210 C 
ENDBRANCH  10  20
BRANCH   1  22
HETATM   22  O1  UNL     1      21.714  -0.682  54.715  1.00  0.00    -0.353 OA
HETATM   23  C1  UNL     1      21.283  -1.997  54.345  1.00  0.00     0.210 C 
ENDBRANCH   1  22
TORSDOF 4
ENDMDL
