MODEL 1
REMARK VINA RESULT:      -8.7      0.000      0.000
REMARK  7 active torsions:
REMARK  status: ('A' for Active; 'I' for Inactive)
REMARK    1  A    between atoms: C2_2  and  C3_4 
REMARK    2  A    between atoms: C4_5  and  C5_6 
REMARK    3  A    between atoms: C5_6  and  N1_8 
REMARK    4  A    between atoms: N1_8  and  C7_9 
REMARK    5  A    between atoms: C11_15  and  O1_16 
REMARK    6  A    between atoms: C13_18  and  N4_19 
REMARK       I    between atoms: N4_19  and  C14_20 
REMARK    7  A    between atoms: C14_20  and  C15_22 
ROOT
HETATM    1  C7  UNL     1      22.862   4.511  52.131  1.00  0.00     0.142 A 
HETATM    2  N2  UNL     1      21.684   5.078  51.742  1.00  0.00    -0.224 NA
HETATM    3  C8  UNL     1      20.572   4.312  51.655  1.00  0.00     0.236 A 
HETATM    4  N3  UNL     1      20.523   2.988  51.929  1.00  0.00    -0.241 NA
HETATM    5  C9  UNL     1      21.656   2.372  52.318  1.00  0.00     0.075 A 
HETATM    6  C10 UNL     1      21.701   1.044  52.610  1.00  0.00     0.071 A 
HETATM    7  C11 UNL     1      22.837   0.394  53.003  1.00  0.00     0.097 A 
HETATM    8  C13 UNL     1      24.009   1.115  53.112  1.00  0.00     0.069 A 
HETATM    9  C19 UNL     1      23.962   2.481  52.812  1.00  0.00     0.050 A 
HETATM   10  C20 UNL     1      22.809   3.158  52.410  1.00  0.00     0.041 A 
ENDROOT
BRANCH   8  11
HETATM   11  N4  UNL     1      25.289   0.627  53.499  1.00  0.00    -0.323 N 
HETATM   12  C14 UNL     1      26.480   0.320  52.780  1.00  0.00     0.247 C 
HETATM   13  O2  UNL     1      26.227   0.571  51.574  1.00  0.00    -0.271 OA
HETATM   14  H13 UNL     1      25.048   0.570  54.535  1.00  0.00     0.169 HD
BRANCH  12  15
HETATM   15  C15 UNL     1      27.477  -0.154  53.773  1.00  0.00     0.208 C 
HETATM   16  N5  UNL     1      27.662   0.865  54.778  1.00  0.00    -0.321 N 
HETATM   17  C16 UNL     1      28.969   1.403  54.568  1.00  0.00     0.361 C 
HETATM   18  H15 UNL     1      27.173   1.319  55.576  1.00  0.00     0.165 HD
HETATM   19  O3  UNL     1      29.697   2.351  54.976  1.00  0.00    -0.238 OA
HETATM   20  O4  UNL     1      29.627   0.624  53.610  1.00  0.00    -0.296 OA
HETATM   21  C17 UNL     1      28.798  -0.395  53.131  1.00  0.00     0.161 C 
HETATM   22  C18 UNL     1      29.395  -1.747  53.492  1.00  0.00     0.043 C 
ENDBRANCH  12  15
ENDBRANCH   8  11
BRANCH   7  23
HETATM   23  O1  UNL     1      22.975  -0.944  53.318  1.00  0.00    -0.354 OA
HETATM   24  C12 UNL     1      22.241  -1.444  54.421  1.00  0.00     0.210 C 
ENDBRANCH   7  23
BRANCH   1  25
HETATM   25  N1  UNL     1      24.093   5.242  52.258  1.00  0.00    -0.341 N 
HETATM   26  H7  UNL     1      24.232   4.942  53.226  1.00  0.00     0.167 HD
BRANCH  25  27
HETATM   27  C5  UNL     1      24.465   5.949  51.091  1.00  0.00     0.024 C 
HETATM   28  C6  UNL     1      24.141   7.223  51.003  1.00  0.00     0.043 C 
BRANCH  27  29
HETATM   29  C4  UNL     1      25.176   5.395  49.965  1.00  0.00     0.030 C 
HETATM   30  C3  UNL     1      24.682   4.525  49.105  1.00  0.00     0.021 C 
BRANCH  30  31
HETATM   31  C2  UNL     1      23.498   3.775  48.794  1.00  0.00     0.009 A 
HETATM   32  C1  UNL     1      22.287   3.808  48.232  1.00  0.00     0.152 A 
HETATM   33 CL1  UNL     1      22.606   2.266  48.851  1.00  0.00    -0.182 Cl
ENDBRANCH  30  31
ENDBRANCH  27  29
ENDBRANCH  25  27
ENDBRANCH   1  25
TORSDOF 7
ENDMDL
MODEL 2
REMARK VINA RESULT:      -8.7      1.843      2.384
REMARK  7 active torsions:
REMARK  status: ('A' for Active; 'I' for Inactive)
REMARK    1  A    between atoms: C2_2  and  C3_4 
REMARK    2  A    between atoms: C4_5  and  C5_6 
REMARK    3  A    between atoms: C5_6  and  N1_8 
REMARK    4  A    between atoms: N1_8  and  C7_9 
REMARK    5  A    between atoms: C11_15  and  O1_16 
REMARK    6  A    between atoms: C13_18  and  N4_19 
REMARK       I    between atoms: N4_19  and  C14_20 
REMARK    7  A    between atoms: C14_20  and  C15_22 
ROOT
HETATM    1  C7  UNL     1      23.547   3.995  51.468  1.00  0.00     0.142 A 
HETATM    2  N2  UNL     1      22.387   4.551  51.016  1.00  0.00    -0.224 NA
HETATM    3  C8  UNL     1      21.217   3.899  51.202  1.00  0.00     0.236 A 
HETATM    4  N3  UNL     1      21.090   2.702  51.820  1.00  0.00    -0.241 NA
HETATM    5  C9  UNL     1      22.202   2.103  52.289  1.00  0.00     0.075 A 
HETATM    6  C10 UNL     1      22.170   0.897  52.920  1.00  0.00     0.071 A 
HETATM    7  C11 UNL     1      23.282   0.266  53.401  1.00  0.00     0.097 A 
HETATM    8  C13 UNL     1      24.511   0.876  53.243  1.00  0.00     0.069 A 
HETATM    9  C19 UNL     1      24.543   2.116  52.596  1.00  0.00     0.050 A 
HETATM   10  C20 UNL     1      23.415   2.772  52.100  1.00  0.00     0.041 A 
ENDROOT
BRANCH   8  11
HETATM   11  N4  UNL     1      25.778   0.385  53.668  1.00  0.00    -0.323 N 
HETATM   12  C14 UNL     1      26.805  -0.362  53.023  1.00  0.00     0.247 C 
HETATM   13  O2  UNL     1      26.397  -0.569  51.852  1.00  0.00    -0.271 OA
HETATM   14  H13 UNL     1      25.695   0.777  54.654  1.00  0.00     0.169 HD
BRANCH  12  15
HETATM   15  C15 UNL     1      27.890  -0.559  54.020  1.00  0.00     0.208 C 
HETATM   16  N5  UNL     1      27.906   0.565  54.925  1.00  0.00    -0.321 N 
HETATM   17  C16 UNL     1      29.091   1.305  54.624  1.00  0.00     0.361 C 
HETATM   18  H15 UNL     1      27.358   0.997  55.696  1.00  0.00     0.165 HD
HETATM   19  O3  UNL     1      29.645   2.400  54.922  1.00  0.00    -0.238 OA
HETATM   20  O4  UNL     1      29.861   0.570  53.715  1.00  0.00    -0.296 OA
HETATM   21  C17 UNL     1      29.220  -0.620  53.357  1.00  0.00     0.161 C 
HETATM   22  C18 UNL     1      30.056  -1.805  53.814  1.00  0.00     0.043 C 
ENDBRANCH  12  15
ENDBRANCH   8  11
BRANCH   7  23
HETATM   23  O1  UNL     1      23.345  -0.952  54.051  1.00  0.00    -0.354 OA
HETATM   24  C12 UNL     1      22.278  -1.296  54.916  1.00  0.00     0.210 C 
ENDBRANCH   7  23
BRANCH   1  25
HETATM   25  N1  UNL     1      24.837   4.613  51.322  1.00  0.00    -0.341 N 
HETATM   26  H7  UNL     1      24.915   4.807  52.323  1.00  0.00     0.167 HD
BRANCH  25  27
HETATM   27  C5  UNL     1      25.311   4.645  49.991  1.00  0.00     0.024 C 
HETATM   28  C6  UNL     1      25.919   3.576  49.518  1.00  0.00     0.043 C 
BRANCH  27  29
HETATM   29  C4  UNL     1      25.194   5.761  49.085  1.00  0.00     0.030 C 
HETATM   30  C3  UNL     1      26.199   6.354  48.471  1.00  0.00     0.021 C 
BRANCH  30  31
HETATM   31  C2  UNL     1      27.627   6.318  48.326  1.00  0.00     0.009 A 
HETATM   32  C1  UNL     1      28.736   7.041  48.146  1.00  0.00     0.152 A 
HETATM   33 CL1  UNL     1      29.117   5.397  48.250  1.00  0.00    -0.182 Cl
ENDBRANCH  30  31
ENDBRANCH  27  29
ENDBRANCH  25  27
ENDBRANCH   1  25
TORSDOF 7
ENDMDL
MODEL 3
REMARK VINA RESULT:      -8.1      2.533      5.031
REMARK  7 active torsions:
REMARK  status: ('A' for Active; 'I' for Inactive)
REMARK    1  A    between atoms: C2_2  and  C3_4 
REMARK    2  A    between atoms: C4_5  and  C5_6 
REMARK    3  A    between atoms: C5_6  and  N1_8 
REMARK    4  A    between atoms: N1_8  and  C7_9 
REMARK    5  A    between atoms: C11_15  and  O1_16 
REMARK    6  A    between atoms: C13_18  and  N4_19 
REMARK       I    between atoms: N4_19  and  C14_20 
REMARK    7  A    between atoms: C14_20  and  C15_22 
ROOT
HETATM    1  C7  UNL     1      20.910   1.623  49.310  1.00  0.00     0.142 A 
HETATM    2  N2  UNL     1      20.054   2.059  48.342  1.00  0.00    -0.224 NA
HETATM    3  C8  UNL     1      20.375   3.150  47.609  1.00  0.00     0.236 A 
HETATM    4  N3  UNL     1      21.509   3.871  47.755  1.00  0.00    -0.241 NA
HETATM    5  C9  UNL     1      22.395   3.489  48.696  1.00  0.00     0.075 A 
HETATM    6  C10 UNL     1      23.560   4.158  48.915  1.00  0.00     0.071 A 
HETATM    7  C11 UNL     1      24.473   3.794  49.865  1.00  0.00     0.097 A 
HETATM    8  C13 UNL     1      24.208   2.690  50.650  1.00  0.00     0.069 A 
HETATM    9  C19 UNL     1      23.010   2.002  50.423  1.00  0.00     0.050 A 
HETATM   10  C20 UNL     1      22.070   2.362  49.457  1.00  0.00     0.041 A 
ENDROOT
BRANCH   8  11
HETATM   11  N4  UNL     1      25.023   2.154  51.687  1.00  0.00    -0.323 N 
HETATM   12  C14 UNL     1      25.019   2.289  53.106  1.00  0.00     0.247 C 
HETATM   13  O2  UNL     1      24.061   3.058  53.375  1.00  0.00    -0.271 OA
HETATM   14  H13 UNL     1      25.650   1.603  51.026  1.00  0.00     0.169 HD
BRANCH  12  15
HETATM   15  C15 UNL     1      26.142   1.466  53.624  1.00  0.00     0.208 C 
HETATM   16  N5  UNL     1      27.125   2.335  54.225  1.00  0.00    -0.321 N 
HETATM   17  C16 UNL     1      28.260   2.317  53.357  1.00  0.00     0.361 C 
HETATM   18  H15 UNL     1      27.272   2.948  55.052  1.00  0.00     0.165 HD
HETATM   19  O3  UNL     1      29.368   2.905  53.207  1.00  0.00    -0.238 OA
HETATM   20  O4  UNL     1      28.060   1.339  52.377  1.00  0.00    -0.296 OA
HETATM   21  C17 UNL     1      26.813   0.724  52.523  1.00  0.00     0.161 C 
HETATM   22  C18 UNL     1      27.007  -0.752  52.835  1.00  0.00     0.043 C 
ENDBRANCH  12  15
ENDBRANCH   8  11
BRANCH   7  23
HETATM   23  O1  UNL     1      25.675   4.409  50.157  1.00  0.00    -0.354 OA
HETATM   24  C12 UNL     1      26.756   4.207  49.265  1.00  0.00     0.210 C 
ENDBRANCH   7  23
BRANCH   1  25
HETATM   25  N1  UNL     1      20.661   0.473  50.135  1.00  0.00    -0.341 N 
HETATM   26  H7  UNL     1      21.301  -0.117  49.599  1.00  0.00     0.167 HD
BRANCH  25  27
HETATM   27  C5  UNL     1      19.737   0.706  51.180  1.00  0.00     0.024 C 
HETATM   28  C6  UNL     1      18.522   0.210  51.061  1.00  0.00     0.043 C 
BRANCH  27  29
HETATM   29  C4  UNL     1      20.003   1.453  52.385  1.00  0.00     0.030 C 
HETATM   30  C3  UNL     1      20.775   1.052  53.375  1.00  0.00     0.021 C 
BRANCH  30  31
HETATM   31  C2  UNL     1      21.606  -0.038  53.805  1.00  0.00     0.009 A 
HETATM   32  C1  UNL     1      21.634  -1.311  54.207  1.00  0.00     0.152 A 
HETATM   33 CL1  UNL     1      23.199  -0.670  54.177  1.00  0.00    -0.182 Cl
ENDBRANCH  30  31
ENDBRANCH  27  29
ENDBRANCH  25  27
ENDBRANCH   1  25
TORSDOF 7
ENDMDL
MODEL 4
REMARK VINA RESULT:      -8.1      3.762      6.751
REMARK  7 active torsions:
REMARK  status: ('A' for Active; 'I' for Inactive)
REMARK    1  A    between atoms: C2_2  and  C3_4 
REMARK    2  A    between atoms: C4_5  and  C5_6 
REMARK    3  A    between atoms: C5_6  and  N1_8 
REMARK    4  A    between atoms: N1_8  and  C7_9 
REMARK    5  A    between atoms: C11_15  and  O1_16 
REMARK    6  A    between atoms: C13_18  and  N4_19 
REMARK       I    between atoms: N4_19  and  C14_20 
REMARK    7  A    between atoms: C14_20  and  C15_22 
ROOT
HETATM    1  C7  UNL     1      24.548  -0.394  53.676  1.00  0.00     0.142 A 
HETATM    2  N2  UNL     1      25.141  -0.929  54.781  1.00  0.00    -0.224 NA
HETATM    3  C8  UNL     1      24.374  -1.475  55.752  1.00  0.00     0.236 A 
HETATM    4  N3  UNL     1      23.023  -1.542  55.722  1.00  0.00    -0.241 NA
HETATM    5  C9  UNL     1      22.380  -1.030  54.654  1.00  0.00     0.075 A 
HETATM    6  C10 UNL     1      21.024  -1.050  54.541  1.00  0.00     0.071 A 
HETATM    7  C11 UNL     1      20.347  -0.535  53.472  1.00  0.00     0.097 A 
HETATM    8  C13 UNL     1      21.069   0.040  52.445  1.00  0.00     0.069 A 
HETATM    9  C19 UNL     1      22.463   0.059  52.562  1.00  0.00     0.050 A 
HETATM   10  C20 UNL     1      23.167  -0.463  53.647  1.00  0.00     0.041 A 
ENDROOT
BRANCH   8  11
HETATM   11  N4  UNL     1      20.555   0.631  51.255  1.00  0.00    -0.323 N 
HETATM   12  C14 UNL     1      19.901   1.865  50.978  1.00  0.00     0.247 C 
HETATM   13  O2  UNL     1      19.818   2.465  52.079  1.00  0.00    -0.271 OA
HETATM   14  H13 UNL     1      20.835  -0.184  50.629  1.00  0.00     0.169 HD
BRANCH  12  15
HETATM   15  C15 UNL     1      19.614   1.887  49.520  1.00  0.00     0.208 C 
HETATM   16  N5  UNL     1      20.632   1.131  48.829  1.00  0.00    -0.321 N 
HETATM   17  C16 UNL     1      21.420   2.084  48.112  1.00  0.00     0.361 C 
HETATM   18  H15 UNL     1      20.967   0.158  48.688  1.00  0.00     0.165 HD
HETATM   19  O3  UNL     1      22.484   2.139  47.435  1.00  0.00    -0.238 OA
HETATM   20  O4  UNL     1      20.802   3.336  48.201  1.00  0.00    -0.296 OA
HETATM   21  C17 UNL     1      19.648   3.276  48.989  1.00  0.00     0.161 C 
HETATM   22  C18 UNL     1      18.434   3.615  48.138  1.00  0.00     0.043 C 
ENDBRANCH  12  15
ENDBRANCH   8  11
BRANCH   7  23
HETATM   23  O1  UNL     1      18.979  -0.511  53.273  1.00  0.00    -0.354 OA
HETATM   24  C12 UNL     1      18.264  -1.720  53.444  1.00  0.00     0.210 C 
ENDBRANCH   7  23
BRANCH   1  25
HETATM   25  N1  UNL     1      25.277   0.204  52.591  1.00  0.00    -0.341 N 
HETATM   26  H7  UNL     1      24.985  -0.517  51.927  1.00  0.00     0.167 HD
BRANCH  25  27
HETATM   27  C5  UNL     1      25.974   1.382  52.947  1.00  0.00     0.024 C 
HETATM   28  C6  UNL     1      27.235   1.496  52.580  1.00  0.00     0.043 C 
BRANCH  27  29
HETATM   29  C4  UNL     1      25.426   2.488  53.692  1.00  0.00     0.030 C 
HETATM   30  C3  UNL     1      24.494   3.312  53.257  1.00  0.00     0.021 C 
BRANCH  30  31
HETATM   31  C2  UNL     1      23.657   3.593  52.124  1.00  0.00     0.009 A 
HETATM   32  C1  UNL     1      23.352   3.256  50.868  1.00  0.00     0.152 A 
HETATM   33 CL1  UNL     1      22.381   4.541  51.385  1.00  0.00    -0.182 Cl
ENDBRANCH  30  31
ENDBRANCH  27  29
ENDBRANCH  25  27
ENDBRANCH   1  25
TORSDOF 7
ENDMDL
MODEL 5
REMARK VINA RESULT:      -8.1      2.376      3.105
REMARK  7 active torsions:
REMARK  status: ('A' for Active; 'I' for Inactive)
REMARK    1  A    between atoms: C2_2  and  C3_4 
REMARK    2  A    between atoms: C4_5  and  C5_6 
REMARK    3  A    between atoms: C5_6  and  N1_8 
REMARK    4  A    between atoms: N1_8  and  C7_9 
REMARK    5  A    between atoms: C11_15  and  O1_16 
REMARK    6  A    between atoms: C13_18  and  N4_19 
REMARK       I    between atoms: N4_19  and  C14_20 
REMARK    7  A    between atoms: C14_20  and  C15_22 
ROOT
HETATM    1  C7  UNL     1      21.467   2.026  49.203  1.00  0.00     0.142 A 
HETATM    2  N2  UNL     1      20.143   2.090  48.883  1.00  0.00    -0.224 NA
HETATM    3  C8  UNL     1      19.221   1.646  49.767  1.00  0.00     0.236 A 
HETATM    4  N3  UNL     1      19.505   1.126  50.983  1.00  0.00    -0.241 NA
HETATM    5  C9  UNL     1      20.796   1.037  51.356  1.00  0.00     0.075 A 
HETATM    6  C10 UNL     1      21.174   0.524  52.559  1.00  0.00     0.071 A 
HETATM    7  C11 UNL     1      22.476   0.419  52.960  1.00  0.00     0.097 A 
HETATM    8  C13 UNL     1      23.470   0.852  52.105  1.00  0.00     0.069 A 
HETATM    9  C19 UNL     1      23.080   1.380  50.869  1.00  0.00     0.050 A 
HETATM   10  C20 UNL     1      21.755   1.494  50.447  1.00  0.00     0.041 A 
ENDROOT
BRANCH   8  11
HETATM   11  N4  UNL     1      24.875   0.826  52.333  1.00  0.00    -0.323 N 
HETATM   12  C14 UNL     1      25.765   1.665  53.065  1.00  0.00     0.247 C 
HETATM   13  O2  UNL     1      25.051   2.572  53.562  1.00  0.00    -0.271 OA
HETATM   14  H13 UNL     1      25.038  -0.055  51.759  1.00  0.00     0.169 HD
BRANCH  12  15
HETATM   15  C15 UNL     1      27.127   1.092  52.910  1.00  0.00     0.208 C 
HETATM   16  N5  UNL     1      27.048  -0.095  52.093  1.00  0.00    -0.321 N 
HETATM   17  C16 UNL     1      27.300  -1.199  52.966  1.00  0.00     0.361 C 
HETATM   18  H15 UNL     1      26.875  -0.399  51.114  1.00  0.00     0.165 HD
HETATM   19  O3  UNL     1      27.269  -2.461  52.955  1.00  0.00    -0.238 OA
HETATM   20  O4  UNL     1      27.703  -0.705  54.211  1.00  0.00    -0.296 OA
HETATM   21  C17 UNL     1      27.692   0.693  54.227  1.00  0.00     0.161 C 
HETATM   22  C18 UNL     1      29.105   1.210  54.447  1.00  0.00     0.043 C 
ENDBRANCH  12  15
ENDBRANCH   8  11
BRANCH   7  23
HETATM   23  O1  UNL     1      22.951  -0.085  54.156  1.00  0.00    -0.354 OA
HETATM   24  C12 UNL     1      22.189  -1.089  54.800  1.00  0.00     0.210 C 
ENDBRANCH   7  23
BRANCH   1  25
HETATM   25  N1  UNL     1      22.520   2.477  48.334  1.00  0.00    -0.341 N 
HETATM   26  H7  UNL     1      22.848   1.526  48.152  1.00  0.00     0.167 HD
BRANCH  25  27
HETATM   27  C5  UNL     1      22.576   3.881  48.179  1.00  0.00     0.024 C 
HETATM   28  C6  UNL     1      22.161   4.401  47.041  1.00  0.00     0.043 C 
BRANCH  27  29
HETATM   29  C4  UNL     1      23.056   4.816  49.167  1.00  0.00     0.030 C 
HETATM   30  C3  UNL     1      24.297   4.890  49.606  1.00  0.00     0.021 C 
BRANCH  30  31
HETATM   31  C2  UNL     1      25.596   4.294  49.462  1.00  0.00     0.009 A 
HETATM   32  C1  UNL     1      26.343   3.210  49.686  1.00  0.00     0.152 A 
HETATM   33 CL1  UNL     1      27.259   4.406  48.917  1.00  0.00    -0.182 Cl
ENDBRANCH  30  31
ENDBRANCH  27  29
ENDBRANCH  25  27
ENDBRANCH   1  25
TORSDOF 7
ENDMDL
MODEL 6
REMARK VINA RESULT:      -8.1      4.072      7.219
REMARK  7 active torsions:
REMARK  status: ('A' for Active; 'I' for Inactive)
REMARK    1  A    between atoms: C2_2  and  C3_4 
REMARK    2  A    between atoms: C4_5  and  C5_6 
REMARK    3  A    between atoms: C5_6  and  N1_8 
REMARK    4  A    between atoms: N1_8  and  C7_9 
REMARK    5  A    between atoms: C11_15  and  O1_16 
REMARK    6  A    between atoms: C13_18  and  N4_19 
REMARK       I    between atoms: N4_19  and  C14_20 
REMARK    7  A    between atoms: C14_20  and  C15_22 
ROOT
HETATM    1  C7  UNL     1      24.536  -0.332  53.753  1.00  0.00     0.142 A 
HETATM    2  N2  UNL     1      25.104  -0.900  54.855  1.00  0.00    -0.224 NA
HETATM    3  C8  UNL     1      24.318  -1.503  55.776  1.00  0.00     0.236 A 
HETATM    4  N3  UNL     1      22.971  -1.597  55.698  1.00  0.00    -0.241 NA
HETATM    5  C9  UNL     1      22.351  -1.055  54.632  1.00  0.00     0.075 A 
HETATM    6  C10 UNL     1      21.000  -1.098  54.472  1.00  0.00     0.071 A 
HETATM    7  C11 UNL     1      20.347  -0.553  53.403  1.00  0.00     0.097 A 
HETATM    8  C13 UNL     1      21.089   0.080  52.425  1.00  0.00     0.069 A 
HETATM    9  C19 UNL     1      22.478   0.123  52.590  1.00  0.00     0.050 A 
HETATM   10  C20 UNL     1      23.158  -0.430  53.676  1.00  0.00     0.041 A 
ENDROOT
BRANCH   8  11
HETATM   11  N4  UNL     1      20.602   0.708  51.245  1.00  0.00    -0.323 N 
HETATM   12  C14 UNL     1      20.026   1.984  50.980  1.00  0.00     0.247 C 
HETATM   13  O2  UNL     1      19.993   2.582  52.086  1.00  0.00    -0.271 OA
HETATM   14  H13 UNL     1      20.822  -0.119  50.611  1.00  0.00     0.169 HD
BRANCH  12  15
HETATM   15  C15 UNL     1      19.725   2.032  49.526  1.00  0.00     0.208 C 
HETATM   16  N5  UNL     1      20.666   1.193  48.823  1.00  0.00    -0.321 N 
HETATM   17  C16 UNL     1      21.524   2.076  48.097  1.00  0.00     0.361 C 
HETATM   18  H15 UNL     1      20.915   0.195  48.678  1.00  0.00     0.165 HD
HETATM   19  O3  UNL     1      22.582   2.041  47.408  1.00  0.00    -0.238 OA
HETATM   20  O4  UNL     1      21.017   3.377  48.194  1.00  0.00    -0.296 OA
HETATM   21  C17 UNL     1      19.872   3.414  48.995  1.00  0.00     0.161 C 
HETATM   22  C18 UNL     1      18.681   3.857  48.159  1.00  0.00     0.043 C 
ENDBRANCH  12  15
ENDBRANCH   8  11
BRANCH   7  23
HETATM   23  O1  UNL     1      18.987  -0.549  53.159  1.00  0.00    -0.354 OA
HETATM   24  C12 UNL     1      18.255  -1.719  53.474  1.00  0.00     0.210 C 
ENDBRANCH   7  23
BRANCH   1  25
HETATM   25  N1  UNL     1      25.287   0.325  52.719  1.00  0.00    -0.341 N 
HETATM   26  H7  UNL     1      25.048  -0.384  52.022  1.00  0.00     0.167 HD
BRANCH  25  27
HETATM   27  C5  UNL     1      25.925   1.515  53.140  1.00  0.00     0.024 C 
HETATM   28  C6  UNL     1      25.186   2.592  53.316  1.00  0.00     0.043 C 
BRANCH  27  29
HETATM   29  C4  UNL     1      27.336   1.664  53.397  1.00  0.00     0.030 C 
HETATM   30  C3  UNL     1      28.218   0.684  53.402  1.00  0.00     0.021 C 
BRANCH  30  31
HETATM   31  C2  UNL     1      28.348  -0.735  53.221  1.00  0.00     0.009 A 
HETATM   32  C1  UNL     1      29.173  -1.783  53.278  1.00  0.00     0.152 A 
HETATM   33 CL1  UNL     1      27.629  -2.277  52.795  1.00  0.00    -0.182 Cl
ENDBRANCH  30  31
ENDBRANCH  27  29
ENDBRANCH  25  27
ENDBRANCH   1  25
TORSDOF 7
ENDMDL
MODEL 7
REMARK VINA RESULT:      -8.0      3.671      4.897
REMARK  7 active torsions:
REMARK  status: ('A' for Active; 'I' for Inactive)
REMARK    1  A    between atoms: C2_2  and  C3_4 
REMARK    2  A    between atoms: C4_5  and  C5_6 
REMARK    3  A    between atoms: C5_6  and  N1_8 
REMARK    4  A    between atoms: N1_8  and  C7_9 
REMARK    5  A    between atoms: C11_15  and  O1_16 
REMARK    6  A    between atoms: C13_18  and  N4_19 
REMARK       I    between atoms: N4_19  and  C14_20 
REMARK    7  A    between atoms: C14_20  and  C15_22 
ROOT
HETATM    1  C7  UNL     1      25.296   6.654  48.839  1.00  0.00     0.142 A 
HETATM    2  N2  UNL     1      24.773   7.439  47.854  1.00  0.00    -0.224 NA
HETATM    3  C8  UNL     1      23.662   7.035  47.198  1.00  0.00     0.236 A 
HETATM    4  N3  UNL     1      23.000   5.881  47.440  1.00  0.00    -0.241 NA
HETATM    5  C9  UNL     1      23.468   5.063  48.402  1.00  0.00     0.075 A 
HETATM    6  C10 UNL     1      22.869   3.880  48.711  1.00  0.00     0.071 A 
HETATM    7  C11 UNL     1      23.326   3.031  49.679  1.00  0.00     0.097 A 
HETATM    8  C13 UNL     1      24.458   3.382  50.388  1.00  0.00     0.069 A 
HETATM    9  C19 UNL     1      25.073   4.598  50.070  1.00  0.00     0.050 A 
HETATM   10  C20 UNL     1      24.617   5.474  49.085  1.00  0.00     0.041 A 
ENDROOT
BRANCH   8  11
HETATM   11  N4  UNL     1      25.090   2.639  51.425  1.00  0.00    -0.323 N 
HETATM   12  C14 UNL     1      24.866   2.529  52.828  1.00  0.00     0.247 C 
HETATM   13  O2  UNL     1      23.892   3.283  53.080  1.00  0.00    -0.271 OA
HETATM   14  H13 UNL     1      25.803   2.182  50.780  1.00  0.00     0.169 HD
BRANCH  12  15
HETATM   15  C15 UNL     1      25.878   1.578  53.356  1.00  0.00     0.208 C 
HETATM   16  N5  UNL     1      26.841   2.308  54.146  1.00  0.00    -0.321 N 
HETATM   17  C16 UNL     1      28.059   2.304  53.397  1.00  0.00     0.361 C 
HETATM   18  H15 UNL     1      26.936   2.816  55.048  1.00  0.00     0.165 HD
HETATM   19  O3  UNL     1      29.208   2.826  53.425  1.00  0.00    -0.238 OA
HETATM   20  O4  UNL     1      27.907   1.453  52.297  1.00  0.00    -0.296 OA
HETATM   21  C17 UNL     1      26.617   0.915  52.249  1.00  0.00     0.161 C 
HETATM   22  C18 UNL     1      26.692  -0.596  52.408  1.00  0.00     0.043 C 
ENDBRANCH  12  15
ENDBRANCH   8  11
BRANCH   7  23
HETATM   23  O1  UNL     1      22.785   1.818  50.059  1.00  0.00    -0.354 OA
HETATM   24  C12 UNL     1      21.607   1.385  49.405  1.00  0.00     0.210 C 
ENDBRANCH   7  23
BRANCH   1  25
HETATM   25  N1  UNL     1      26.469   7.000  49.596  1.00  0.00    -0.341 N 
HETATM   26  H7  UNL     1      25.952   7.042  50.477  1.00  0.00     0.167 HD
BRANCH  25  27
HETATM   27  C5  UNL     1      27.645   7.103  48.817  1.00  0.00     0.024 C 
HETATM   28  C6  UNL     1      28.230   8.281  48.724  1.00  0.00     0.043 C 
BRANCH  27  29
HETATM   29  C4  UNL     1      28.273   6.023  48.098  1.00  0.00     0.030 C 
HETATM   30  C3  UNL     1      29.551   5.704  48.165  1.00  0.00     0.021 C 
BRANCH  30  31
HETATM   31  C2  UNL     1      30.790   6.082  48.784  1.00  0.00     0.009 A 
HETATM   32  C1  UNL     1      32.034   5.701  49.084  1.00  0.00     0.152 A 
HETATM   33 CL1  UNL     1      31.749   7.270  49.647  1.00  0.00    -0.182 Cl
ENDBRANCH  30  31
ENDBRANCH  27  29
ENDBRANCH  25  27
ENDBRANCH   1  25
TORSDOF 7
ENDMDL
MODEL 8
REMARK VINA RESULT:      -8.0      2.700      5.976
REMARK  7 active torsions:
REMARK  status: ('A' for Active; 'I' for Inactive)
REMARK    1  A    between atoms: C2_2  and  C3_4 
REMARK    2  A    between atoms: C4_5  and  C5_6 
REMARK    3  A    between atoms: C5_6  and  N1_8 
REMARK    4  A    between atoms: N1_8  and  C7_9 
REMARK    5  A    between atoms: C11_15  and  O1_16 
REMARK    6  A    between atoms: C13_18  and  N4_19 
REMARK       I    between atoms: N4_19  and  C14_20 
REMARK    7  A    between atoms: C14_20  and  C15_22 
ROOT
HETATM    1  C7  UNL     1      22.080   1.036  53.080  1.00  0.00     0.142 A 
HETATM    2  N2  UNL     1      21.785  -0.123  53.735  1.00  0.00    -0.224 NA
HETATM    3  C8  UNL     1      22.789  -0.927  54.154  1.00  0.00     0.236 A 
HETATM    4  N3  UNL     1      24.106  -0.673  53.976  1.00  0.00    -0.241 NA
HETATM    5  C9  UNL     1      24.460   0.457  53.335  1.00  0.00     0.075 A 
HETATM    6  C10 UNL     1      25.760   0.791  53.108  1.00  0.00     0.071 A 
HETATM    7  C11 UNL     1      26.145   1.929  52.457  1.00  0.00     0.097 A 
HETATM    8  C13 UNL     1      25.171   2.794  52.000  1.00  0.00     0.069 A 
HETATM    9  C19 UNL     1      23.835   2.451  52.235  1.00  0.00     0.050 A 
HETATM   10  C20 UNL     1      23.427   1.293  52.899  1.00  0.00     0.041 A 
ENDROOT
BRANCH   8  11
HETATM   11  N4  UNL     1      25.364   4.020  51.303  1.00  0.00    -0.323 N 
HETATM   12  C14 UNL     1      25.607   4.342  49.936  1.00  0.00     0.247 C 
HETATM   13  O2  UNL     1      25.634   3.244  49.324  1.00  0.00    -0.271 OA
HETATM   14  H13 UNL     1      25.262   4.628  52.171  1.00  0.00     0.169 HD
BRANCH  12  15
HETATM   15  C15 UNL     1      25.717   5.821  49.852  1.00  0.00     0.208 C 
HETATM   16  N5  UNL     1      25.005   6.410  50.960  1.00  0.00    -0.321 N 
HETATM   17  C16 UNL     1      23.844   7.033  50.405  1.00  0.00     0.361 C 
HETATM   18  H15 UNL     1      25.058   6.525  51.992  1.00  0.00     0.165 HD
HETATM   19  O3  UNL     1      22.779   7.595  50.783  1.00  0.00    -0.238 OA
HETATM   20  O4  UNL     1      23.939   6.996  49.009  1.00  0.00    -0.296 OA
HETATM   21  C17 UNL     1      25.099   6.332  48.599  1.00  0.00     0.161 C 
HETATM   22  C18 UNL     1      25.999   7.301  47.847  1.00  0.00     0.043 C 
ENDBRANCH  12  15
ENDBRANCH   8  11
BRANCH   7  23
HETATM   23  O1  UNL     1      27.433   2.347  52.183  1.00  0.00    -0.354 OA
HETATM   24  C12 UNL     1      28.369   2.349  53.245  1.00  0.00     0.210 C 
ENDBRANCH   7  23
BRANCH   1  25
HETATM   25  N1  UNL     1      21.084   1.956  52.601  1.00  0.00    -0.341 N 
HETATM   26  H7  UNL     1      21.364   2.684  53.261  1.00  0.00     0.167 HD
BRANCH  25  27
HETATM   27  C5  UNL     1      20.284   1.443  51.554  1.00  0.00     0.024 C 
HETATM   28  C6  UNL     1      19.019   1.809  51.498  1.00  0.00     0.043 C 
BRANCH  27  29
HETATM   29  C4  UNL     1      20.729   0.536  50.525  1.00  0.00     0.030 C 
HETATM   30  C3  UNL     1      21.376   0.884  49.430  1.00  0.00     0.021 C 
BRANCH  30  31
HETATM   31  C2  UNL     1      21.905   2.022  48.730  1.00  0.00     0.009 A 
HETATM   32  C1  UNL     1      22.455   2.460  47.595  1.00  0.00     0.152 A 
HETATM   33 CL1  UNL     1      22.298   3.730  48.701  1.00  0.00    -0.182 Cl
ENDBRANCH  30  31
ENDBRANCH  27  29
ENDBRANCH  25  27
ENDBRANCH   1  25
TORSDOF 7
ENDMDL
MODEL 9
REMARK VINA RESULT:      -7.8      3.327      6.804
REMARK  7 active torsions:
REMARK  status: ('A' for Active; 'I' for Inactive)
REMARK    1  A    between atoms: C2_2  and  C3_4 
REMARK    2  A    between atoms: C4_5  and  C5_6 
REMARK    3  A    between atoms: C5_6  and  N1_8 
REMARK    4  A    between atoms: N1_8  and  C7_9 
REMARK    5  A    between atoms: C11_15  and  O1_16 
REMARK    6  A    between atoms: C13_18  and  N4_19 
REMARK       I    between atoms: N4_19  and  C14_20 
REMARK    7  A    between atoms: C14_20  and  C15_22 
ROOT
HETATM    1  C7  UNL     1      23.831  -0.084  53.452  1.00  0.00     0.142 A 
HETATM    2  N2  UNL     1      23.679  -1.094  54.355  1.00  0.00    -0.224 NA
HETATM    3  C8  UNL     1      22.479  -1.280  54.951  1.00  0.00     0.236 A 
HETATM    4  N3  UNL     1      21.378  -0.529  54.722  1.00  0.00    -0.241 NA
HETATM    5  C9  UNL     1      21.467   0.485  53.839  1.00  0.00     0.075 A 
HETATM    6  C10 UNL     1      20.412   1.295  53.549  1.00  0.00     0.071 A 
HETATM    7  C11 UNL     1      20.476   2.331  52.661  1.00  0.00     0.097 A 
HETATM    8  C13 UNL     1      21.673   2.579  52.017  1.00  0.00     0.069 A 
HETATM    9  C19 UNL     1      22.756   1.745  52.315  1.00  0.00     0.050 A 
HETATM   10  C20 UNL     1      22.704   0.683  53.219  1.00  0.00     0.041 A 
ENDROOT
BRANCH   8  11
HETATM   11  N4  UNL     1      21.944   3.604  51.067  1.00  0.00    -0.323 N 
HETATM   12  C14 UNL     1      21.733   3.718  49.662  1.00  0.00     0.247 C 
HETATM   13  O2  UNL     1      21.194   2.639  49.307  1.00  0.00    -0.271 OA
HETATM   14  H13 UNL     1      22.367   4.271  51.780  1.00  0.00     0.169 HD
BRANCH  12  15
HETATM   15  C15 UNL     1      22.241   5.054  49.254  1.00  0.00     0.208 C 
HETATM   16  N5  UNL     1      23.363   4.878  48.364  1.00  0.00    -0.321 N 
HETATM   17  C16 UNL     1      24.521   5.289  49.094  1.00  0.00     0.361 C 
HETATM   18  H15 UNL     1      23.596   4.562  47.401  1.00  0.00     0.165 HD
HETATM   19  O3  UNL     1      25.779   5.288  48.984  1.00  0.00    -0.238 OA
HETATM   20  O4  UNL     1      24.110   5.869  50.299  1.00  0.00    -0.296 OA
HETATM   21  C17 UNL     1      22.719   5.826  50.432  1.00  0.00     0.161 C 
HETATM   22  C18 UNL     1      22.168   7.244  50.475  1.00  0.00     0.043 C 
ENDBRANCH  12  15
ENDBRANCH   8  11
BRANCH   7  23
HETATM   23  O1  UNL     1      19.463   3.201  52.306  1.00  0.00    -0.354 OA
HETATM   24  C12 UNL     1      18.398   2.692  51.525  1.00  0.00     0.210 C 
ENDBRANCH   7  23
BRANCH   1  25
HETATM   25  N1  UNL     1      25.063   0.190  52.763  1.00  0.00    -0.341 N 
HETATM   26  H7  UNL     1      24.787  -0.354  51.943  1.00  0.00     0.167 HD
BRANCH  25  27
HETATM   27  C5  UNL     1      25.963   0.998  53.496  1.00  0.00     0.024 C 
HETATM   28  C6  UNL     1      26.277   2.182  53.011  1.00  0.00     0.043 C 
BRANCH  27  29
HETATM   29  C4  UNL     1      26.586   0.638  54.746  1.00  0.00     0.030 C 
HETATM   30  C3  UNL     1      27.758   0.047  54.872  1.00  0.00     0.021 C 
BRANCH  30  31
HETATM   31  C2  UNL     1      28.858  -0.478  54.113  1.00  0.00     0.009 A 
HETATM   32  C1  UNL     1      30.011  -0.194  53.501  1.00  0.00     0.152 A 
HETATM   33 CL1  UNL     1      29.652  -1.840  53.345  1.00  0.00    -0.182 Cl
ENDBRANCH  30  31
ENDBRANCH  27  29
ENDBRANCH  25  27
ENDBRANCH   1  25
TORSDOF 7
ENDMDL
