MODEL 1
REMARK VINA RESULT:      -7.6      0.000      0.000
REMARK  3 active torsions:
REMARK  status: ('A' for Active; 'I' for Inactive)
REMARK    1  A    between atoms: C5_5  and  S1_6 
REMARK    2  A    between atoms: S1_6  and  N1_9 
REMARK       I    between atoms: N1_9  and  C6_10 
REMARK    3  A    between atoms: C6_10  and  C7_12 
ROOT
HETATM    1  N1  UNL     1      25.644   4.243  50.931  1.00  0.00    -0.246 N 
HETATM    2  C6  UNL     1      26.413   4.080  49.746  1.00  0.00     0.265 C 
HETATM    3  O3  UNL     1      26.519   2.889  49.357  1.00  0.00    -0.267 OA
HETATM    4  H6  UNL     1      25.522   5.211  51.300  1.00  0.00     0.182 HD
ENDROOT
BRANCH   1   5
HETATM    5  S1  UNL     1      24.961   2.855  51.685  1.00  0.00     0.265 S 
HETATM    6  O1  UNL     1      24.061   2.184  50.718  1.00  0.00    -0.200 OA
HETATM    7  O2  UNL     1      24.144   3.242  52.890  1.00  0.00    -0.200 OA
BRANCH   5   8
HETATM    8  C5  UNL     1      26.236   1.798  52.228  1.00  0.00     0.080 A 
HETATM    9  C4  UNL     1      27.400   2.246  52.808  1.00  0.00     0.026 A 
HETATM   10  C3  UNL     1      28.394   1.373  53.228  1.00  0.00     0.008 A 
HETATM   11  C2  UNL     1      28.228   0.018  53.069  1.00  0.00    -0.062 A 
HETATM   12  C1  UNL     1      29.309  -0.900  53.529  1.00  0.00     0.048 C 
HETATM   13  C13 UNL     1      27.087  -0.485  52.497  1.00  0.00     0.008 A 
HETATM   14  C12 UNL     1      26.132   0.418  52.097  1.00  0.00     0.026 A 
ENDBRANCH   5   8
ENDBRANCH   1   5
BRANCH   2  15
HETATM   15  C7  UNL     1      27.053   5.154  48.994  1.00  0.00     0.035 A 
HETATM   16  C8  UNL     1      26.202   6.221  48.679  1.00  0.00     0.033 A 
HETATM   17  P1  UNL     1      26.904   7.553  47.774  1.00  0.00    -0.032 P 
HETATM   18  C9  UNL     1      28.598   7.248  47.441  1.00  0.00     0.035 A 
HETATM   19  C10 UNL     1      29.087   6.054  47.928  1.00  0.00     0.013 A 
HETATM   20 BR1  UNL     1      30.955   5.788  47.525  1.00  0.00    -0.051 Br
HETATM   21  C11 UNL     1      28.357   5.148  48.617  1.00  0.00     0.036 A 
ENDBRANCH   2  15
TORSDOF 3
ENDMDL
MODEL 2
REMARK VINA RESULT:      -7.2      4.076      7.348
REMARK  3 active torsions:
REMARK  status: ('A' for Active; 'I' for Inactive)
REMARK    1  A    between atoms: C5_5  and  S1_6 
REMARK    2  A    between atoms: S1_6  and  N1_9 
REMARK       I    between atoms: N1_9  and  C6_10 
REMARK    3  A    between atoms: C6_10  and  C7_12 
ROOT
HETATM    1  N1  UNL     1      25.481   3.588  50.998  1.00  0.00    -0.246 N 
HETATM    2  C6  UNL     1      24.471   2.889  51.714  1.00  0.00     0.265 C 
HETATM    3  O3  UNL     1      23.308   3.330  51.532  1.00  0.00    -0.267 OA
HETATM    4  H6  UNL     1      26.467   3.265  51.111  1.00  0.00     0.182 HD
ENDROOT
BRANCH   1   5
HETATM    5  S1  UNL     1      25.035   4.911  49.993  1.00  0.00     0.265 S 
HETATM    6  O1  UNL     1      24.392   5.949  50.833  1.00  0.00    -0.200 OA
HETATM    7  O2  UNL     1      24.042   4.482  48.944  1.00  0.00    -0.200 OA
BRANCH   5   8
HETATM    8  C5  UNL     1      26.444   5.522  49.169  1.00  0.00     0.080 A 
HETATM    9  C4  UNL     1      27.542   4.750  48.868  1.00  0.00     0.026 A 
HETATM   10  C3  UNL     1      28.647   5.273  48.210  1.00  0.00     0.008 A 
HETATM   11  C2  UNL     1      28.662   6.596  47.841  1.00  0.00    -0.062 A 
HETATM   12  C1  UNL     1      29.860   7.134  47.135  1.00  0.00     0.048 C 
HETATM   13  C13 UNL     1      27.594   7.413  48.115  1.00  0.00     0.008 A 
HETATM   14  C12 UNL     1      26.524   6.850  48.768  1.00  0.00     0.026 A 
ENDBRANCH   5   8
ENDBRANCH   1   5
BRANCH   2  15
HETATM   15  C7  UNL     1      24.690   1.753  52.602  1.00  0.00     0.035 A 
HETATM   16  C8  UNL     1      26.011   1.619  53.048  1.00  0.00     0.033 A 
HETATM   17  P1  UNL     1      26.351   0.271  54.122  1.00  0.00    -0.032 P 
HETATM   18  C9  UNL     1      24.897  -0.664  54.419  1.00  0.00     0.035 A 
HETATM   19  C10 UNL     1      23.763  -0.204  53.784  1.00  0.00     0.013 A 
HETATM   20 BR1  UNL     1      22.206  -1.279  54.157  1.00  0.00    -0.051 Br
HETATM   21  C11 UNL     1      23.719   0.883  52.979  1.00  0.00     0.036 A 
ENDBRANCH   2  15
TORSDOF 3
ENDMDL
MODEL 3
REMARK VINA RESULT:      -6.9      3.320      6.902
REMARK  3 active torsions:
REMARK  status: ('A' for Active; 'I' for Inactive)
REMARK    1  A    between atoms: C5_5  and  S1_6 
REMARK    2  A    between atoms: S1_6  and  N1_9 
REMARK       I    between atoms: N1_9  and  C6_10 
REMARK    3  A    between atoms: C6_10  and  C7_12 
ROOT
HETATM    1  N1  UNL     1      26.154   4.108  50.614  1.00  0.00    -0.246 N 
HETATM    2  C6  UNL     1      25.230   3.245  51.264  1.00  0.00     0.265 C 
HETATM    3  O3  UNL     1      24.024   3.556  51.097  1.00  0.00    -0.267 OA
HETATM    4  H6  UNL     1      27.170   3.898  50.718  1.00  0.00     0.182 HD
ENDROOT
BRANCH   1   5
HETATM    5  S1  UNL     1      25.557   5.438  49.700  1.00  0.00     0.265 S 
HETATM    6  O1  UNL     1      24.989   6.440  50.634  1.00  0.00    -0.200 OA
HETATM    7  O2  UNL     1      24.461   5.002  48.762  1.00  0.00    -0.200 OA
BRANCH   5   8
HETATM    8  C5  UNL     1      26.843   6.108  48.732  1.00  0.00     0.080 A 
HETATM    9  C4  UNL     1      26.740   7.297  48.049  1.00  0.00     0.026 A 
HETATM   10  C3  UNL     1      27.787   7.799  47.288  1.00  0.00     0.008 A 
HETATM   11  C2  UNL     1      28.968   7.102  47.203  1.00  0.00    -0.062 A 
HETATM   12  C1  UNL     1      30.078   7.661  46.380  1.00  0.00     0.048 C 
HETATM   13  C13 UNL     1      29.127   5.910  47.864  1.00  0.00     0.008 A 
HETATM   14  C12 UNL     1      28.064   5.454  48.604  1.00  0.00     0.026 A 
ENDBRANCH   5   8
ENDBRANCH   1   5
BRANCH   2  15
HETATM   15  C7  UNL     1      25.579   2.081  52.071  1.00  0.00     0.035 A 
HETATM   16  C8  UNL     1      24.492   1.257  52.391  1.00  0.00     0.033 A 
HETATM   17  P1  UNL     1      24.835  -0.166  53.361  1.00  0.00    -0.032 P 
HETATM   18  C9  UNL     1      26.545  -0.255  53.743  1.00  0.00     0.035 A 
HETATM   19  C10 UNL     1      27.314   0.770  53.235  1.00  0.00     0.013 A 
HETATM   20 BR1  UNL     1      29.181   0.605  53.693  1.00  0.00    -0.051 Br
HETATM   21  C11 UNL     1      26.837   1.795  52.492  1.00  0.00     0.036 A 
ENDBRANCH   2  15
TORSDOF 3
ENDMDL
MODEL 4
REMARK VINA RESULT:      -6.9      1.769      2.265
REMARK  3 active torsions:
REMARK  status: ('A' for Active; 'I' for Inactive)
REMARK    1  A    between atoms: C5_5  and  S1_6 
REMARK    2  A    between atoms: S1_6  and  N1_9 
REMARK       I    between atoms: N1_9  and  C6_10 
REMARK    3  A    between atoms: C6_10  and  C7_12 
ROOT
HETATM    1  N1  UNL     1      26.463   4.478  49.790  1.00  0.00    -0.246 N 
HETATM    2  C6  UNL     1      26.524   5.580  48.894  1.00  0.00     0.265 C 
HETATM    3  O3  UNL     1      25.402   5.991  48.502  1.00  0.00    -0.267 OA
HETATM    4  H6  UNL     1      27.364   4.094  50.149  1.00  0.00     0.182 HD
ENDROOT
BRANCH   1   5
HETATM    5  S1  UNL     1      24.927   3.841  50.234  1.00  0.00     0.265 S 
HETATM    6  O1  UNL     1      24.171   3.523  49.000  1.00  0.00    -0.200 OA
HETATM    7  O2  UNL     1      24.131   4.849  51.021  1.00  0.00    -0.200 OA
BRANCH   5   8
HETATM    8  C5  UNL     1      25.145   2.437  51.243  1.00  0.00     0.080 A 
HETATM    9  C4  UNL     1      24.148   1.900  52.023  1.00  0.00     0.026 A 
HETATM   10  C3  UNL     1      24.359   0.780  52.816  1.00  0.00     0.008 A 
HETATM   11  C2  UNL     1      25.593   0.176  52.833  1.00  0.00    -0.062 A 
HETATM   12  C1  UNL     1      25.796  -1.027  53.691  1.00  0.00     0.048 C 
HETATM   13  C13 UNL     1      26.625   0.669  52.075  1.00  0.00     0.008 A 
HETATM   14  C12 UNL     1      26.367   1.778  51.308  1.00  0.00     0.026 A 
ENDBRANCH   5   8
ENDBRANCH   1   5
BRANCH   2  15
HETATM   15  C7  UNL     1      27.743   6.228  48.425  1.00  0.00     0.035 A 
HETATM   16  C8  UNL     1      27.614   7.605  48.207  1.00  0.00     0.033 A 
HETATM   17  P1  UNL     1      29.044   8.455  47.641  1.00  0.00    -0.032 P 
HETATM   18  C9  UNL     1      30.390   7.345  47.461  1.00  0.00     0.035 A 
HETATM   19  C10 UNL     1      30.117   6.033  47.783  1.00  0.00     0.013 A 
HETATM   20 BR1  UNL     1      31.642   4.873  47.562  1.00  0.00    -0.051 Br
HETATM   21  C11 UNL     1      28.916   5.579  48.210  1.00  0.00     0.036 A 
ENDBRANCH   2  15
TORSDOF 3
ENDMDL
MODEL 5
REMARK VINA RESULT:      -6.8      2.939      3.875
REMARK  3 active torsions:
REMARK  status: ('A' for Active; 'I' for Inactive)
REMARK    1  A    between atoms: C5_5  and  S1_6 
REMARK    2  A    between atoms: S1_6  and  N1_9 
REMARK       I    between atoms: N1_9  and  C6_10 
REMARK    3  A    between atoms: C6_10  and  C7_12 
ROOT
HETATM    1  N1  UNL     1      25.019   2.971  51.447  1.00  0.00    -0.246 N 
HETATM    2  C6  UNL     1      25.922   3.625  50.565  1.00  0.00     0.265 C 
HETATM    3  O3  UNL     1      27.089   3.156  50.577  1.00  0.00    -0.267 OA
HETATM    4  H6  UNL     1      24.035   3.317  51.479  1.00  0.00     0.182 HD
ENDROOT
BRANCH   1   5
HETATM    5  S1  UNL     1      25.584   1.657  52.403  1.00  0.00     0.265 S 
HETATM    6  O1  UNL     1      26.392   2.198  53.523  1.00  0.00    -0.200 OA
HETATM    7  O2  UNL     1      26.465   0.739  51.596  1.00  0.00    -0.200 OA
BRANCH   5   8
HETATM    8  C5  UNL     1      24.228   0.721  52.972  1.00  0.00     0.080 A 
HETATM    9  C4  UNL     1      24.344  -0.316  53.869  1.00  0.00     0.026 A 
HETATM   10  C3  UNL     1      23.240  -1.040  54.299  1.00  0.00     0.008 A 
HETATM   11  C2  UNL     1      21.988  -0.725  53.828  1.00  0.00    -0.062 A 
HETATM   12  C1  UNL     1      20.818  -1.516  54.306  1.00  0.00     0.048 C 
HETATM   13  C13 UNL     1      21.814   0.300  52.932  1.00  0.00     0.008 A 
HETATM   14  C12 UNL     1      22.936   0.986  52.536  1.00  0.00     0.026 A 
ENDBRANCH   5   8
ENDBRANCH   1   5
BRANCH   2  15
HETATM   15  C7  UNL     1      25.595   4.748  49.694  1.00  0.00     0.035 A 
HETATM   16  C8  UNL     1      24.222   4.937  49.492  1.00  0.00     0.033 A 
HETATM   17  P1  UNL     1      23.751   6.273  48.453  1.00  0.00    -0.032 P 
HETATM   18  C9  UNL     1      25.166   7.123  47.861  1.00  0.00     0.035 A 
HETATM   19  C10 UNL     1      26.376   6.622  48.293  1.00  0.00     0.013 A 
HETATM   20 BR1  UNL     1      27.885   7.606  47.604  1.00  0.00    -0.051 Br
HETATM   21  C11 UNL     1      26.518   5.556  49.113  1.00  0.00     0.036 A 
ENDBRANCH   2  15
TORSDOF 3
ENDMDL
MODEL 6
REMARK VINA RESULT:      -6.8      6.080      7.619
REMARK  3 active torsions:
REMARK  status: ('A' for Active; 'I' for Inactive)
REMARK    1  A    between atoms: C5_5  and  S1_6 
REMARK    2  A    between atoms: S1_6  and  N1_9 
REMARK       I    between atoms: N1_9  and  C6_10 
REMARK    3  A    between atoms: C6_10  and  C7_12 
ROOT
HETATM    1  N1  UNL     1      21.962   2.326  52.238  1.00  0.00    -0.246 N 
HETATM    2  C6  UNL     1      21.418   1.514  51.206  1.00  0.00     0.265 C 
HETATM    3  O3  UNL     1      22.228   1.233  50.287  1.00  0.00    -0.267 OA
HETATM    4  H6  UNL     1      21.335   2.592  53.028  1.00  0.00     0.182 HD
ENDROOT
BRANCH   1   5
HETATM    5  S1  UNL     1      23.606   2.824  52.135  1.00  0.00     0.265 S 
HETATM    6  O1  UNL     1      23.851   3.869  53.157  1.00  0.00    -0.200 OA
HETATM    7  O2  UNL     1      23.909   3.415  50.783  1.00  0.00    -0.200 OA
BRANCH   5   8
HETATM    8  C5  UNL     1      24.650   1.445  52.353  1.00  0.00     0.080 A 
HETATM    9  C4  UNL     1      24.327   0.366  53.143  1.00  0.00     0.026 A 
HETATM   10  C3  UNL     1      25.185  -0.715  53.293  1.00  0.00     0.008 A 
HETATM   11  C2  UNL     1      26.395  -0.726  52.641  1.00  0.00    -0.062 A 
HETATM   12  C1  UNL     1      27.299  -1.899  52.818  1.00  0.00     0.048 C 
HETATM   13  C13 UNL     1      26.768   0.323  51.841  1.00  0.00     0.008 A 
HETATM   14  C12 UNL     1      25.886   1.370  51.723  1.00  0.00     0.026 A 
ENDBRANCH   5   8
ENDBRANCH   1   5
BRANCH   2  15
HETATM   15  C7  UNL     1      20.049   1.014  51.151  1.00  0.00     0.035 A 
HETATM   16  C8  UNL     1      19.270   1.584  50.135  1.00  0.00     0.033 A 
HETATM   17  P1  UNL     1      17.609   1.029  50.007  1.00  0.00    -0.032 P 
HETATM   18  C9  UNL     1      17.262  -0.173  51.236  1.00  0.00     0.035 A 
HETATM   19  C10 UNL     1      18.314  -0.478  52.073  1.00  0.00     0.013 A 
HETATM   20 BR1  UNL     1      17.861  -1.806  53.396  1.00  0.00    -0.051 Br
HETATM   21  C11 UNL     1      19.544   0.081  51.997  1.00  0.00     0.036 A 
ENDBRANCH   2  15
TORSDOF 3
ENDMDL
MODEL 7
REMARK VINA RESULT:      -6.7      3.928      6.936
REMARK  3 active torsions:
REMARK  status: ('A' for Active; 'I' for Inactive)
REMARK    1  A    between atoms: C5_5  and  S1_6 
REMARK    2  A    between atoms: S1_6  and  N1_9 
REMARK       I    between atoms: N1_9  and  C6_10 
REMARK    3  A    between atoms: C6_10  and  C7_12 
ROOT
HETATM    1  N1  UNL     1      23.463   3.233  50.041  1.00  0.00    -0.246 N 
HETATM    2  C6  UNL     1      23.790   3.082  51.417  1.00  0.00     0.265 C 
HETATM    3  O3  UNL     1      24.093   4.155  51.998  1.00  0.00    -0.267 OA
HETATM    4  H6  UNL     1      23.203   2.376  49.507  1.00  0.00     0.182 HD
ENDROOT
BRANCH   1   5
HETATM    5  S1  UNL     1      23.510   4.802  49.336  1.00  0.00     0.265 S 
HETATM    6  O1  UNL     1      22.891   5.765  50.278  1.00  0.00    -0.200 OA
HETATM    7  O2  UNL     1      22.726   4.841  48.050  1.00  0.00    -0.200 OA
BRANCH   5   8
HETATM    8  C5  UNL     1      25.159   5.226  48.962  1.00  0.00     0.080 A 
HETATM    9  C4  UNL     1      26.213   4.350  49.073  1.00  0.00     0.026 A 
HETATM   10  C3  UNL     1      27.514   4.724  48.766  1.00  0.00     0.008 A 
HETATM   11  C2  UNL     1      27.775   6.003  48.336  1.00  0.00    -0.062 A 
HETATM   12  C1  UNL     1      29.181   6.382  48.012  1.00  0.00     0.048 C 
HETATM   13  C13 UNL     1      26.762   6.919  48.207  1.00  0.00     0.008 A 
HETATM   14  C12 UNL     1      25.492   6.502  48.522  1.00  0.00     0.026 A 
ENDBRANCH   5   8
ENDBRANCH   1   5
BRANCH   2  15
HETATM   15  C7  UNL     1      23.796   1.824  52.155  1.00  0.00     0.035 A 
HETATM   16  C8  UNL     1      22.553   1.472  52.698  1.00  0.00     0.033 A 
HETATM   17  P1  UNL     1      22.483  -0.033  53.602  1.00  0.00    -0.032 P 
HETATM   18  C9  UNL     1      24.056  -0.807  53.635  1.00  0.00     0.035 A 
HETATM   19  C10 UNL     1      25.057  -0.134  52.968  1.00  0.00     0.013 A 
HETATM   20 BR1  UNL     1      26.756  -1.044  53.046  1.00  0.00    -0.051 Br
HETATM   21  C11 UNL     1      24.893   1.043  52.320  1.00  0.00     0.036 A 
ENDBRANCH   2  15
TORSDOF 3
ENDMDL
MODEL 8
REMARK VINA RESULT:      -6.7      2.416      2.931
REMARK  3 active torsions:
REMARK  status: ('A' for Active; 'I' for Inactive)
REMARK    1  A    between atoms: C5_5  and  S1_6 
REMARK    2  A    between atoms: S1_6  and  N1_9 
REMARK       I    between atoms: N1_9  and  C6_10 
REMARK    3  A    between atoms: C6_10  and  C7_12 
ROOT
HETATM    1  N1  UNL     1      25.665   3.597  50.825  1.00  0.00    -0.246 N 
HETATM    2  C6  UNL     1      24.741   4.548  50.313  1.00  0.00     0.265 C 
HETATM    3  O3  UNL     1      23.572   4.426  50.759  1.00  0.00    -0.267 OA
HETATM    4  H6  UNL     1      26.652   3.651  50.490  1.00  0.00     0.182 HD
ENDROOT
BRANCH   1   5
HETATM    5  S1  UNL     1      25.120   2.421  51.956  1.00  0.00     0.265 S 
HETATM    6  O1  UNL     1      24.048   1.616  51.324  1.00  0.00    -0.200 OA
HETATM    7  O2  UNL     1      24.544   3.078  53.184  1.00  0.00    -0.200 OA
BRANCH   5   8
HETATM    8  C5  UNL     1      26.461   1.433  52.466  1.00  0.00     0.080 A 
HETATM    9  C4  UNL     1      26.461   0.059  52.398  1.00  0.00     0.026 A 
HETATM   10  C3  UNL     1      27.549  -0.696  52.815  1.00  0.00     0.008 A 
HETATM   11  C2  UNL     1      28.668  -0.070  53.311  1.00  0.00    -0.062 A 
HETATM   12  C1  UNL     1      29.824  -0.902  53.751  1.00  0.00     0.048 C 
HETATM   13  C13 UNL     1      28.723   1.298  53.401  1.00  0.00     0.008 A 
HETATM   14  C12 UNL     1      27.622   2.001  52.977  1.00  0.00     0.026 A 
ENDBRANCH   5   8
ENDBRANCH   1   5
BRANCH   2  15
HETATM   15  C7  UNL     1      25.049   5.602  49.353  1.00  0.00     0.035 A 
HETATM   16  C8  UNL     1      26.382   6.032  49.382  1.00  0.00     0.033 A 
HETATM   17  P1  UNL     1      26.829   7.300  48.251  1.00  0.00    -0.032 P 
HETATM   18  C9  UNL     1      25.447   7.780  47.284  1.00  0.00     0.035 A 
HETATM   19  C10 UNL     1      24.276   7.107  47.558  1.00  0.00     0.013 A 
HETATM   20 BR1  UNL     1      22.801   7.686  46.457  1.00  0.00    -0.051 Br
HETATM   21  C11 UNL     1      24.146   6.139  48.494  1.00  0.00     0.036 A 
ENDBRANCH   2  15
TORSDOF 3
ENDMDL
MODEL 9
REMARK VINA RESULT:      -6.6      1.991      2.346
REMARK  3 active torsions:
REMARK  status: ('A' for Active; 'I' for Inactive)
REMARK    1  A    between atoms: C5_5  and  S1_6 
REMARK    2  A    between atoms: S1_6  and  N1_9 
REMARK       I    between atoms: N1_9  and  C6_10 
REMARK    3  A    between atoms: C6_10  and  C7_12 
ROOT
HETATM    1  N1  UNL     1      25.188   4.748  50.764  1.00  0.00    -0.246 N 
HETATM    2  C6  UNL     1      24.792   6.090  50.508  1.00  0.00     0.265 C 
HETATM    3  O3  UNL     1      23.660   6.392  50.965  1.00  0.00    -0.267 OA
HETATM    4  H6  UNL     1      26.119   4.441  50.409  1.00  0.00     0.182 HD
ENDROOT
BRANCH   1   5
HETATM    5  S1  UNL     1      24.125   3.712  51.635  1.00  0.00     0.265 S 
HETATM    6  O1  UNL     1      22.888   3.526  50.841  1.00  0.00    -0.200 OA
HETATM    7  O2  UNL     1      23.742   4.320  52.959  1.00  0.00    -0.200 OA
BRANCH   5   8
HETATM    8  C5  UNL     1      24.923   2.197  51.962  1.00  0.00     0.080 A 
HETATM    9  C4  UNL     1      26.190   1.894  51.519  1.00  0.00     0.026 A 
HETATM   10  C3  UNL     1      26.793   0.676  51.798  1.00  0.00     0.008 A 
HETATM   11  C2  UNL     1      26.121  -0.268  52.539  1.00  0.00    -0.062 A 
HETATM   12  C1  UNL     1      26.790  -1.569  52.827  1.00  0.00     0.048 C 
HETATM   13  C13 UNL     1      24.855  -0.019  53.006  1.00  0.00     0.008 A 
HETATM   14  C12 UNL     1      24.300   1.200  52.704  1.00  0.00     0.026 A 
ENDBRANCH   5   8
ENDBRANCH   1   5
BRANCH   2  15
HETATM   15  C7  UNL     1      25.578   7.085  49.788  1.00  0.00     0.035 A 
HETATM   16  C8  UNL     1      25.065   8.386  49.863  1.00  0.00     0.033 A 
HETATM   17  P1  UNL     1      25.960   9.639  49.018  1.00  0.00    -0.032 P 
HETATM   18  C9  UNL     1      27.369   8.963  48.223  1.00  0.00     0.035 A 
HETATM   19  C10 UNL     1      27.540   7.605  48.386  1.00  0.00     0.013 A 
HETATM   20 BR1  UNL     1      29.108   6.932  47.486  1.00  0.00    -0.051 Br
HETATM   21  C11 UNL     1      26.711   6.805  49.095  1.00  0.00     0.036 A 
ENDBRANCH   2  15
TORSDOF 3
ENDMDL
