MODEL 1
REMARK VINA RESULT:      -8.0      0.000      0.000
REMARK  8 active torsions:
REMARK  status: ('A' for Active; 'I' for Inactive)
REMARK    1  A    between atoms: S1_2  and  C2_5 
REMARK    2  A    between atoms: C2_5  and  C3_6 
REMARK    3  A    between atoms: C3_6  and  N1_7 
REMARK    4  A    between atoms: N1_7  and  C4_8 
REMARK    5  A    between atoms: C12_18  and  N4_19 
REMARK    6  A    between atoms: C12_18  and  C20_29 
REMARK    7  A    between atoms: N4_19  and  C13_20 
REMARK    8  A    between atoms: C20_29  and  C21_30 
ROOT
HETATM    1  C4  UNL     1      21.182   4.024  50.972  1.00  0.00     0.017 A 
HETATM    2  C5  UNL     1      20.634   3.639  52.097  1.00  0.00     0.067 A 
HETATM    3  C6  UNL     1      20.034   2.318  51.594  1.00  0.00     0.024 C 
HETATM    4  C7  UNL     1      21.291   1.750  50.834  1.00  0.00    -0.025 A 
HETATM    5  C8  UNL     1      21.442   1.015  49.681  1.00  0.00     0.006 A 
HETATM    6  C9  UNL     1      22.570   1.522  50.195  1.00  0.00     0.011 A 
HETATM    7  C10 UNL     1      23.170   2.229  51.136  1.00  0.00    -0.009 A 
HETATM    8  N2  UNL     1      23.320   3.364  52.075  1.00  0.00     0.000 N 
HETATM    9  C11 UNL     1      22.245   4.311  51.973  1.00  0.00     0.105 A 
HETATM   10  N3  UNL     1      23.197   4.584  52.884  1.00  0.00    -0.200 NA
HETATM   11  C12 UNL     1      24.216   3.683  52.980  1.00  0.00     0.132 A 
HETATM   12  C20 UNL     1      23.705   2.884  52.012  1.00  0.00     0.025 A 
HETATM   13  C21 UNL     1      22.542   2.235  51.286  1.00  0.00     0.019 A 
ENDROOT
BRANCH  11  14
HETATM   14  N4  UNL     1      25.171   2.670  52.955  1.00  0.00    -0.269 NA
HETATM   15  H14 UNL     1      25.005   2.884  53.993  1.00  0.00     0.129 HD
BRANCH  14  16
HETATM   16  C13 UNL     1      26.101   1.715  53.453  1.00  0.00    -0.009 C 
HETATM   17  C14 UNL     1      27.253   2.402  53.415  1.00  0.00     0.021 C 
HETATM   18  C15 UNL     1      28.587   1.981  53.796  1.00  0.00     0.026 C 
HETATM   19  C16 UNL     1      29.318   0.870  53.737  1.00  0.00     0.143 C 
HETATM   20  O3  UNL     1      28.992  -0.400  53.223  1.00  0.00    -0.311 OA
HETATM   21  C17 UNL     1      27.778  -1.119  53.205  1.00  0.00     0.140 C 
HETATM   22 CL1  UNL     1      28.024  -2.783  52.768  1.00  0.00    -0.057 Cl
HETATM   23  C18 UNL     1      26.518  -0.716  53.466  1.00  0.00     0.029 C 
HETATM   24  C19 UNL     1      25.610   0.365  53.846  1.00  0.00     0.081 C 
ENDBRANCH  14  16
ENDBRANCH  11  14
BRANCH   1  25
HETATM   25  N1  UNL     1      21.717   4.322  49.706  1.00  0.00    -0.393 N 
HETATM   26  H8  UNL     1      21.436   3.582  49.014  1.00  0.00     0.159 HD
BRANCH  25  27
HETATM   27  C3  UNL     1      22.515   5.500  49.482  1.00  0.00     0.134 C 
BRANCH  27  28
HETATM   28  C2  UNL     1      23.753   5.160  48.734  1.00  0.00     0.159 C 
BRANCH  28  29
HETATM   29  S1  UNL     1      25.212   5.670  49.553  1.00  0.00     0.142 S 
HETATM   30  C1  UNL     1      26.162   6.666  48.411  1.00  0.00     0.161 C 
HETATM   31  O1  UNL     1      26.008   4.512  50.033  1.00  0.00    -0.228 OA
HETATM   32  O2  UNL     1      24.879   6.535  50.751  1.00  0.00    -0.228 OA
ENDBRANCH  28  29
ENDBRANCH  27  28
ENDBRANCH  25  27
ENDBRANCH   1  25
TORSDOF 8
ENDMDL
MODEL 2
REMARK VINA RESULT:      -8.0      1.938      2.543
REMARK  8 active torsions:
REMARK  status: ('A' for Active; 'I' for Inactive)
REMARK    1  A    between atoms: S1_2  and  C2_5 
REMARK    2  A    between atoms: C2_5  and  C3_6 
REMARK    3  A    between atoms: C3_6  and  N1_7 
REMARK    4  A    between atoms: N1_7  and  C4_8 
REMARK    5  A    between atoms: C12_18  and  N4_19 
REMARK    6  A    between atoms: C12_18  and  C20_29 
REMARK    7  A    between atoms: N4_19  and  C13_20 
REMARK    8  A    between atoms: C20_29  and  C21_30 
ROOT
HETATM    1  C4  UNL     1      20.760   2.887  50.618  1.00  0.00     0.017 A 
HETATM    2  C5  UNL     1      20.305   1.660  50.653  1.00  0.00     0.067 A 
HETATM    3  C6  UNL     1      20.412   1.357  49.151  1.00  0.00     0.024 C 
HETATM    4  C7  UNL     1      21.872   1.888  48.896  1.00  0.00    -0.025 A 
HETATM    5  C8  UNL     1      22.470   2.530  47.837  1.00  0.00     0.006 A 
HETATM    6  C9  UNL     1      23.188   2.487  48.966  1.00  0.00     0.011 A 
HETATM    7  C10 UNL     1      23.298   2.109  50.227  1.00  0.00    -0.009 A 
HETATM    8  N2  UNL     1      22.819   1.888  51.611  1.00  0.00     0.000 N 
HETATM    9  C11 UNL     1      21.459   2.308  51.797  1.00  0.00     0.105 A 
HETATM   10  N3  UNL     1      22.075   1.785  52.874  1.00  0.00    -0.200 NA
HETATM   11  C12 UNL     1      23.367   1.386  52.692  1.00  0.00     0.132 A 
HETATM   12  C20 UNL     1      23.380   1.752  51.388  1.00  0.00     0.025 A 
HETATM   13  C21 UNL     1      22.718   1.902  50.031  1.00  0.00     0.019 A 
ENDROOT
BRANCH  11  14
HETATM   14  N4  UNL     1      24.665   1.025  52.340  1.00  0.00    -0.269 NA
HETATM   15  H14 UNL     1      24.745   1.482  53.308  1.00  0.00     0.129 HD
BRANCH  14  16
HETATM   16  C13 UNL     1      26.076   0.883  52.454  1.00  0.00    -0.009 C 
HETATM   17  C14 UNL     1      26.206  -0.437  52.660  1.00  0.00     0.021 C 
HETATM   18  C15 UNL     1      27.410  -1.221  52.858  1.00  0.00     0.026 C 
HETATM   19  C16 UNL     1      28.589  -1.072  53.458  1.00  0.00     0.143 C 
HETATM   20  O3  UNL     1      29.105   0.022  54.178  1.00  0.00    -0.311 OA
HETATM   21  C17 UNL     1      28.939   1.413  54.012  1.00  0.00     0.140 C 
HETATM   22 CL1  UNL     1      30.087   2.314  54.956  1.00  0.00    -0.057 Cl
HETATM   23  C18 UNL     1      28.058   2.107  53.262  1.00  0.00     0.029 C 
HETATM   24  C19 UNL     1      26.937   2.091  52.324  1.00  0.00     0.081 C 
ENDBRANCH  14  16
ENDBRANCH  11  14
BRANCH   1  25
HETATM   25  N1  UNL     1      21.258   4.190  50.442  1.00  0.00    -0.393 N 
HETATM   26  H8  UNL     1      21.665   4.292  49.479  1.00  0.00     0.159 HD
BRANCH  25  27
HETATM   27  C3  UNL     1      21.171   5.178  51.487  1.00  0.00     0.134 C 
BRANCH  27  28
HETATM   28  C2  UNL     1      21.737   6.475  51.031  1.00  0.00     0.159 C 
BRANCH  28  29
HETATM   29  S1  UNL     1      23.371   6.336  50.424  1.00  0.00     0.142 S 
HETATM   30  C1  UNL     1      24.182   7.911  50.665  1.00  0.00     0.161 C 
HETATM   31  O1  UNL     1      23.394   5.943  48.992  1.00  0.00    -0.228 OA
HETATM   32  O2  UNL     1      24.145   5.295  51.204  1.00  0.00    -0.228 OA
ENDBRANCH  28  29
ENDBRANCH  27  28
ENDBRANCH  25  27
ENDBRANCH   1  25
TORSDOF 8
ENDMDL
MODEL 3
REMARK VINA RESULT:      -8.0      3.156      5.267
REMARK  8 active torsions:
REMARK  status: ('A' for Active; 'I' for Inactive)
REMARK    1  A    between atoms: S1_2  and  C2_5 
REMARK    2  A    between atoms: C2_5  and  C3_6 
REMARK    3  A    between atoms: C3_6  and  N1_7 
REMARK    4  A    between atoms: N1_7  and  C4_8 
REMARK    5  A    between atoms: C12_18  and  N4_19 
REMARK    6  A    between atoms: C12_18  and  C20_29 
REMARK    7  A    between atoms: N4_19  and  C13_20 
REMARK    8  A    between atoms: C20_29  and  C21_30 
ROOT
HETATM    1  C4  UNL     1      25.568   8.033  49.646  1.00  0.00     0.017 A 
HETATM    2  C5  UNL     1      24.569   7.878  48.813  1.00  0.00     0.067 A 
HETATM    3  C6  UNL     1      25.395   7.663  47.537  1.00  0.00     0.024 C 
HETATM    4  C7  UNL     1      26.427   6.608  48.086  1.00  0.00    -0.025 A 
HETATM    5  C8  UNL     1      27.762   6.381  47.845  1.00  0.00     0.006 A 
HETATM    6  C9  UNL     1      27.240   5.709  48.878  1.00  0.00     0.011 A 
HETATM    7  C10 UNL     1      26.195   5.424  49.634  1.00  0.00    -0.009 A 
HETATM    8  N2  UNL     1      24.968   5.733  50.403  1.00  0.00     0.000 N 
HETATM    9  C11 UNL     1      24.649   7.133  50.395  1.00  0.00     0.105 A 
HETATM   10  N3  UNL     1      23.807   6.333  51.075  1.00  0.00    -0.200 NA
HETATM   11  C12 UNL     1      24.112   5.004  51.080  1.00  0.00     0.132 A 
HETATM   12  C20 UNL     1      25.220   5.174  50.320  1.00  0.00     0.025 A 
HETATM   13  C21 UNL     1      25.983   5.848  49.196  1.00  0.00     0.019 A 
ENDROOT
BRANCH  11  14
HETATM   14  N4  UNL     1      24.558   3.688  50.982  1.00  0.00    -0.269 NA
HETATM   15  H14 UNL     1      24.400   3.862  52.029  1.00  0.00     0.129 HD
BRANCH  14  16
HETATM   16  C13 UNL     1      24.956   2.391  51.408  1.00  0.00    -0.009 C 
HETATM   17  C14 UNL     1      23.824   1.917  51.952  1.00  0.00     0.021 C 
HETATM   18  C15 UNL     1      23.572   0.631  52.572  1.00  0.00     0.026 C 
HETATM   19  C16 UNL     1      24.231  -0.233  53.342  1.00  0.00     0.143 C 
HETATM   20  O3  UNL     1      25.538  -0.164  53.862  1.00  0.00    -0.311 OA
HETATM   21  C17 UNL     1      26.729   0.375  53.332  1.00  0.00     0.140 C 
HETATM   22 CL1  UNL     1      28.123  -0.132  54.239  1.00  0.00    -0.057 Cl
HETATM   23  C18 UNL     1      26.928   1.188  52.275  1.00  0.00     0.029 C 
HETATM   24  C19 UNL     1      26.357   1.948  51.164  1.00  0.00     0.081 C 
ENDBRANCH  14  16
ENDBRANCH  11  14
BRANCH   1  25
HETATM   25  N1  UNL     1      26.725   8.185  50.430  1.00  0.00    -0.393 N 
HETATM   26  H8  UNL     1      26.929   7.293  50.947  1.00  0.00     0.159 HD
BRANCH  25  27
HETATM   27  C3  UNL     1      27.465   9.421  50.450  1.00  0.00     0.134 C 
BRANCH  27  28
HETATM   28  C2  UNL     1      28.006   9.730  49.101  1.00  0.00     0.159 C 
BRANCH  28  29
HETATM   29  S1  UNL     1      27.511  11.299  48.506  1.00  0.00     0.142 S 
HETATM   30  C1  UNL     1      27.960  11.396  46.778  1.00  0.00     0.161 C 
HETATM   31  O1  UNL     1      28.136  12.402  49.278  1.00  0.00    -0.228 OA
HETATM   32  O2  UNL     1      26.008  11.457  48.601  1.00  0.00    -0.228 OA
ENDBRANCH  28  29
ENDBRANCH  27  28
ENDBRANCH  25  27
ENDBRANCH   1  25
TORSDOF 8
ENDMDL
MODEL 4
REMARK VINA RESULT:      -7.9      4.362      7.445
REMARK  8 active torsions:
REMARK  status: ('A' for Active; 'I' for Inactive)
REMARK    1  A    between atoms: S1_2  and  C2_5 
REMARK    2  A    between atoms: C2_5  and  C3_6 
REMARK    3  A    between atoms: C3_6  and  N1_7 
REMARK    4  A    between atoms: N1_7  and  C4_8 
REMARK    5  A    between atoms: C12_18  and  N4_19 
REMARK    6  A    between atoms: C12_18  and  C20_29 
REMARK    7  A    between atoms: N4_19  and  C13_20 
REMARK    8  A    between atoms: C20_29  and  C21_30 
ROOT
HETATM    1  C4  UNL     1      24.689   3.209  50.574  1.00  0.00     0.017 A 
HETATM    2  C5  UNL     1      24.300   3.053  49.333  1.00  0.00     0.067 A 
HETATM    3  C6  UNL     1      22.969   3.812  49.437  1.00  0.00     0.024 C 
HETATM    4  C7  UNL     1      23.479   5.102  50.183  1.00  0.00    -0.025 A 
HETATM    5  C8  UNL     1      22.922   5.919  51.140  1.00  0.00     0.006 A 
HETATM    6  C9  UNL     1      24.224   6.118  50.896  1.00  0.00     0.011 A 
HETATM    7  C10 UNL     1      25.315   5.794  50.225  1.00  0.00    -0.009 A 
HETATM    8  N2  UNL     1      26.284   4.863  49.604  1.00  0.00     0.000 N 
HETATM    9  C11 UNL     1      25.930   3.486  49.800  1.00  0.00     0.105 A 
HETATM   10  N3  UNL     1      27.054   3.719  49.097  1.00  0.00    -0.200 NA
HETATM   11  C12 UNL     1      27.387   5.028  48.912  1.00  0.00     0.132 A 
HETATM   12  C20 UNL     1      26.309   5.481  49.596  1.00  0.00     0.025 A 
HETATM   13  C21 UNL     1      24.852   5.400  50.008  1.00  0.00     0.019 A 
ENDROOT
BRANCH  11  14
HETATM   14  N4  UNL     1      27.580   6.404  48.808  1.00  0.00    -0.269 NA
HETATM   15  H14 UNL     1      28.131   5.973  47.995  1.00  0.00     0.129 HD
BRANCH  14  16
HETATM   16  C13 UNL     1      28.068   7.636  48.293  1.00  0.00    -0.009 C 
HETATM   17  C14 UNL     1      28.717   7.238  47.188  1.00  0.00     0.021 C 
HETATM   18  C15 UNL     1      29.441   8.030  46.213  1.00  0.00     0.026 C 
HETATM   19  C16 UNL     1      30.223   9.108  46.211  1.00  0.00     0.143 C 
HETATM   20  O3  UNL     1      30.650   9.916  47.281  1.00  0.00    -0.311 OA
HETATM   21  C17 UNL     1      30.006  10.304  48.475  1.00  0.00     0.140 C 
HETATM   22 CL1  UNL     1      30.852  11.598  49.270  1.00  0.00    -0.057 Cl
HETATM   23  C18 UNL     1      28.884   9.835  49.058  1.00  0.00     0.029 C 
HETATM   24  C19 UNL     1      27.763   8.897  49.025  1.00  0.00     0.081 C 
ENDBRANCH  14  16
ENDBRANCH  11  14
BRANCH   1  25
HETATM   25  N1  UNL     1      24.987   3.443  51.928  1.00  0.00    -0.393 N 
HETATM   26  H8  UNL     1      25.459   4.375  52.036  1.00  0.00     0.159 HD
BRANCH  25  27
HETATM   27  C3  UNL     1      24.646   2.488  52.951  1.00  0.00     0.134 C 
BRANCH  27  28
HETATM   28  C2  UNL     1      25.824   2.197  53.810  1.00  0.00     0.159 C 
BRANCH  28  29
HETATM   29  S1  UNL     1      27.153   1.475  52.933  1.00  0.00     0.142 S 
HETATM   30  C1  UNL     1      28.036   0.404  54.060  1.00  0.00     0.161 C 
HETATM   31  O1  UNL     1      28.059   2.505  52.362  1.00  0.00    -0.228 OA
HETATM   32  O2  UNL     1      26.641   0.622  51.792  1.00  0.00    -0.228 OA
ENDBRANCH  28  29
ENDBRANCH  27  28
ENDBRANCH  25  27
ENDBRANCH   1  25
TORSDOF 8
ENDMDL
MODEL 5
REMARK VINA RESULT:      -7.9      2.823      4.007
REMARK  8 active torsions:
REMARK  status: ('A' for Active; 'I' for Inactive)
REMARK    1  A    between atoms: S1_2  and  C2_5 
REMARK    2  A    between atoms: C2_5  and  C3_6 
REMARK    3  A    between atoms: C3_6  and  N1_7 
REMARK    4  A    between atoms: N1_7  and  C4_8 
REMARK    5  A    between atoms: C12_18  and  N4_19 
REMARK    6  A    between atoms: C12_18  and  C20_29 
REMARK    7  A    between atoms: N4_19  and  C13_20 
REMARK    8  A    between atoms: C20_29  and  C21_30 
ROOT
HETATM    1  C4  UNL     1      21.248   2.627  49.359  1.00  0.00     0.017 A 
HETATM    2  C5  UNL     1      21.584   1.604  48.613  1.00  0.00     0.067 A 
HETATM    3  C6  UNL     1      22.430   2.368  47.583  1.00  0.00     0.024 C 
HETATM    4  C7  UNL     1      23.302   3.229  48.572  1.00  0.00    -0.025 A 
HETATM    5  C8  UNL     1      23.805   4.509  48.516  1.00  0.00     0.006 A 
HETATM    6  C9  UNL     1      23.902   3.902  49.706  1.00  0.00     0.011 A 
HETATM    7  C10 UNL     1      23.688   2.835  50.456  1.00  0.00    -0.009 A 
HETATM    8  N2  UNL     1      22.909   1.683  50.964  1.00  0.00     0.000 N 
HETATM    9  C11 UNL     1      21.609   1.588  50.362  1.00  0.00     0.105 A 
HETATM   10  N3  UNL     1      21.919   0.640  51.266  1.00  0.00    -0.200 NA
HETATM   11  C12 UNL     1      23.155   0.733  51.834  1.00  0.00     0.132 A 
HETATM   12  C20 UNL     1      23.483   1.843  51.131  1.00  0.00     0.025 A 
HETATM   13  C21 UNL     1      23.458   2.687  49.871  1.00  0.00     0.019 A 
ENDROOT
BRANCH  11  14
HETATM   14  N4  UNL     1      24.443   0.965  52.311  1.00  0.00    -0.269 NA
HETATM   15  H14 UNL     1      24.139   0.033  52.746  1.00  0.00     0.129 HD
BRANCH  14  16
HETATM   16  C13 UNL     1      25.645   0.744  53.039  1.00  0.00    -0.009 C 
HETATM   17  C14 UNL     1      26.246   1.940  52.955  1.00  0.00     0.021 C 
HETATM   18  C15 UNL     1      27.521   2.368  53.497  1.00  0.00     0.026 C 
HETATM   19  C16 UNL     1      28.729   1.843  53.694  1.00  0.00     0.143 C 
HETATM   20  O3  UNL     1      29.211   0.553  53.402  1.00  0.00    -0.311 OA
HETATM   21  C17 UNL     1      28.584  -0.710  53.433  1.00  0.00     0.140 C 
HETATM   22 CL1  UNL     1      29.740  -2.004  53.328  1.00  0.00    -0.057 Cl
HETATM   23  C18 UNL     1      27.279  -1.038  53.528  1.00  0.00     0.029 C 
HETATM   24  C19 UNL     1      25.890  -0.598  53.639  1.00  0.00     0.081 C 
ENDBRANCH  14  16
ENDBRANCH  11  14
BRANCH   1  25
HETATM   25  N1  UNL     1      20.959   3.804  50.070  1.00  0.00    -0.393 N 
HETATM   26  H8  UNL     1      21.688   3.967  50.809  1.00  0.00     0.159 HD
BRANCH  25  27
HETATM   27  C3  UNL     1      19.809   4.613  49.754  1.00  0.00     0.134 C 
BRANCH  27  28
HETATM   28  C2  UNL     1      18.565   3.802  49.817  1.00  0.00     0.159 C 
BRANCH  28  29
HETATM   29  S1  UNL     1      18.161   3.288  51.440  1.00  0.00     0.142 S 
HETATM   30  C1  UNL     1      17.655   1.575  51.362  1.00  0.00     0.161 C 
HETATM   31  O1  UNL     1      17.091   4.130  52.033  1.00  0.00    -0.228 OA
HETATM   32  O2  UNL     1      19.373   3.370  52.344  1.00  0.00    -0.228 OA
ENDBRANCH  28  29
ENDBRANCH  27  28
ENDBRANCH  25  27
ENDBRANCH   1  25
TORSDOF 8
ENDMDL
MODEL 6
REMARK VINA RESULT:      -7.6      2.669      3.549
REMARK  8 active torsions:
REMARK  status: ('A' for Active; 'I' for Inactive)
REMARK    1  A    between atoms: S1_2  and  C2_5 
REMARK    2  A    between atoms: C2_5  and  C3_6 
REMARK    3  A    between atoms: C3_6  and  N1_7 
REMARK    4  A    between atoms: N1_7  and  C4_8 
REMARK    5  A    between atoms: C12_18  and  N4_19 
REMARK    6  A    between atoms: C12_18  and  C20_29 
REMARK    7  A    between atoms: N4_19  and  C13_20 
REMARK    8  A    between atoms: C20_29  and  C21_30 
ROOT
HETATM    1  C4  UNL     1      23.310   5.223  49.216  1.00  0.00     0.017 A 
HETATM    2  C5  UNL     1      24.072   6.242  49.528  1.00  0.00     0.067 A 
HETATM    3  C6  UNL     1      23.184   6.833  50.633  1.00  0.00     0.024 C 
HETATM    4  C7  UNL     1      22.880   5.513  51.436  1.00  0.00    -0.025 A 
HETATM    5  C8  UNL     1      21.774   5.055  52.113  1.00  0.00     0.006 A 
HETATM    6  C9  UNL     1      22.747   4.155  51.923  1.00  0.00     0.011 A 
HETATM    7  C10 UNL     1      23.941   3.861  51.439  1.00  0.00    -0.009 A 
HETATM    8  N2  UNL     1      25.027   3.885  50.434  1.00  0.00     0.000 N 
HETATM    9  C11 UNL     1      24.671   4.621  49.254  1.00  0.00     0.105 A 
HETATM   10  N3  UNL     1      25.905   4.084  49.273  1.00  0.00    -0.200 NA
HETATM   11  C12 UNL     1      26.241   3.387  50.396  1.00  0.00     0.132 A 
HETATM   12  C20 UNL     1      25.043   3.609  50.988  1.00  0.00     0.025 A 
HETATM   13  C21 UNL     1      23.841   4.482  51.294  1.00  0.00     0.019 A 
ENDROOT
BRANCH  11  14
HETATM   14  N4  UNL     1      26.426   2.720  51.604  1.00  0.00    -0.269 NA
HETATM   15  H14 UNL     1      27.034   2.198  50.890  1.00  0.00     0.129 HD
BRANCH  14  16
HETATM   16  C13 UNL     1      26.923   1.748  52.516  1.00  0.00    -0.009 C 
HETATM   17  C14 UNL     1      27.974   2.385  53.056  1.00  0.00     0.021 C 
HETATM   18  C15 UNL     1      28.909   1.923  54.064  1.00  0.00     0.026 C 
HETATM   19  C16 UNL     1      29.506   0.782  54.398  1.00  0.00     0.143 C 
HETATM   20  O3  UNL     1      29.413  -0.493  53.807  1.00  0.00    -0.311 OA
HETATM   21  C17 UNL     1      28.335  -1.161  53.188  1.00  0.00     0.140 C 
HETATM   22 CL1  UNL     1      28.674  -2.850  52.957  1.00  0.00    -0.057 Cl
HETATM   23  C18 UNL     1      27.140  -0.696  52.771  1.00  0.00     0.029 C 
HETATM   24  C19 UNL     1      26.226   0.436  52.625  1.00  0.00     0.081 C 
ENDBRANCH  14  16
ENDBRANCH  11  14
BRANCH   1  25
HETATM   25  N1  UNL     1      22.403   4.177  48.976  1.00  0.00    -0.393 N 
HETATM   26  H8  UNL     1      21.620   4.212  49.676  1.00  0.00     0.159 HD
BRANCH  25  27
HETATM   27  C3  UNL     1      22.595   3.244  47.895  1.00  0.00     0.134 C 
BRANCH  27  28
HETATM   28  C2  UNL     1      21.354   3.113  47.088  1.00  0.00     0.159 C 
BRANCH  28  29
HETATM   29  S1  UNL     1      21.284   4.237  45.749  1.00  0.00     0.142 S 
HETATM   30  C1  UNL     1      19.664   4.994  45.755  1.00  0.00     0.161 C 
HETATM   31  O1  UNL     1      21.550   3.565  44.452  1.00  0.00    -0.228 OA
HETATM   32  O2  UNL     1      22.308   5.339  45.921  1.00  0.00    -0.228 OA
ENDBRANCH  28  29
ENDBRANCH  27  28
ENDBRANCH  25  27
ENDBRANCH   1  25
TORSDOF 8
ENDMDL
MODEL 7
REMARK VINA RESULT:      -7.4      8.948     12.259
REMARK  8 active torsions:
REMARK  status: ('A' for Active; 'I' for Inactive)
REMARK    1  A    between atoms: S1_2  and  C2_5 
REMARK    2  A    between atoms: C2_5  and  C3_6 
REMARK    3  A    between atoms: C3_6  and  N1_7 
REMARK    4  A    between atoms: N1_7  and  C4_8 
REMARK    5  A    between atoms: C12_18  and  N4_19 
REMARK    6  A    between atoms: C12_18  and  C20_29 
REMARK    7  A    between atoms: N4_19  and  C13_20 
REMARK    8  A    between atoms: C20_29  and  C21_30 
ROOT
HETATM    1  C4  UNL     1      33.653   5.050  48.215  1.00  0.00     0.017 A 
HETATM    2  C5  UNL     1      34.902   4.852  47.871  1.00  0.00     0.067 A 
HETATM    3  C6  UNL     1      34.869   3.316  47.849  1.00  0.00     0.024 C 
HETATM    4  C7  UNL     1      33.546   3.110  47.019  1.00  0.00    -0.025 A 
HETATM    5  C8  UNL     1      32.535   2.180  47.074  1.00  0.00     0.006 A 
HETATM    6  C9  UNL     1      32.300   3.242  46.294  1.00  0.00     0.011 A 
HETATM    7  C10 UNL     1      32.711   4.392  45.790  1.00  0.00    -0.009 A 
HETATM    8  N2  UNL     1      33.364   5.721  45.830  1.00  0.00     0.000 N 
HETATM    9  C11 UNL     1      33.863   6.052  47.135  1.00  0.00     0.105 A 
HETATM   10  N3  UNL     1      34.062   6.968  46.169  1.00  0.00    -0.200 NA
HETATM   11  C12 UNL     1      33.587   6.650  44.931  1.00  0.00     0.132 A 
HETATM   12  C20 UNL     1      33.108   5.450  45.336  1.00  0.00     0.025 A 
HETATM   13  C21 UNL     1      33.192   4.185  46.168  1.00  0.00     0.019 A 
ENDROOT
BRANCH  11  14
HETATM   14  N4  UNL     1      33.054   6.173  43.736  1.00  0.00    -0.269 NA
HETATM   15  H14 UNL     1      34.100   6.321  43.546  1.00  0.00     0.129 HD
BRANCH  14  16
HETATM   16  C13 UNL     1      33.018   5.752  42.378  1.00  0.00    -0.009 C 
HETATM   17  C14 UNL     1      32.404   6.786  41.782  1.00  0.00     0.021 C 
HETATM   18  C15 UNL     1      32.062   6.970  40.385  1.00  0.00     0.026 C 
HETATM   19  C16 UNL     1      31.645   6.216  39.370  1.00  0.00     0.143 C 
HETATM   20  O3  UNL     1      31.367   4.837  39.324  1.00  0.00    -0.311 OA
HETATM   21  C17 UNL     1      31.963   3.740  39.981  1.00  0.00     0.140 C 
HETATM   22 CL1  UNL     1      31.464   2.227  39.286  1.00  0.00    -0.057 Cl
HETATM   23  C18 UNL     1      32.822   3.702  41.020  1.00  0.00     0.029 C 
HETATM   24  C19 UNL     1      33.606   4.433  42.014  1.00  0.00     0.081 C 
ENDBRANCH  14  16
ENDBRANCH  11  14
BRANCH   1  25
HETATM   25  N1  UNL     1      32.300   5.123  48.589  1.00  0.00    -0.393 N 
HETATM   26  H8  UNL     1      31.714   4.546  47.934  1.00  0.00     0.159 HD
BRANCH  25  27
HETATM   27  C3  UNL     1      31.873   5.896  49.727  1.00  0.00     0.134 C 
BRANCH  27  28
HETATM   28  C2  UNL     1      31.020   7.035  49.297  1.00  0.00     0.159 C 
BRANCH  28  29
HETATM   29  S1  UNL     1      29.832   6.588  48.094  1.00  0.00     0.142 S 
HETATM   30  C1  UNL     1      28.365   7.568  48.382  1.00  0.00     0.161 C 
HETATM   31  O1  UNL     1      29.517   5.137  48.145  1.00  0.00    -0.228 OA
HETATM   32  O2  UNL     1      30.333   6.906  46.701  1.00  0.00    -0.228 OA
ENDBRANCH  28  29
ENDBRANCH  27  28
ENDBRANCH  25  27
ENDBRANCH   1  25
TORSDOF 8
ENDMDL
MODEL 8
REMARK VINA RESULT:      -7.3      4.660      7.168
REMARK  8 active torsions:
REMARK  status: ('A' for Active; 'I' for Inactive)
REMARK    1  A    between atoms: S1_2  and  C2_5 
REMARK    2  A    between atoms: C2_5  and  C3_6 
REMARK    3  A    between atoms: C3_6  and  N1_7 
REMARK    4  A    between atoms: N1_7  and  C4_8 
REMARK    5  A    between atoms: C12_18  and  N4_19 
REMARK    6  A    between atoms: C12_18  and  C20_29 
REMARK    7  A    between atoms: N4_19  and  C13_20 
REMARK    8  A    between atoms: C20_29  and  C21_30 
ROOT
HETATM    1  C4  UNL     1      24.191   4.099  50.156  1.00  0.00     0.017 A 
HETATM    2  C5  UNL     1      24.052   3.458  49.023  1.00  0.00     0.067 A 
HETATM    3  C6  UNL     1      23.017   4.394  48.381  1.00  0.00     0.024 C 
HETATM    4  C7  UNL     1      23.712   5.774  48.684  1.00  0.00    -0.025 A 
HETATM    5  C8  UNL     1      23.230   7.021  49.006  1.00  0.00     0.006 A 
HETATM    6  C9  UNL     1      24.552   6.861  49.142  1.00  0.00     0.011 A 
HETATM    7  C10 UNL     1      25.616   6.083  49.047  1.00  0.00    -0.009 A 
HETATM    8  N2  UNL     1      26.376   4.821  49.194  1.00  0.00     0.000 N 
HETATM    9  C11 UNL     1      25.595   3.773  49.786  1.00  0.00     0.105 A 
HETATM   10  N3  UNL     1      26.862   3.460  49.456  1.00  0.00    -0.200 NA
HETATM   11  C12 UNL     1      27.601   4.458  48.893  1.00  0.00     0.132 A 
HETATM   12  C20 UNL     1      26.584   5.352  48.953  1.00  0.00     0.025 A 
HETATM   13  C21 UNL     1      25.115   5.719  48.864  1.00  0.00     0.019 A 
ENDROOT
BRANCH  11  14
HETATM   14  N4  UNL     1      28.211   5.575  48.328  1.00  0.00    -0.269 NA
HETATM   15  H14 UNL     1      28.949   4.798  48.298  1.00  0.00     0.129 HD
BRANCH  14  16
HETATM   16  C13 UNL     1      29.230   6.363  47.724  1.00  0.00    -0.009 C 
HETATM   17  C14 UNL     1      30.319   5.605  47.919  1.00  0.00     0.021 C 
HETATM   18  C15 UNL     1      31.694   5.856  47.532  1.00  0.00     0.026 C 
HETATM   19  C16 UNL     1      32.513   6.903  47.445  1.00  0.00     0.143 C 
HETATM   20  O3  UNL     1      32.277   8.260  47.737  1.00  0.00    -0.311 OA
HETATM   21  C17 UNL     1      31.127   9.063  47.590  1.00  0.00     0.140 C 
HETATM   22 CL1  UNL     1      31.495  10.753  47.769  1.00  0.00    -0.057 Cl
HETATM   23  C18 UNL     1      29.846   8.721  47.344  1.00  0.00     0.029 C 
HETATM   24  C19 UNL     1      28.863   7.666  47.102  1.00  0.00     0.081 C 
ENDBRANCH  14  16
ENDBRANCH  11  14
BRANCH   1  25
HETATM   25  N1  UNL     1      24.243   4.877  51.326  1.00  0.00    -0.393 N 
HETATM   26  H8  UNL     1      25.063   5.533  51.286  1.00  0.00     0.159 HD
BRANCH  25  27
HETATM   27  C3  UNL     1      23.264   4.731  52.373  1.00  0.00     0.134 C 
BRANCH  27  28
HETATM   28  C2  UNL     1      21.896   4.632  51.801  1.00  0.00     0.159 C 
BRANCH  28  29
HETATM   29  S1  UNL     1      21.178   3.050  52.008  1.00  0.00     0.142 S 
HETATM   30  C1  UNL     1      20.704   2.448  50.392  1.00  0.00     0.161 C 
HETATM   31  O1  UNL     1      20.007   3.093  52.921  1.00  0.00    -0.228 OA
HETATM   32  O2  UNL     1      22.183   2.077  52.586  1.00  0.00    -0.228 OA
ENDBRANCH  28  29
ENDBRANCH  27  28
ENDBRANCH  25  27
ENDBRANCH   1  25
TORSDOF 8
ENDMDL
MODEL 9
REMARK VINA RESULT:      -7.3      4.634      7.842
REMARK  8 active torsions:
REMARK  status: ('A' for Active; 'I' for Inactive)
REMARK    1  A    between atoms: S1_2  and  C2_5 
REMARK    2  A    between atoms: C2_5  and  C3_6 
REMARK    3  A    between atoms: C3_6  and  N1_7 
REMARK    4  A    between atoms: N1_7  and  C4_8 
REMARK    5  A    between atoms: C12_18  and  N4_19 
REMARK    6  A    between atoms: C12_18  and  C20_29 
REMARK    7  A    between atoms: N4_19  and  C13_20 
REMARK    8  A    between atoms: C20_29  and  C21_30 
ROOT
HETATM    1  C4  UNL     1      29.007  10.101  48.173  1.00  0.00     0.017 A 
HETATM    2  C5  UNL     1      27.938  10.829  47.964  1.00  0.00     0.067 A 
HETATM    3  C6  UNL     1      27.837  10.618  46.446  1.00  0.00     0.024 C 
HETATM    4  C7  UNL     1      28.022   9.055  46.402  1.00  0.00    -0.025 A 
HETATM    5  C8  UNL     1      28.643   8.204  45.517  1.00  0.00     0.006 A 
HETATM    6  C9  UNL     1      28.262   7.654  46.676  1.00  0.00     0.011 A 
HETATM    7  C10 UNL     1      27.691   7.784  47.861  1.00  0.00    -0.009 A 
HETATM    8  N2  UNL     1      27.398   8.461  49.144  1.00  0.00     0.000 N 
HETATM    9  C11 UNL     1      28.110   9.700  49.290  1.00  0.00     0.105 A 
HETATM   10  N3  UNL     1      27.302   9.352  50.309  1.00  0.00    -0.200 NA
HETATM   11  C12 UNL     1      26.626   8.176  50.167  1.00  0.00     0.132 A 
HETATM   12  C20 UNL     1      27.162   7.924  48.948  1.00  0.00     0.025 A 
HETATM   13  C21 UNL     1      27.664   8.369  47.587  1.00  0.00     0.019 A 
ENDROOT
BRANCH  11  14
HETATM   14  N4  UNL     1      26.011   6.964  49.864  1.00  0.00    -0.269 NA
HETATM   15  H14 UNL     1      26.232   6.920  50.913  1.00  0.00     0.129 HD
BRANCH  14  16
HETATM   16  C13 UNL     1      25.481   5.660  50.072  1.00  0.00    -0.009 C 
HETATM   17  C14 UNL     1      24.473   5.903  50.924  1.00  0.00     0.021 C 
HETATM   18  C15 UNL     1      23.535   4.975  51.525  1.00  0.00     0.026 C 
HETATM   19  C16 UNL     1      23.553   3.730  51.998  1.00  0.00     0.143 C 
HETATM   20  O3  UNL     1      24.615   2.810  52.076  1.00  0.00    -0.311 OA
HETATM   21  C17 UNL     1      25.713   2.573  51.222  1.00  0.00     0.140 C 
HETATM   22 CL1  UNL     1      26.517   1.081  51.608  1.00  0.00    -0.057 Cl
HETATM   23  C18 UNL     1      26.202   3.305  50.200  1.00  0.00     0.029 C 
HETATM   24  C19 UNL     1      26.106   4.505  49.370  1.00  0.00     0.081 C 
ENDBRANCH  14  16
ENDBRANCH  11  14
BRANCH   1  25
HETATM   25  N1  UNL     1      30.158   9.298  48.259  1.00  0.00    -0.393 N 
HETATM   26  H8  UNL     1      30.325   8.811  47.343  1.00  0.00     0.159 HD
BRANCH  25  27
HETATM   27  C3  UNL     1      30.937   9.224  49.468  1.00  0.00     0.134 C 
BRANCH  27  28
HETATM   28  C2  UNL     1      32.167   8.417  49.251  1.00  0.00     0.159 C 
BRANCH  28  29
HETATM   29  S1  UNL     1      31.871   6.939  48.364  1.00  0.00     0.142 S 
HETATM   30  C1  UNL     1      33.228   5.822  48.694  1.00  0.00     0.161 C 
HETATM   31  O1  UNL     1      31.735   7.190  46.907  1.00  0.00    -0.228 OA
HETATM   32  O2  UNL     1      30.598   6.273  48.843  1.00  0.00    -0.228 OA
ENDBRANCH  28  29
ENDBRANCH  27  28
ENDBRANCH  25  27
ENDBRANCH   1  25
TORSDOF 8
ENDMDL
