MODEL 1
REMARK VINA RESULT:      -8.3      0.000      0.000
REMARK  5 active torsions:
REMARK  status: ('A' for Active; 'I' for Inactive)
REMARK    1  A    between atoms: C2_2  and  C3_3 
REMARK       I    between atoms: C3_3  and  N1_5 
REMARK    2  A    between atoms: C10_15  and  N4_16 
REMARK    3  A    between atoms: N4_16  and  C11_17 
REMARK    4  A    between atoms: C11_17  and  O2_19 
REMARK    5  A    between atoms: O2_19  and  C13_20 
ROOT
HETATM    1  C3  UNL     1      26.646  -0.148  53.619  1.00  0.00     0.242 C 
HETATM    2  O1  UNL     1      26.175  -0.781  54.591  1.00  0.00    -0.268 OA
HETATM    3  N1  UNL     1      26.484   1.233  53.346  1.00  0.00    -0.344 N 
HETATM    4  C4  UNL     1      25.800   2.287  54.009  1.00  0.00     0.131 C 
HETATM    5  C5  UNL     1      24.542   2.740  53.295  1.00  0.00     0.060 C 
HETATM    6  C6  UNL     1      24.794   3.079  51.880  1.00  0.00    -0.025 A 
HETATM    7  C7  UNL     1      26.101   2.612  51.400  1.00  0.00     0.010 A 
HETATM    8  S1  UNL     1      26.164   3.179  49.731  1.00  0.00    -0.072 SA
HETATM    9  C8  UNL     1      24.573   3.964  49.702  1.00  0.00     0.114 A 
HETATM   10  N2  UNL     1      24.020   4.590  48.697  1.00  0.00    -0.234 NA
HETATM   11  C9  UNL     1      22.800   5.125  48.844  1.00  0.00     0.236 A 
HETATM   12  N3  UNL     1      22.268   4.949  50.049  1.00  0.00    -0.224 NA
HETATM   13  C10 UNL     1      22.817   4.315  51.085  1.00  0.00     0.140 A 
HETATM   14  C19 UNL     1      24.063   3.759  50.970  1.00  0.00     0.053 A 
HETATM   15  C20 UNL     1      27.087   1.832  52.177  1.00  0.00     0.172 C 
ENDROOT
BRANCH  13  16
HETATM   16  N4  UNL     1      22.000   4.245  52.247  1.00  0.00    -0.348 N 
HETATM   17  H9  UNL     1      22.019   4.751  53.152  1.00  0.00     0.163 HD
BRANCH  16  18
HETATM   18  C11 UNL     1      20.893   3.319  52.340  1.00  0.00     0.224 C 
HETATM   19  C12 UNL     1      19.696   3.848  51.569  1.00  0.00     0.063 C 
BRANCH  18  20
HETATM   20  O2  UNL     1      21.185   1.996  52.046  1.00  0.00    -0.326 OA
BRANCH  20  21
HETATM   21  C13 UNL     1      21.418   0.959  52.909  1.00  0.00     0.071 A 
HETATM   22  C14 UNL     1      22.485   0.176  52.461  1.00  0.00     0.037 A 
HETATM   23  C15 UNL     1      22.922  -0.942  53.163  1.00  0.00     0.003 A 
HETATM   24  C16 UNL     1      22.276  -1.281  54.338  1.00  0.00     0.000 A 
HETATM   25  C17 UNL     1      21.211  -0.512  54.799  1.00  0.00     0.003 A 
HETATM   26  C18 UNL     1      20.803   0.587  54.082  1.00  0.00     0.037 A 
ENDBRANCH  20  21
ENDBRANCH  18  20
ENDBRANCH  16  18
ENDBRANCH  13  16
BRANCH   1  27
HETATM   27  C2  UNL     1      27.426  -0.968  52.715  1.00  0.00     0.064 C 
HETATM   28  C1  UNL     1      26.736  -2.057  52.404  1.00  0.00     0.017 C 
ENDBRANCH   1  27
TORSDOF 5
ENDMDL
MODEL 2
REMARK VINA RESULT:      -7.8      2.640      5.365
REMARK  5 active torsions:
REMARK  status: ('A' for Active; 'I' for Inactive)
REMARK    1  A    between atoms: C2_2  and  C3_3 
REMARK       I    between atoms: C3_3  and  N1_5 
REMARK    2  A    between atoms: C10_15  and  N4_16 
REMARK    3  A    between atoms: N4_16  and  C11_17 
REMARK    4  A    between atoms: C11_17  and  O2_19 
REMARK    5  A    between atoms: O2_19  and  C13_20 
ROOT
HETATM    1  C3  UNL     1      28.265   1.164  53.384  1.00  0.00     0.242 C 
HETATM    2  O1  UNL     1      29.171   2.024  53.309  1.00  0.00    -0.268 OA
HETATM    3  N1  UNL     1      27.164   1.009  52.506  1.00  0.00    -0.344 N 
HETATM    4  C4  UNL     1      26.738   1.704  51.342  1.00  0.00     0.131 C 
HETATM    5  C5  UNL     1      25.509   2.565  51.563  1.00  0.00     0.060 C 
HETATM    6  C6  UNL     1      24.395   1.805  52.166  1.00  0.00    -0.025 A 
HETATM    7  C7  UNL     1      24.811   0.502  52.701  1.00  0.00     0.010 A 
HETATM    8  S1  UNL     1      23.311  -0.202  53.305  1.00  0.00    -0.072 SA
HETATM    9  C8  UNL     1      22.242   1.146  52.872  1.00  0.00     0.114 A 
HETATM   10  N2  UNL     1      20.953   1.227  53.074  1.00  0.00    -0.234 NA
HETATM   11  C9  UNL     1      20.293   2.328  52.688  1.00  0.00     0.236 A 
HETATM   12  N3  UNL     1      21.059   3.252  52.118  1.00  0.00    -0.224 NA
HETATM   13  C10 UNL     1      22.373   3.186  51.903  1.00  0.00     0.140 A 
HETATM   14  C19 UNL     1      23.078   2.076  52.284  1.00  0.00     0.053 A 
HETATM   15  C20 UNL     1      26.188  -0.035  52.719  1.00  0.00     0.172 C 
ENDROOT
BRANCH  13  16
HETATM   16  N4  UNL     1      22.943   4.344  51.307  1.00  0.00    -0.348 N 
HETATM   17  H9  UNL     1      23.154   5.292  51.670  1.00  0.00     0.163 HD
BRANCH  16  18
HETATM   18  C11 UNL     1      23.341   4.362  49.916  1.00  0.00     0.224 C 
HETATM   19  C12 UNL     1      22.215   3.841  49.038  1.00  0.00     0.063 C 
BRANCH  18  20
HETATM   20  O2  UNL     1      23.878   5.553  49.456  1.00  0.00    -0.326 OA
BRANCH  20  21
HETATM   21  C13 UNL     1      25.155   5.809  49.030  1.00  0.00     0.071 A 
HETATM   22  C14 UNL     1      25.969   4.688  49.213  1.00  0.00     0.037 A 
HETATM   23  C15 UNL     1      27.314   4.690  48.859  1.00  0.00     0.003 A 
HETATM   24  C16 UNL     1      27.852   5.839  48.309  1.00  0.00     0.000 A 
HETATM   25  C17 UNL     1      27.056   6.965  48.119  1.00  0.00     0.003 A 
HETATM   26  C18 UNL     1      25.729   6.931  48.480  1.00  0.00     0.037 A 
ENDBRANCH  20  21
ENDBRANCH  18  20
ENDBRANCH  16  18
ENDBRANCH  13  16
BRANCH   1  27
HETATM   27  C2  UNL     1      28.412   0.263  54.510  1.00  0.00     0.064 C 
HETATM   28  C1  UNL     1      29.339  -0.643  54.228  1.00  0.00     0.017 C 
ENDBRANCH   1  27
TORSDOF 5
ENDMDL
MODEL 3
REMARK VINA RESULT:      -7.8      3.123      7.166
REMARK  5 active torsions:
REMARK  status: ('A' for Active; 'I' for Inactive)
REMARK    1  A    between atoms: C2_2  and  C3_3 
REMARK       I    between atoms: C3_3  and  N1_5 
REMARK    2  A    between atoms: C10_15  and  N4_16 
REMARK    3  A    between atoms: N4_16  and  C11_17 
REMARK    4  A    between atoms: C11_17  and  O2_19 
REMARK    5  A    between atoms: O2_19  and  C13_20 
ROOT
HETATM    1  C3  UNL     1      19.007   1.232  51.674  1.00  0.00     0.242 C 
HETATM    2  O1  UNL     1      18.317   1.922  50.891  1.00  0.00    -0.268 OA
HETATM    3  N1  UNL     1      20.085   1.679  52.478  1.00  0.00    -0.344 N 
HETATM    4  C4  UNL     1      20.705   2.944  52.663  1.00  0.00     0.131 C 
HETATM    5  C5  UNL     1      22.082   3.043  52.036  1.00  0.00     0.060 C 
HETATM    6  C6  UNL     1      22.973   1.946  52.466  1.00  0.00    -0.025 A 
HETATM    7  C7  UNL     1      22.256   0.852  53.133  1.00  0.00     0.010 A 
HETATM    8  S1  UNL     1      23.536  -0.279  53.577  1.00  0.00    -0.072 SA
HETATM    9  C8  UNL     1      24.894   0.651  52.916  1.00  0.00     0.114 A 
HETATM   10  N2  UNL     1      26.159   0.321  52.932  1.00  0.00    -0.234 NA
HETATM   11  C9  UNL     1      27.062   1.143  52.378  1.00  0.00     0.236 A 
HETATM   12  N3  UNL     1      26.545   2.247  51.851  1.00  0.00    -0.224 NA
HETATM   13  C10 UNL     1      25.260   2.600  51.826  1.00  0.00     0.140 A 
HETATM   14  C19 UNL     1      24.311   1.786  52.384  1.00  0.00     0.053 A 
HETATM   15  C20 UNL     1      20.795   0.763  53.340  1.00  0.00     0.172 C 
ENDROOT
BRANCH  13  16
HETATM   16  N4  UNL     1      24.987   3.826  51.158  1.00  0.00    -0.348 N 
HETATM   17  H9  UNL     1      24.669   4.754  51.493  1.00  0.00     0.163 HD
BRANCH  16  18
HETATM   18  C11 UNL     1      25.118   3.952  49.723  1.00  0.00     0.224 C 
HETATM   19  C12 UNL     1      23.989   3.213  49.023  1.00  0.00     0.063 C 
BRANCH  18  20
HETATM   20  O2  UNL     1      25.302   5.238  49.243  1.00  0.00    -0.326 OA
BRANCH  20  21
HETATM   21  C13 UNL     1      26.439   5.809  48.736  1.00  0.00     0.071 A 
HETATM   22  C14 UNL     1      27.491   4.890  48.731  1.00  0.00     0.037 A 
HETATM   23  C15 UNL     1      28.757   5.223  48.263  1.00  0.00     0.003 A 
HETATM   24  C16 UNL     1      28.972   6.505  47.790  1.00  0.00     0.000 A 
HETATM   25  C17 UNL     1      27.935   7.434  47.788  1.00  0.00     0.003 A 
HETATM   26  C18 UNL     1      26.695   7.073  48.258  1.00  0.00     0.037 A 
ENDBRANCH  20  21
ENDBRANCH  18  20
ENDBRANCH  16  18
ENDBRANCH  13  16
BRANCH   1  27
HETATM   27  C2  UNL     1      18.614  -0.162  51.719  1.00  0.00     0.064 C 
HETATM   28  C1  UNL     1      17.311  -0.244  51.955  1.00  0.00     0.017 C 
ENDBRANCH   1  27
TORSDOF 5
ENDMDL
MODEL 4
REMARK VINA RESULT:      -7.7      2.685      6.530
REMARK  5 active torsions:
REMARK  status: ('A' for Active; 'I' for Inactive)
REMARK    1  A    between atoms: C2_2  and  C3_3 
REMARK       I    between atoms: C3_3  and  N1_5 
REMARK    2  A    between atoms: C10_15  and  N4_16 
REMARK    3  A    between atoms: N4_16  and  C11_17 
REMARK    4  A    between atoms: C11_17  and  O2_19 
REMARK    5  A    between atoms: O2_19  and  C13_20 
ROOT
HETATM    1  C3  UNL     1      23.488   4.493  49.565  1.00  0.00     0.242 C 
HETATM    2  O1  UNL     1      24.575   4.529  48.946  1.00  0.00    -0.268 OA
HETATM    3  N1  UNL     1      23.282   4.061  50.899  1.00  0.00    -0.344 N 
HETATM    4  C4  UNL     1      24.150   3.566  51.910  1.00  0.00     0.131 C 
HETATM    5  C5  UNL     1      23.991   2.081  52.173  1.00  0.00     0.060 C 
HETATM    6  C6  UNL     1      22.588   1.709  52.448  1.00  0.00    -0.025 A 
HETATM    7  C7  UNL     1      21.634   2.769  52.100  1.00  0.00     0.010 A 
HETATM    8  S1  UNL     1      20.071   2.095  52.563  1.00  0.00    -0.072 SA
HETATM    9  C8  UNL     1      20.669   0.536  53.162  1.00  0.00     0.114 A 
HETATM   10  N2  UNL     1      19.959  -0.444  53.657  1.00  0.00    -0.234 NA
HETATM   11  C9  UNL     1      20.574  -1.565  54.061  1.00  0.00     0.236 A 
HETATM   12  N3  UNL     1      21.893  -1.551  53.903  1.00  0.00    -0.224 NA
HETATM   13  C10 UNL     1      22.633  -0.562  53.402  1.00  0.00     0.140 A 
HETATM   14  C19 UNL     1      22.037   0.598  52.982  1.00  0.00     0.053 A 
HETATM   15  C20 UNL     1      21.962   4.073  51.486  1.00  0.00     0.172 C 
ENDROOT
BRANCH  13  16
HETATM   16  N4  UNL     1      24.025  -0.837  53.315  1.00  0.00    -0.348 N 
HETATM   17  H9  UNL     1      24.616  -1.249  52.570  1.00  0.00     0.163 HD
BRANCH  16  18
HETATM   18  C11 UNL     1      24.923  -0.557  54.415  1.00  0.00     0.224 C 
HETATM   19  C12 UNL     1      24.434  -1.240  55.682  1.00  0.00     0.063 C 
BRANCH  18  20
HETATM   20  O2  UNL     1      26.268  -0.775  54.167  1.00  0.00    -0.326 OA
BRANCH  20  21
HETATM   21  C13 UNL     1      27.293   0.133  54.149  1.00  0.00     0.071 A 
HETATM   22  C14 UNL     1      26.965   1.230  53.350  1.00  0.00     0.037 A 
HETATM   23  C15 UNL     1      27.840   2.295  53.166  1.00  0.00     0.003 A 
HETATM   24  C16 UNL     1      29.069   2.258  53.798  1.00  0.00     0.000 A 
HETATM   25  C17 UNL     1      29.414   1.173  54.599  1.00  0.00     0.003 A 
HETATM   26  C18 UNL     1      28.526   0.135  54.760  1.00  0.00     0.037 A 
ENDBRANCH  20  21
ENDBRANCH  18  20
ENDBRANCH  16  18
ENDBRANCH  13  16
BRANCH   1  27
HETATM   27  C2  UNL     1      22.358   4.951  48.782  1.00  0.00     0.064 C 
HETATM   28  C1  UNL     1      22.449   4.462  47.552  1.00  0.00     0.017 C 
ENDBRANCH   1  27
TORSDOF 5
ENDMDL
MODEL 5
REMARK VINA RESULT:      -7.5      2.632      6.088
REMARK  5 active torsions:
REMARK  status: ('A' for Active; 'I' for Inactive)
REMARK    1  A    between atoms: C2_2  and  C3_3 
REMARK       I    between atoms: C3_3  and  N1_5 
REMARK    2  A    between atoms: C10_15  and  N4_16 
REMARK    3  A    between atoms: N4_16  and  C11_17 
REMARK    4  A    between atoms: C11_17  and  O2_19 
REMARK    5  A    between atoms: O2_19  and  C13_20 
ROOT
HETATM    1  C3  UNL     1      18.959   1.338  51.571  1.00  0.00     0.242 C 
HETATM    2  O1  UNL     1      18.269   2.083  50.840  1.00  0.00    -0.268 OA
HETATM    3  N1  UNL     1      20.030   1.728  52.413  1.00  0.00    -0.344 N 
HETATM    4  C4  UNL     1      20.642   2.979  52.699  1.00  0.00     0.131 C 
HETATM    5  C5  UNL     1      22.021   3.135  52.089  1.00  0.00     0.060 C 
HETATM    6  C6  UNL     1      22.917   2.014  52.437  1.00  0.00    -0.025 A 
HETATM    7  C7  UNL     1      22.204   0.867  53.014  1.00  0.00     0.010 A 
HETATM    8  S1  UNL     1      23.489  -0.287  53.376  1.00  0.00    -0.072 SA
HETATM    9  C8  UNL     1      24.844   0.700  52.796  1.00  0.00     0.114 A 
HETATM   10  N2  UNL     1      26.111   0.378  52.793  1.00  0.00    -0.234 NA
HETATM   11  C9  UNL     1      27.012   1.245  52.310  1.00  0.00     0.236 A 
HETATM   12  N3  UNL     1      26.490   2.384  51.867  1.00  0.00    -0.224 NA
HETATM   13  C10 UNL     1      25.202   2.730  51.862  1.00  0.00     0.140 A 
HETATM   14  C19 UNL     1      24.256   1.869  52.351  1.00  0.00     0.053 A 
HETATM   15  C20 UNL     1      20.743   0.753  53.205  1.00  0.00     0.172 C 
ENDROOT
BRANCH  13  16
HETATM   16  N4  UNL     1      24.925   4.002  51.290  1.00  0.00    -0.348 N 
HETATM   17  H9  UNL     1      24.720   4.930  51.704  1.00  0.00     0.163 HD
BRANCH  16  18
HETATM   18  C11 UNL     1      24.864   4.191  49.857  1.00  0.00     0.224 C 
HETATM   19  C12 UNL     1      26.202   4.688  49.334  1.00  0.00     0.063 C 
BRANCH  18  20
HETATM   20  O2  UNL     1      24.360   3.126  49.128  1.00  0.00    -0.326 OA
BRANCH  20  21
HETATM   21  C13 UNL     1      23.061   2.868  48.777  1.00  0.00     0.071 A 
HETATM   22  C14 UNL     1      22.464   4.004  48.229  1.00  0.00     0.037 A 
HETATM   23  C15 UNL     1      21.143   4.003  47.791  1.00  0.00     0.003 A 
HETATM   24  C16 UNL     1      20.409   2.837  47.906  1.00  0.00     0.000 A 
HETATM   25  C17 UNL     1      20.989   1.693  48.449  1.00  0.00     0.003 A 
HETATM   26  C18 UNL     1      22.297   1.728  48.873  1.00  0.00     0.037 A 
ENDBRANCH  20  21
ENDBRANCH  18  20
ENDBRANCH  16  18
ENDBRANCH  13  16
BRANCH   1  27
HETATM   27  C2  UNL     1      18.576  -0.058  51.506  1.00  0.00     0.064 C 
HETATM   28  C1  UNL     1      17.288  -0.174  51.803  1.00  0.00     0.017 C 
ENDBRANCH   1  27
TORSDOF 5
ENDMDL
MODEL 6
REMARK VINA RESULT:      -7.4      6.042      9.359
REMARK  5 active torsions:
REMARK  status: ('A' for Active; 'I' for Inactive)
REMARK    1  A    between atoms: C2_2  and  C3_3 
REMARK       I    between atoms: C3_3  and  N1_5 
REMARK    2  A    between atoms: C10_15  and  N4_16 
REMARK    3  A    between atoms: N4_16  and  C11_17 
REMARK    4  A    between atoms: C11_17  and  O2_19 
REMARK    5  A    between atoms: O2_19  and  C13_20 
ROOT
HETATM    1  C3  UNL     1      23.989   4.113  51.578  1.00  0.00     0.242 C 
HETATM    2  O1  UNL     1      24.319   3.354  52.517  1.00  0.00    -0.268 OA
HETATM    3  N1  UNL     1      24.587   4.190  50.296  1.00  0.00    -0.344 N 
HETATM    4  C4  UNL     1      25.666   3.502  49.679  1.00  0.00     0.131 C 
HETATM    5  C5  UNL     1      26.912   4.350  49.512  1.00  0.00     0.060 C 
HETATM    6  C6  UNL     1      26.631   5.625  48.821  1.00  0.00    -0.025 A 
HETATM    7  C7  UNL     1      25.196   5.929  48.736  1.00  0.00     0.010 A 
HETATM    8  S1  UNL     1      25.141   7.449  47.842  1.00  0.00    -0.072 SA
HETATM    9  C8  UNL     1      26.891   7.639  47.618  1.00  0.00     0.114 A 
HETATM   10  N2  UNL     1      27.506   8.616  47.005  1.00  0.00    -0.234 NA
HETATM   11  C9  UNL     1      28.845   8.608  46.930  1.00  0.00     0.236 A 
HETATM   12  N3  UNL     1      29.418   7.562  47.515  1.00  0.00    -0.224 NA
HETATM   13  C10 UNL     1      28.807   6.557  48.143  1.00  0.00     0.140 A 
HETATM   14  C19 UNL     1      27.442   6.533  48.236  1.00  0.00     0.053 A 
HETATM   15  C20 UNL     1      24.098   5.121  49.305  1.00  0.00     0.172 C 
ENDROOT
BRANCH  13  16
HETATM   16  N4  UNL     1      29.678   5.587  48.711  1.00  0.00    -0.348 N 
HETATM   17  H9  UNL     1      29.512   4.758  49.311  1.00  0.00     0.163 HD
BRANCH  16  18
HETATM   18  C11 UNL     1      31.110   5.646  48.514  1.00  0.00     0.224 C 
HETATM   19  C12 UNL     1      31.786   6.248  49.735  1.00  0.00     0.063 C 
BRANCH  18  20
HETATM   20  O2  UNL     1      31.711   4.473  48.087  1.00  0.00    -0.326 OA
BRANCH  20  21
HETATM   21  C13 UNL     1      32.683   4.307  47.137  1.00  0.00     0.071 A 
HETATM   22  C14 UNL     1      33.774   3.613  47.664  1.00  0.00     0.037 A 
HETATM   23  C15 UNL     1      34.897   3.314  46.899  1.00  0.00     0.003 A 
HETATM   24  C16 UNL     1      34.924   3.720  45.578  1.00  0.00     0.000 A 
HETATM   25  C17 UNL     1      33.845   4.413  45.034  1.00  0.00     0.003 A 
HETATM   26  C18 UNL     1      32.750   4.693  45.818  1.00  0.00     0.037 A 
ENDBRANCH  20  21
ENDBRANCH  18  20
ENDBRANCH  16  18
ENDBRANCH  13  16
BRANCH   1  27
HETATM   27  C2  UNL     1      22.873   4.980  51.898  1.00  0.00     0.064 C 
HETATM   28  C1  UNL     1      21.792   4.242  52.118  1.00  0.00     0.017 C 
ENDBRANCH   1  27
TORSDOF 5
ENDMDL
MODEL 7
REMARK VINA RESULT:      -7.3      2.531      5.606
REMARK  5 active torsions:
REMARK  status: ('A' for Active; 'I' for Inactive)
REMARK    1  A    between atoms: C2_2  and  C3_3 
REMARK       I    between atoms: C3_3  and  N1_5 
REMARK    2  A    between atoms: C10_15  and  N4_16 
REMARK    3  A    between atoms: N4_16  and  C11_17 
REMARK    4  A    between atoms: C11_17  and  O2_19 
REMARK    5  A    between atoms: O2_19  and  C13_20 
ROOT
HETATM    1  C3  UNL     1      24.063   6.995  50.541  1.00  0.00     0.242 C 
HETATM    2  O1  UNL     1      23.129   7.755  50.880  1.00  0.00    -0.268 OA
HETATM    3  N1  UNL     1      23.961   5.625  50.195  1.00  0.00    -0.344 N 
HETATM    4  C4  UNL     1      22.872   4.716  50.115  1.00  0.00     0.131 C 
HETATM    5  C5  UNL     1      22.855   3.687  51.229  1.00  0.00     0.060 C 
HETATM    6  C6  UNL     1      24.140   2.968  51.344  1.00  0.00    -0.025 A 
HETATM    7  C7  UNL     1      25.227   3.607  50.591  1.00  0.00     0.010 A 
HETATM    8  S1  UNL     1      26.606   2.540  50.857  1.00  0.00    -0.072 SA
HETATM    9  C8  UNL     1      25.777   1.356  51.886  1.00  0.00     0.114 A 
HETATM   10  N2  UNL     1      26.292   0.283  52.428  1.00  0.00    -0.234 NA
HETATM   11  C9  UNL     1      25.521  -0.506  53.190  1.00  0.00     0.236 A 
HETATM   12  N3  UNL     1      24.266  -0.088  53.313  1.00  0.00    -0.224 NA
HETATM   13  C10 UNL     1      23.723   1.001  52.768  1.00  0.00     0.140 A 
HETATM   14  C19 UNL     1      24.482   1.828  51.983  1.00  0.00     0.053 A 
HETATM   15  C20 UNL     1      25.133   4.866  49.823  1.00  0.00     0.172 C 
ENDROOT
BRANCH  13  16
HETATM   16  N4  UNL     1      22.360   1.224  53.102  1.00  0.00    -0.348 N 
HETATM   17  H9  UNL     1      21.829   2.075  53.363  1.00  0.00     0.163 HD
BRANCH  16  18
HETATM   18  C11 UNL     1      21.404   0.139  53.146  1.00  0.00     0.224 C 
HETATM   19  C12 UNL     1      20.615   0.183  54.445  1.00  0.00     0.063 C 
BRANCH  18  20
HETATM   20  O2  UNL     1      20.597  -0.002  52.028  1.00  0.00    -0.326 OA
BRANCH  20  21
HETATM   21  C13 UNL     1      20.627   0.706  50.856  1.00  0.00     0.071 A 
HETATM   22  C14 UNL     1      19.631   1.683  50.845  1.00  0.00     0.037 A 
HETATM   23  C15 UNL     1      19.451   2.539  49.763  1.00  0.00     0.003 A 
HETATM   24  C16 UNL     1      20.290   2.411  48.672  1.00  0.00     0.000 A 
HETATM   25  C17 UNL     1      21.290   1.442  48.665  1.00  0.00     0.003 A 
HETATM   26  C18 UNL     1      21.441   0.611  49.751  1.00  0.00     0.037 A 
ENDBRANCH  20  21
ENDBRANCH  18  20
ENDBRANCH  16  18
ENDBRANCH  13  16
BRANCH   1  27
HETATM   27  C2  UNL     1      25.360   7.641  50.522  1.00  0.00     0.064 C 
HETATM   28  C1  UNL     1      25.293   8.735  49.775  1.00  0.00     0.017 C 
ENDBRANCH   1  27
TORSDOF 5
ENDMDL
MODEL 8
REMARK VINA RESULT:      -7.3      2.636      5.457
REMARK  5 active torsions:
REMARK  status: ('A' for Active; 'I' for Inactive)
REMARK    1  A    between atoms: C2_2  and  C3_3 
REMARK       I    between atoms: C3_3  and  N1_5 
REMARK    2  A    between atoms: C10_15  and  N4_16 
REMARK    3  A    between atoms: N4_16  and  C11_17 
REMARK    4  A    between atoms: C11_17  and  O2_19 
REMARK    5  A    between atoms: O2_19  and  C13_20 
ROOT
HETATM    1  C3  UNL     1      25.315   4.683  49.874  1.00  0.00     0.242 C 
HETATM    2  O1  UNL     1      26.463   4.249  49.630  1.00  0.00    -0.268 OA
HETATM    3  N1  UNL     1      24.501   4.357  50.987  1.00  0.00    -0.344 N 
HETATM    4  C4  UNL     1      24.679   3.507  52.111  1.00  0.00     0.131 C 
HETATM    5  C5  UNL     1      23.848   2.240  52.054  1.00  0.00     0.060 C 
HETATM    6  C6  UNL     1      22.416   2.521  51.822  1.00  0.00    -0.025 A 
HETATM    7  C7  UNL     1      22.164   3.902  51.390  1.00  0.00     0.010 A 
HETATM    8  S1  UNL     1      20.409   3.979  51.234  1.00  0.00    -0.072 SA
HETATM    9  C8  UNL     1      20.069   2.304  51.707  1.00  0.00     0.114 A 
HETATM   10  N2  UNL     1      18.898   1.728  51.786  1.00  0.00    -0.234 NA
HETATM   11  C9  UNL     1      18.819   0.442  52.157  1.00  0.00     0.236 A 
HETATM   12  N3  UNL     1      19.993  -0.126  52.411  1.00  0.00    -0.224 NA
HETATM   13  C10 UNL     1      21.195   0.445  52.337  1.00  0.00     0.140 A 
HETATM   14  C19 UNL     1      21.312   1.757  51.963  1.00  0.00     0.053 A 
HETATM   15  C20 UNL     1      23.187   4.939  51.140  1.00  0.00     0.172 C 
ENDROOT
BRANCH  13  16
HETATM   16  N4  UNL     1      22.288  -0.416  52.629  1.00  0.00    -0.348 N 
HETATM   17  H9  UNL     1      22.813  -1.105  52.060  1.00  0.00     0.163 HD
BRANCH  16  18
HETATM   18  C11 UNL     1      22.881  -0.466  53.948  1.00  0.00     0.224 C 
HETATM   19  C12 UNL     1      21.879  -1.002  54.957  1.00  0.00     0.063 C 
BRANCH  18  20
HETATM   20  O2  UNL     1      24.118  -1.085  54.032  1.00  0.00    -0.326 OA
BRANCH  20  21
HETATM   21  C13 UNL     1      25.363  -0.530  53.903  1.00  0.00     0.071 A 
HETATM   22  C14 UNL     1      26.075  -1.151  52.874  1.00  0.00     0.037 A 
HETATM   23  C15 UNL     1      27.370  -0.769  52.540  1.00  0.00     0.003 A 
HETATM   24  C16 UNL     1      27.962   0.258  53.254  1.00  0.00     0.000 A 
HETATM   25  C17 UNL     1      27.267   0.888  54.283  1.00  0.00     0.003 A 
HETATM   26  C18 UNL     1      25.988   0.486  54.588  1.00  0.00     0.037 A 
ENDBRANCH  20  21
ENDBRANCH  18  20
ENDBRANCH  16  18
ENDBRANCH  13  16
BRANCH   1  27
HETATM   27  C2  UNL     1      24.821   5.612  48.877  1.00  0.00     0.064 C 
HETATM   28  C1  UNL     1      25.753   6.522  48.625  1.00  0.00     0.017 C 
ENDBRANCH   1  27
TORSDOF 5
ENDMDL
MODEL 9
REMARK VINA RESULT:      -7.2      2.587      6.579
REMARK  5 active torsions:
REMARK  status: ('A' for Active; 'I' for Inactive)
REMARK    1  A    between atoms: C2_2  and  C3_3 
REMARK       I    between atoms: C3_3  and  N1_5 
REMARK    2  A    between atoms: C10_15  and  N4_16 
REMARK    3  A    between atoms: N4_16  and  C11_17 
REMARK    4  A    between atoms: C11_17  and  O2_19 
REMARK    5  A    between atoms: O2_19  and  C13_20 
ROOT
HETATM    1  C3  UNL     1      23.373   7.049  48.734  1.00  0.00     0.242 C 
HETATM    2  O1  UNL     1      24.501   7.409  48.327  1.00  0.00    -0.268 OA
HETATM    3  N1  UNL     1      23.036   6.631  50.045  1.00  0.00    -0.344 N 
HETATM    4  C4  UNL     1      23.781   6.487  51.246  1.00  0.00     0.131 C 
HETATM    5  C5  UNL     1      24.036   5.043  51.634  1.00  0.00     0.060 C 
HETATM    6  C6  UNL     1      22.791   4.249  51.682  1.00  0.00    -0.025 A 
HETATM    7  C7  UNL     1      21.651   4.928  51.051  1.00  0.00     0.010 A 
HETATM    8  S1  UNL     1      20.311   3.806  51.287  1.00  0.00    -0.072 SA
HETATM    9  C8  UNL     1      21.220   2.551  52.150  1.00  0.00     0.114 A 
HETATM   10  N2  UNL     1      20.760   1.416  52.607  1.00  0.00    -0.234 NA
HETATM   11  C9  UNL     1      21.591   0.572  53.236  1.00  0.00     0.236 A 
HETATM   12  N3  UNL     1      22.844   1.005  53.325  1.00  0.00    -0.224 NA
HETATM   13  C10 UNL     1      23.331   2.158  52.866  1.00  0.00     0.140 A 
HETATM   14  C19 UNL     1      22.509   3.044  52.221  1.00  0.00     0.053 A 
HETATM   15  C20 UNL     1      21.684   6.241  50.373  1.00  0.00     0.172 C 
ENDROOT
BRANCH  13  16
HETATM   16  N4  UNL     1      24.726   2.344  53.069  1.00  0.00    -0.348 N 
HETATM   17  H9  UNL     1      25.277   3.097  53.519  1.00  0.00     0.163 HD
BRANCH  16  18
HETATM   18  C11 UNL     1      25.695   1.382  52.592  1.00  0.00     0.224 C 
HETATM   19  C12 UNL     1      26.385   1.903  51.342  1.00  0.00     0.063 C 
BRANCH  18  20
HETATM   20  O2  UNL     1      26.585   0.899  53.538  1.00  0.00    -0.326 OA
BRANCH  20  21
HETATM   21  C13 UNL     1      27.490  -0.122  53.420  1.00  0.00     0.071 A 
HETATM   22  C14 UNL     1      26.870  -1.276  52.934  1.00  0.00     0.037 A 
HETATM   23  C15 UNL     1      27.574  -2.457  52.724  1.00  0.00     0.003 A 
HETATM   24  C16 UNL     1      28.928  -2.479  53.006  1.00  0.00     0.000 A 
HETATM   25  C17 UNL     1      29.563  -1.338  53.491  1.00  0.00     0.003 A 
HETATM   26  C18 UNL     1      28.837  -0.187  53.689  1.00  0.00     0.037 A 
ENDBRANCH  20  21
ENDBRANCH  18  20
ENDBRANCH  16  18
ENDBRANCH  13  16
BRANCH   1  27
HETATM   27  C2  UNL     1      22.349   7.084  47.710  1.00  0.00     0.064 C 
HETATM   28  C1  UNL     1      22.837   6.584  46.583  1.00  0.00     0.017 C 
ENDBRANCH   1  27
TORSDOF 5
ENDMDL
