MODEL 1
REMARK VINA RESULT:      -8.6      0.000      0.000
REMARK  3 active torsions:
REMARK  status: ('A' for Active; 'I' for Inactive)
REMARK    1  A    between atoms: C5_6  and  N1_7 
REMARK    2  A    between atoms: N1_7  and  C6_8 
REMARK    3  A    between atoms: C8_12  and  C9_13 
ROOT
HETATM    1  C6  UNL     1      24.431   1.026  52.655  1.00  0.00     0.107 A 
HETATM    2  N2  UNL     1      23.191   0.639  52.633  1.00  0.00    -0.229 NA
HETATM    3  C7  UNL     1      22.385   1.153  51.559  1.00  0.00     0.229 A 
HETATM    4  N3  UNL     1      22.796   1.945  50.648  1.00  0.00    -0.273 NA
HETATM    5  C8  UNL     1      24.140   2.412  50.607  1.00  0.00     0.140 A 
HETATM    6  C19 UNL     1      25.056   1.939  51.673  1.00  0.00     0.110 A 
ENDROOT
BRANCH   5   7
HETATM    7  C9  UNL     1      24.192   3.912  50.618  1.00  0.00     0.010 C 
HETATM    8  C10 UNL     1      25.225   4.531  50.056  1.00  0.00    -0.033 C 
HETATM    9  C11 UNL     1      26.294   3.723  49.435  1.00  0.00     0.214 C 
HETATM   10  P1  UNL     1      25.211   6.363  50.111  1.00  0.00    -0.093 P 
HETATM   11  O1  UNL     1      27.493   4.436  49.292  1.00  0.00    -0.346 OA
HETATM   12  C12 UNL     1      27.895   5.510  48.548  1.00  0.00     0.075 A 
HETATM   13  C13 UNL     1      29.234   5.520  48.144  1.00  0.00     0.037 A 
HETATM   14  C17 UNL     1      27.100   6.546  48.181  1.00  0.00    -0.021 A 
HETATM   15  C14 UNL     1      29.786   6.532  47.392  1.00  0.00     0.003 A 
HETATM   16  C15 UNL     1      28.990   7.587  47.015  1.00  0.00     0.001 A 
HETATM   17  C16 UNL     1      27.673   7.569  47.417  1.00  0.00     0.010 A 
HETATM   18  C18 UNL     1      25.667   6.936  48.381  1.00  0.00     0.077 C 
HETATM   19  H17 UNL     1      26.250   6.840  51.013  1.00  0.00     0.062 HD
ENDBRANCH   5   7
BRANCH   1  20
HETATM   20  N1  UNL     1      25.313   0.579  53.672  1.00  0.00    -0.346 N 
HETATM   21  H5  UNL     1      25.256   0.795  54.703  1.00  0.00     0.167 HD
BRANCH  20  22
HETATM   22  C5  UNL     1      26.428  -0.256  53.381  1.00  0.00     0.032 A 
HETATM   23  C1  UNL     1      27.878  -0.062  53.529  1.00  0.00     0.154 A 
HETATM   24 CL1  UNL     1      28.348   0.235  55.220  1.00  0.00    -0.114 Cl
HETATM   25  C2  UNL     1      28.422  -1.360  53.021  1.00  0.00    -0.001 A 
HETATM   26  C3  UNL     1      27.424  -2.174  52.640  1.00  0.00    -0.000 A 
HETATM   27  C4  UNL     1      26.159  -1.449  52.878  1.00  0.00     0.026 A 
ENDBRANCH  20  22
ENDBRANCH   1  20
TORSDOF 3
ENDMDL
MODEL 2
REMARK VINA RESULT:      -8.5      1.789      2.565
REMARK  3 active torsions:
REMARK  status: ('A' for Active; 'I' for Inactive)
REMARK    1  A    between atoms: C5_6  and  N1_7 
REMARK    2  A    between atoms: N1_7  and  C6_8 
REMARK    3  A    between atoms: C8_12  and  C9_13 
ROOT
HETATM    1  C6  UNL     1      25.148  -0.089  54.226  1.00  0.00     0.107 A 
HETATM    2  N2  UNL     1      24.133  -0.847  54.514  1.00  0.00    -0.229 NA
HETATM    3  C7  UNL     1      22.960  -0.674  53.702  1.00  0.00     0.229 A 
HETATM    4  N3  UNL     1      22.851   0.156  52.739  1.00  0.00    -0.273 NA
HETATM    5  C8  UNL     1      23.919   1.019  52.366  1.00  0.00     0.140 A 
HETATM    6  C19 UNL     1      25.178   0.918  53.144  1.00  0.00     0.110 A 
ENDROOT
BRANCH   5   7
HETATM    7  C9  UNL     1      23.492   2.458  52.407  1.00  0.00     0.010 C 
HETATM    8  C10 UNL     1      24.115   3.343  51.638  1.00  0.00    -0.033 C 
HETATM    9  C11 UNL     1      25.213   2.886  50.763  1.00  0.00     0.214 C 
HETATM   10  P1  UNL     1      23.532   5.078  51.747  1.00  0.00    -0.093 P 
HETATM   11  O1  UNL     1      26.056   3.934  50.365  1.00  0.00    -0.346 OA
HETATM   12  C12 UNL     1      25.913   5.043  49.579  1.00  0.00     0.075 A 
HETATM   13  C13 UNL     1      27.049   5.457  48.874  1.00  0.00     0.037 A 
HETATM   14  C17 UNL     1      24.768   5.756  49.437  1.00  0.00    -0.021 A 
HETATM   15  C14 UNL     1      27.061   6.554  48.044  1.00  0.00     0.003 A 
HETATM   16  C15 UNL     1      25.907   7.284  47.893  1.00  0.00     0.001 A 
HETATM   17  C16 UNL     1      24.794   6.869  48.590  1.00  0.00     0.010 A 
HETATM   18  C18 UNL     1      23.371   5.682  49.976  1.00  0.00     0.077 C 
HETATM   19  H17 UNL     1      24.543   5.901  52.395  1.00  0.00     0.062 HD
ENDBRANCH   5   7
BRANCH   1  20
HETATM   20  N1  UNL     1      26.354  -0.179  54.967  1.00  0.00    -0.346 N 
HETATM   21  H5  UNL     1      26.471  -0.061  56.008  1.00  0.00     0.167 HD
BRANCH  20  22
HETATM   22  C5  UNL     1      27.600  -0.451  54.336  1.00  0.00     0.032 A 
HETATM   23  C1  UNL     1      28.092  -1.604  53.566  1.00  0.00     0.154 A 
HETATM   24 CL1  UNL     1      27.115  -1.906  52.109  1.00  0.00    -0.114 Cl
HETATM   25  C2  UNL     1      29.486  -1.181  53.222  1.00  0.00    -0.001 A 
HETATM   26  C3  UNL     1      29.747   0.037  53.724  1.00  0.00    -0.000 A 
HETATM   27  C4  UNL     1      28.530   0.485  54.431  1.00  0.00     0.026 A 
ENDBRANCH  20  22
ENDBRANCH   1  20
TORSDOF 3
ENDMDL
MODEL 3
REMARK VINA RESULT:      -8.3      2.389      2.993
REMARK  3 active torsions:
REMARK  status: ('A' for Active; 'I' for Inactive)
REMARK    1  A    between atoms: C5_6  and  N1_7 
REMARK    2  A    between atoms: N1_7  and  C6_8 
REMARK    3  A    between atoms: C8_12  and  C9_13 
ROOT
HETATM    1  C6  UNL     1      23.070   2.126  51.644  1.00  0.00     0.107 A 
HETATM    2  N2  UNL     1      22.175   1.789  50.765  1.00  0.00    -0.229 NA
HETATM    3  C7  UNL     1      22.439   2.181  49.407  1.00  0.00     0.229 A 
HETATM    4  N3  UNL     1      23.469   2.823  49.017  1.00  0.00    -0.273 NA
HETATM    5  C8  UNL     1      24.492   3.227  49.921  1.00  0.00     0.140 A 
HETATM    6  C19 UNL     1      24.315   2.869  51.349  1.00  0.00     0.110 A 
ENDROOT
BRANCH   5   7
HETATM    7  C9  UNL     1      24.710   4.711  49.863  1.00  0.00     0.010 C 
HETATM    8  C10 UNL     1      25.869   5.180  49.415  1.00  0.00    -0.033 C 
HETATM    9  C11 UNL     1      26.910   4.227  48.985  1.00  0.00     0.214 C 
HETATM   10  P1  UNL     1      26.054   7.004  49.376  1.00  0.00    -0.093 P 
HETATM   11  O1  UNL     1      28.190   4.800  48.968  1.00  0.00    -0.346 OA
HETATM   12  C12 UNL     1      28.802   5.776  48.232  1.00  0.00     0.075 A 
HETATM   13  C13 UNL     1      30.175   5.620  48.011  1.00  0.00     0.037 A 
HETATM   14  C17 UNL     1      28.182   6.864  47.711  1.00  0.00    -0.021 A 
HETATM   15  C14 UNL     1      30.928   6.518  47.291  1.00  0.00     0.003 A 
HETATM   16  C15 UNL     1      30.311   7.624  46.758  1.00  0.00     0.001 A 
HETATM   17  C16 UNL     1      28.960   7.770  46.980  1.00  0.00     0.010 A 
HETATM   18  C18 UNL     1      26.788   7.414  47.697  1.00  0.00     0.077 C 
HETATM   19  H17 UNL     1      27.016   7.426  50.384  1.00  0.00     0.062 HD
ENDBRANCH   5   7
BRANCH   1  20
HETATM   20  N1  UNL     1      22.907   1.789  53.011  1.00  0.00    -0.346 N 
HETATM   21  H5  UNL     1      23.115   2.400  53.846  1.00  0.00     0.167 HD
BRANCH  20  22
HETATM   22  C5  UNL     1      22.419   0.515  53.414  1.00  0.00     0.032 A 
HETATM   23  C1  UNL     1      23.041  -0.817  53.461  1.00  0.00     0.154 A 
HETATM   24 CL1  UNL     1      24.466  -0.857  54.526  1.00  0.00    -0.114 Cl
HETATM   25  C2  UNL     1      21.927  -1.666  53.990  1.00  0.00    -0.001 A 
HETATM   26  C3  UNL     1      20.832  -0.922  54.214  1.00  0.00    -0.000 A 
HETATM   27  C4  UNL     1      21.167   0.468  53.839  1.00  0.00     0.026 A 
ENDBRANCH  20  22
ENDBRANCH   1  20
TORSDOF 3
ENDMDL
MODEL 4
REMARK VINA RESULT:      -8.1      3.839      6.886
REMARK  3 active torsions:
REMARK  status: ('A' for Active; 'I' for Inactive)
REMARK    1  A    between atoms: C5_6  and  N1_7 
REMARK    2  A    between atoms: N1_7  and  C6_8 
REMARK    3  A    between atoms: C8_12  and  C9_13 
ROOT
HETATM    1  C6  UNL     1      26.552   2.183  52.783  1.00  0.00     0.107 A 
HETATM    2  N2  UNL     1      27.046   2.577  51.648  1.00  0.00    -0.229 NA
HETATM    3  C7  UNL     1      26.098   3.020  50.662  1.00  0.00     0.229 A 
HETATM    4  N3  UNL     1      24.833   3.051  50.824  1.00  0.00    -0.273 NA
HETATM    5  C8  UNL     1      24.219   2.635  52.039  1.00  0.00     0.140 A 
HETATM    6  C19 UNL     1      25.113   2.159  53.123  1.00  0.00     0.110 A 
ENDROOT
BRANCH   5   7
HETATM    7  C9  UNL     1      23.212   1.549  51.792  1.00  0.00     0.010 C 
HETATM    8  C10 UNL     1      21.937   1.874  51.614  1.00  0.00    -0.033 C 
HETATM    9  C11 UNL     1      21.545   3.297  51.664  1.00  0.00     0.214 C 
HETATM   10  P1  UNL     1      20.772   0.490  51.318  1.00  0.00    -0.093 P 
HETATM   11  O1  UNL     1      20.176   3.470  51.911  1.00  0.00    -0.346 OA
HETATM   12  C12 UNL     1      19.028   3.195  51.222  1.00  0.00     0.075 A 
HETATM   13  C13 UNL     1      17.955   4.070  51.426  1.00  0.00     0.037 A 
HETATM   14  C17 UNL     1      18.861   2.154  50.369  1.00  0.00    -0.021 A 
HETATM   15  C14 UNL     1      16.737   3.925  50.804  1.00  0.00     0.003 A 
HETATM   16  C15 UNL     1      16.555   2.873  49.938  1.00  0.00     0.001 A 
HETATM   17  C16 UNL     1      17.617   2.017  49.743  1.00  0.00     0.010 A 
HETATM   18  C18 UNL     1      19.700   1.017  49.869  1.00  0.00     0.077 C 
HETATM   19  H17 UNL     1      19.895   0.325  52.469  1.00  0.00     0.062 HD
ENDBRANCH   5   7
BRANCH   1  20
HETATM   20  N1  UNL     1      27.400   1.726  53.824  1.00  0.00    -0.346 N 
HETATM   21  H5  UNL     1      27.546   2.173  54.767  1.00  0.00     0.167 HD
BRANCH  20  22
HETATM   22  C5  UNL     1      28.185   0.547  53.685  1.00  0.00     0.032 A 
HETATM   23  C1  UNL     1      27.828  -0.874  53.553  1.00  0.00     0.154 A 
HETATM   24 CL1  UNL     1      26.830  -1.186  52.113  1.00  0.00    -0.114 Cl
HETATM   25  C2  UNL     1      29.171  -1.527  53.451  1.00  0.00    -0.001 A 
HETATM   26  C3  UNL     1      30.149  -0.609  53.514  1.00  0.00    -0.000 A 
HETATM   27  C4  UNL     1      29.498   0.709  53.663  1.00  0.00     0.026 A 
ENDBRANCH  20  22
ENDBRANCH   1  20
TORSDOF 3
ENDMDL
MODEL 5
REMARK VINA RESULT:      -8.1      3.914      8.389
REMARK  3 active torsions:
REMARK  status: ('A' for Active; 'I' for Inactive)
REMARK    1  A    between atoms: C5_6  and  N1_7 
REMARK    2  A    between atoms: N1_7  and  C6_8 
REMARK    3  A    between atoms: C8_12  and  C9_13 
ROOT
HETATM    1  C6  UNL     1      25.447   6.352  49.235  1.00  0.00     0.107 A 
HETATM    2  N2  UNL     1      24.963   7.356  49.904  1.00  0.00    -0.229 NA
HETATM    3  C7  UNL     1      24.147   7.027  51.040  1.00  0.00     0.229 A 
HETATM    4  N3  UNL     1      23.872   5.844  51.428  1.00  0.00    -0.273 NA
HETATM    5  C8  UNL     1      24.365   4.695  50.747  1.00  0.00     0.140 A 
HETATM    6  C19 UNL     1      25.220   4.927  49.557  1.00  0.00     0.110 A 
ENDROOT
BRANCH   5   7
HETATM    7  C9  UNL     1      23.242   3.800  50.312  1.00  0.00     0.010 C 
HETATM    8  C10 UNL     1      22.953   2.723  51.034  1.00  0.00    -0.033 C 
HETATM    9  C11 UNL     1      23.747   2.437  52.245  1.00  0.00     0.214 C 
HETATM   10  P1  UNL     1      21.566   1.683  50.435  1.00  0.00    -0.093 P 
HETATM   11  O1  UNL     1      23.655   1.096  52.645  1.00  0.00    -0.346 OA
HETATM   12  C12 UNL     1      22.657   0.299  53.131  1.00  0.00     0.075 A 
HETATM   13  C13 UNL     1      23.042  -0.708  54.023  1.00  0.00     0.037 A 
HETATM   14  C17 UNL     1      21.342   0.416  52.816  1.00  0.00    -0.021 A 
HETATM   15  C14 UNL     1      22.153  -1.587  54.595  1.00  0.00     0.003 A 
HETATM   16  C15 UNL     1      20.819  -1.479  54.283  1.00  0.00     0.001 A 
HETATM   17  C16 UNL     1      20.448  -0.485  53.405  1.00  0.00     0.010 A 
HETATM   18  C18 UNL     1      20.512   1.308  51.944  1.00  0.00     0.077 C 
HETATM   19  H17 UNL     1      22.077   0.414  49.938  1.00  0.00     0.062 HD
ENDBRANCH   5   7
BRANCH   1  20
HETATM   20  N1  UNL     1      26.264   6.565  48.096  1.00  0.00    -0.346 N 
HETATM   21  H5  UNL     1      25.949   6.632  47.091  1.00  0.00     0.167 HD
BRANCH  20  22
HETATM   22  C5  UNL     1      27.675   6.718  48.205  1.00  0.00     0.032 A 
HETATM   23  C1  UNL     1      28.546   7.903  48.232  1.00  0.00     0.154 A 
HETATM   24 CL1  UNL     1      28.170   8.983  49.595  1.00  0.00    -0.114 Cl
HETATM   25  C2  UNL     1      29.905   7.290  48.367  1.00  0.00    -0.001 A 
HETATM   26  C3  UNL     1      29.817   5.951  48.411  1.00  0.00    -0.000 A 
HETATM   27  C4  UNL     1      28.384   5.606  48.307  1.00  0.00     0.026 A 
ENDBRANCH  20  22
ENDBRANCH   1  20
TORSDOF 3
ENDMDL
MODEL 6
REMARK VINA RESULT:      -8.0      1.575      2.262
REMARK  3 active torsions:
REMARK  status: ('A' for Active; 'I' for Inactive)
REMARK    1  A    between atoms: C5_6  and  N1_7 
REMARK    2  A    between atoms: N1_7  and  C6_8 
REMARK    3  A    between atoms: C8_12  and  C9_13 
ROOT
HETATM    1  C6  UNL     1      24.326   2.968  51.508  1.00  0.00     0.107 A 
HETATM    2  N2  UNL     1      23.077   2.877  51.163  1.00  0.00    -0.229 NA
HETATM    3  C7  UNL     1      22.737   3.394  49.866  1.00  0.00     0.229 A 
HETATM    4  N3  UNL     1      23.561   3.923  49.048  1.00  0.00    -0.273 NA
HETATM    5  C8  UNL     1      24.944   4.058  49.356  1.00  0.00     0.140 A 
HETATM    6  C19 UNL     1      25.398   3.554  50.674  1.00  0.00     0.110 A 
ENDROOT
BRANCH   5   7
HETATM    7  C9  UNL     1      25.383   5.490  49.258  1.00  0.00     0.010 C 
HETATM    8  C10 UNL     1      26.632   5.763  48.898  1.00  0.00    -0.033 C 
HETATM    9  C11 UNL     1      27.555   4.648  48.606  1.00  0.00     0.214 C 
HETATM   10  P1  UNL     1      27.087   7.537  48.802  1.00  0.00    -0.093 P 
HETATM   11  O1  UNL     1      28.902   5.030  48.683  1.00  0.00    -0.346 OA
HETATM   12  C12 UNL     1      29.711   5.867  47.967  1.00  0.00     0.075 A 
HETATM   13  C13 UNL     1      31.060   5.504  47.880  1.00  0.00     0.037 A 
HETATM   14  C17 UNL     1      29.306   7.003  47.347  1.00  0.00    -0.021 A 
HETATM   15  C14 UNL     1      31.996   6.244  47.196  1.00  0.00     0.003 A 
HETATM   16  C15 UNL     1      31.596   7.397  46.563  1.00  0.00     0.001 A 
HETATM   17  C16 UNL     1      30.267   7.747  46.654  1.00  0.00     0.010 A 
HETATM   18  C18 UNL     1      28.014   7.746  47.181  1.00  0.00     0.077 C 
HETATM   19  H17 UNL     1      28.012   7.870  49.876  1.00  0.00     0.062 HD
ENDBRANCH   5   7
BRANCH   1  20
HETATM   20  N1  UNL     1      24.768   2.490  52.767  1.00  0.00    -0.346 N 
HETATM   21  H5  UNL     1      24.525   2.880  53.717  1.00  0.00     0.167 HD
BRANCH  20  22
HETATM   22  C5  UNL     1      25.638   1.369  52.878  1.00  0.00     0.032 A 
HETATM   23  C1  UNL     1      27.073   1.195  52.607  1.00  0.00     0.154 A 
HETATM   24 CL1  UNL     1      28.081   2.269  53.605  1.00  0.00    -0.114 Cl
HETATM   25  C2  UNL     1      27.285  -0.246  52.951  1.00  0.00    -0.001 A 
HETATM   26  C3  UNL     1      26.137  -0.808  53.361  1.00  0.00    -0.000 A 
HETATM   27  C4  UNL     1      25.097   0.240  53.307  1.00  0.00     0.026 A 
ENDBRANCH  20  22
ENDBRANCH   1  20
TORSDOF 3
ENDMDL
MODEL 7
REMARK VINA RESULT:      -7.8      4.588      5.172
REMARK  3 active torsions:
REMARK  status: ('A' for Active; 'I' for Inactive)
REMARK    1  A    between atoms: C5_6  and  N1_7 
REMARK    2  A    between atoms: N1_7  and  C6_8 
REMARK    3  A    between atoms: C8_12  and  C9_13 
ROOT
HETATM    1  C6  UNL     1      23.904  -0.882  54.697  1.00  0.00     0.107 A 
HETATM    2  N2  UNL     1      22.990  -1.531  55.353  1.00  0.00    -0.229 NA
HETATM    3  C7  UNL     1      21.655  -1.456  54.825  1.00  0.00     0.229 A 
HETATM    4  N3  UNL     1      21.316  -0.809  53.779  1.00  0.00    -0.273 NA
HETATM    5  C8  UNL     1      22.261  -0.074  53.009  1.00  0.00     0.140 A 
HETATM    6  C19 UNL     1      23.670  -0.088  53.471  1.00  0.00     0.110 A 
ENDROOT
BRANCH   5   7
HETATM    7  C9  UNL     1      21.854   1.366  52.884  1.00  0.00     0.010 C 
HETATM    8  C10 UNL     1      21.806   1.925  51.680  1.00  0.00    -0.033 C 
HETATM    9  C11 UNL     1      22.154   1.112  50.498  1.00  0.00     0.214 C 
HETATM   10  P1  UNL     1      21.299   3.686  51.614  1.00  0.00    -0.093 P 
HETATM   11  O1  UNL     1      22.496   1.898  49.387  1.00  0.00    -0.346 OA
HETATM   12  C12 UNL     1      21.822   2.765  48.573  1.00  0.00     0.075 A 
HETATM   13  C13 UNL     1      22.247   2.825  47.241  1.00  0.00     0.037 A 
HETATM   14  C17 UNL     1      20.790   3.555  48.960  1.00  0.00    -0.021 A 
HETATM   15  C14 UNL     1      21.668   3.648  46.303  1.00  0.00     0.003 A 
HETATM   16  C15 UNL     1      20.622   4.454  46.683  1.00  0.00     0.001 A 
HETATM   17  C16 UNL     1      20.211   4.388  47.996  1.00  0.00     0.010 A 
HETATM   18  C18 UNL     1      20.036   3.809  50.230  1.00  0.00     0.077 C 
HETATM   19  H17 UNL     1      22.436   4.515  51.239  1.00  0.00     0.062 HD
ENDBRANCH   5   7
BRANCH   1  20
HETATM   20  N1  UNL     1      25.253  -0.889  55.132  1.00  0.00    -0.346 N 
HETATM   21  H5  UNL     1      25.637  -1.341  56.005  1.00  0.00     0.167 HD
BRANCH  20  22
HETATM   22  C5  UNL     1      26.283  -0.246  54.390  1.00  0.00     0.032 A 
HETATM   23  C1  UNL     1      27.342  -0.761  53.510  1.00  0.00     0.154 A 
HETATM   24 CL1  UNL     1      26.685  -1.653  52.117  1.00  0.00    -0.114 Cl
HETATM   25  C2  UNL     1      28.038   0.495  53.087  1.00  0.00    -0.001 A 
HETATM   26  C3  UNL     1      27.457   1.568  53.646  1.00  0.00    -0.000 A 
HETATM   27  C4  UNL     1      26.338   1.073  54.474  1.00  0.00     0.026 A 
ENDBRANCH  20  22
ENDBRANCH   1  20
TORSDOF 3
ENDMDL
MODEL 8
REMARK VINA RESULT:      -7.7      3.042      3.524
REMARK  3 active torsions:
REMARK  status: ('A' for Active; 'I' for Inactive)
REMARK    1  A    between atoms: C5_6  and  N1_7 
REMARK    2  A    between atoms: N1_7  and  C6_8 
REMARK    3  A    between atoms: C8_12  and  C9_13 
ROOT
HETATM    1  C6  UNL     1      20.755   2.432  51.867  1.00  0.00     0.107 A 
HETATM    2  N2  UNL     1      19.683   2.417  51.133  1.00  0.00    -0.229 NA
HETATM    3  C7  UNL     1      19.802   2.998  49.823  1.00  0.00     0.229 A 
HETATM    4  N3  UNL     1      20.865   3.515  49.345  1.00  0.00    -0.273 NA
HETATM    5  C8  UNL     1      22.077   3.568  50.089  1.00  0.00     0.140 A 
HETATM    6  C19 UNL     1      22.060   2.993  51.456  1.00  0.00     0.110 A 
ENDROOT
BRANCH   5   7
HETATM    7  C9  UNL     1      22.575   4.978  50.211  1.00  0.00     0.010 C 
HETATM    8  C10 UNL     1      23.817   5.264  49.834  1.00  0.00    -0.033 C 
HETATM    9  C11 UNL     1      24.672   4.184  49.305  1.00  0.00     0.214 C 
HETATM   10  P1  UNL     1      24.346   7.010  50.016  1.00  0.00    -0.093 P 
HETATM   11  O1  UNL     1      26.037   4.497  49.371  1.00  0.00    -0.346 OA
HETATM   12  C12 UNL     1      26.848   5.415  48.764  1.00  0.00     0.075 A 
HETATM   13  C13 UNL     1      28.173   5.024  48.540  1.00  0.00     0.037 A 
HETATM   14  C17 UNL     1      26.464   6.655  48.369  1.00  0.00    -0.021 A 
HETATM   15  C14 UNL     1      29.107   5.836  47.941  1.00  0.00     0.003 A 
HETATM   16  C15 UNL     1      28.730   7.094  47.537  1.00  0.00     0.001 A 
HETATM   17  C16 UNL     1      27.424   7.471  47.761  1.00  0.00     0.010 A 
HETATM   18  C18 UNL     1      25.201   7.461  48.406  1.00  0.00     0.077 C 
HETATM   19  H17 UNL     1      25.337   7.119  51.078  1.00  0.00     0.062 HD
ENDBRANCH   5   7
BRANCH   1  20
HETATM   20  N1  UNL     1      20.746   1.886  53.175  1.00  0.00    -0.346 N 
HETATM   21  H5  UNL     1      20.395   2.350  54.056  1.00  0.00     0.167 HD
BRANCH  20  22
HETATM   22  C5  UNL     1      21.242   0.579  53.444  1.00  0.00     0.032 A 
HETATM   23  C1  UNL     1      22.326  -0.213  52.845  1.00  0.00     0.154 A 
HETATM   24 CL1  UNL     1      23.909   0.585  53.005  1.00  0.00    -0.114 Cl
HETATM   25  C2  UNL     1      22.262  -1.482  53.637  1.00  0.00    -0.001 A 
HETATM   26  C3  UNL     1      21.282  -1.418  54.553  1.00  0.00    -0.000 A 
HETATM   27  C4  UNL     1      20.643  -0.094  54.413  1.00  0.00     0.026 A 
ENDBRANCH  20  22
ENDBRANCH   1  20
TORSDOF 3
ENDMDL
MODEL 9
REMARK VINA RESULT:      -7.6      3.928      8.617
REMARK  3 active torsions:
REMARK  status: ('A' for Active; 'I' for Inactive)
REMARK    1  A    between atoms: C5_6  and  N1_7 
REMARK    2  A    between atoms: N1_7  and  C6_8 
REMARK    3  A    between atoms: C8_12  and  C9_13 
ROOT
HETATM    1  C6  UNL     1      25.676   5.867  49.341  1.00  0.00     0.107 A 
HETATM    2  N2  UNL     1      26.799   6.039  48.710  1.00  0.00    -0.229 NA
HETATM    3  C7  UNL     1      27.651   4.886  48.604  1.00  0.00     0.229 A 
HETATM    4  N3  UNL     1      27.385   3.732  49.077  1.00  0.00    -0.273 NA
HETATM    5  C8  UNL     1      26.175   3.467  49.779  1.00  0.00     0.140 A 
HETATM    6  C19 UNL     1      25.225   4.594  49.943  1.00  0.00     0.110 A 
ENDROOT
BRANCH   5   7
HETATM    7  C9  UNL     1      26.454   2.925  51.151  1.00  0.00     0.010 C 
HETATM    8  C10 UNL     1      25.484   2.305  51.814  1.00  0.00    -0.033 C 
HETATM    9  C11 UNL     1      24.157   2.168  51.182  1.00  0.00     0.214 C 
HETATM   10  P1  UNL     1      25.907   1.672  53.482  1.00  0.00    -0.093 P 
HETATM   11  O1  UNL     1      23.140   1.920  52.114  1.00  0.00    -0.346 OA
HETATM   12  C12 UNL     1      22.830   0.886  52.952  1.00  0.00     0.075 A 
HETATM   13  C13 UNL     1      21.469   0.676  53.205  1.00  0.00     0.037 A 
HETATM   14  C17 UNL     1      23.732   0.064  53.544  1.00  0.00    -0.021 A 
HETATM   15  C14 UNL     1      21.001  -0.324  54.026  1.00  0.00     0.003 A 
HETATM   16  C15 UNL     1      21.906  -1.163  54.631  1.00  0.00     0.001 A 
HETATM   17  C16 UNL     1      23.243  -0.949  54.377  1.00  0.00     0.010 A 
HETATM   18  C18 UNL     1      25.224  -0.076  53.560  1.00  0.00     0.077 C 
HETATM   19  H17 UNL     1      25.217   2.453  54.498  1.00  0.00     0.062 HD
ENDBRANCH   5   7
BRANCH   1  20
HETATM   20  N1  UNL     1      24.763   6.940  49.503  1.00  0.00    -0.346 N 
HETATM   21  H5  UNL     1      24.913   7.824  50.058  1.00  0.00     0.167 HD
BRANCH  20  22
HETATM   22  C5  UNL     1      23.477   6.925  48.895  1.00  0.00     0.032 A 
HETATM   23  C1  UNL     1      22.148   6.541  49.394  1.00  0.00     0.154 A 
HETATM   24 CL1  UNL     1      21.645   7.523  50.790  1.00  0.00    -0.114 Cl
HETATM   25  C2  UNL     1      21.280   6.788  48.199  1.00  0.00    -0.001 A 
HETATM   26  C3  UNL     1      22.012   7.247  47.171  1.00  0.00    -0.000 A 
HETATM   27  C4  UNL     1      23.412   7.327  47.636  1.00  0.00     0.026 A 
ENDBRANCH  20  22
ENDBRANCH   1  20
TORSDOF 3
ENDMDL
