MODEL 1
REMARK VINA RESULT:      -8.3      0.000      0.000
REMARK  3 active torsions:
REMARK  status: ('A' for Active; 'I' for Inactive)
REMARK    1  A    between atoms: C2_2  and  C3_3 
REMARK    2  A    between atoms: C3_3  and  C4_4 
REMARK    3  A    between atoms: C3_3  and  O1_24 
ROOT
HETATM    1  C4  UNL     1      27.685   0.365  53.348  1.00  0.00     0.017 C 
HETATM    2  C5  UNL     1      26.420   0.677  52.985  1.00  0.00    -0.054 C 
HETATM    3  C6  UNL     1      25.358  -0.333  52.706  1.00  0.00     0.153 C 
HETATM    4  N1  UNL     1      24.212  -0.230  53.530  1.00  0.00    -0.394 N 
HETATM    5  C7  UNL     1      22.898  -0.590  53.863  1.00  0.00     0.090 C 
HETATM    6  C8  UNL     1      22.127   0.028  52.977  1.00  0.00     0.063 C 
HETATM    7  S1  UNL     1      21.365   0.946  51.697  1.00  0.00    -0.119 SA
HETATM    8  C9  UNL     1      22.063   2.602  51.520  1.00  0.00     0.224 C 
HETATM    9  N2  UNL     1      23.426   2.615  51.041  1.00  0.00    -0.278 N 
HETATM   10  N3  UNL     1      24.474   1.728  51.257  1.00  0.00    -0.183 NA
HETATM   11  C10 UNL     1      25.558   2.385  51.448  1.00  0.00     0.043 C 
HETATM   12  C11 UNL     1      25.452   2.976  50.062  1.00  0.00     0.098 C 
HETATM   13  C12 UNL     1      24.071   3.592  50.171  1.00  0.00     0.093 A 
HETATM   14  C13 UNL     1      24.202   4.923  50.759  1.00  0.00     0.011 A 
HETATM   15  C14 UNL     1      23.697   5.838  49.947  1.00  0.00     0.017 A 
HETATM   16  C15 UNL     1      23.207   5.105  48.770  1.00  0.00     0.009 A 
HETATM   17 BR1  UNL     1      22.374   5.930  47.267  1.00  0.00    -0.051 Br
HETATM   18  C16 UNL     1      23.418   3.784  48.883  1.00  0.00     0.029 A 
HETATM   19  C17 UNL     1      26.146   2.127  52.832  1.00  0.00     0.061 C 
HETATM   20  C18 UNL     1      25.140   2.674  53.833  1.00  0.00     0.021 C 
HETATM   21  H8  UNL     1      24.236   0.377  54.376  1.00  0.00     0.159 HD
ENDROOT
BRANCH   1  22
HETATM   22  C3  UNL     1      29.006   0.882  53.710  1.00  0.00     0.211 C 
BRANCH  22  23
HETATM   23  C2  UNL     1      30.039  -0.217  53.800  1.00  0.00     0.002 C 
HETATM   24  C1  UNL     1      30.167  -1.560  53.832  1.00  0.00     0.010 C 
ENDBRANCH  22  23
BRANCH  22  25
HETATM   25  O1  UNL     1      29.043   1.598  54.919  1.00  0.00    -0.186 OA
HETATM   26  F1  UNL     1      30.009   2.482  54.963  1.00  0.00    -0.047 F 
ENDBRANCH  22  25
ENDBRANCH   1  22
TORSDOF 3
ENDMDL
MODEL 2
REMARK VINA RESULT:      -8.2      4.535      7.056
REMARK  3 active torsions:
REMARK  status: ('A' for Active; 'I' for Inactive)
REMARK    1  A    between atoms: C2_2  and  C3_3 
REMARK    2  A    between atoms: C3_3  and  C4_4 
REMARK    3  A    between atoms: C3_3  and  O1_24 
ROOT
HETATM    1  C4  UNL     1      20.664   0.717  51.842  1.00  0.00     0.017 C 
HETATM    2  C5  UNL     1      21.914   1.177  51.606  1.00  0.00    -0.054 C 
HETATM    3  C6  UNL     1      22.438   1.514  50.250  1.00  0.00     0.153 C 
HETATM    4  N1  UNL     1      22.862   2.855  50.096  1.00  0.00    -0.394 N 
HETATM    5  C7  UNL     1      23.493   3.871  49.363  1.00  0.00     0.090 C 
HETATM    6  C8  UNL     1      24.794   3.636  49.481  1.00  0.00     0.063 C 
HETATM    7  S1  UNL     1      26.426   3.093  49.802  1.00  0.00    -0.119 SA
HETATM    8  C9  UNL     1      26.679   2.635  51.529  1.00  0.00     0.224 C 
HETATM    9  N2  UNL     1      25.954   1.453  51.934  1.00  0.00    -0.278 N 
HETATM   10  N3  UNL     1      24.712   0.969  51.538  1.00  0.00    -0.183 NA
HETATM   11  C10 UNL     1      24.079   0.527  52.562  1.00  0.00     0.043 C 
HETATM   12  C11 UNL     1      25.159  -0.502  52.796  1.00  0.00     0.098 C 
HETATM   13  C12 UNL     1      26.355   0.426  52.888  1.00  0.00     0.093 A 
HETATM   14  C13 UNL     1      26.469   0.899  54.266  1.00  0.00     0.011 A 
HETATM   15  C14 UNL     1      27.654   0.586  54.765  1.00  0.00     0.017 A 
HETATM   16  C15 UNL     1      28.368  -0.123  53.693  1.00  0.00     0.009 A 
HETATM   17 BR1  UNL     1      30.138  -0.810  53.859  1.00  0.00    -0.051 Br
HETATM   18  C16 UNL     1      27.621  -0.228  52.582  1.00  0.00     0.029 A 
HETATM   19  C17 UNL     1      22.781   1.293  52.804  1.00  0.00     0.061 C 
HETATM   20  C18 UNL     1      23.183   2.720  53.140  1.00  0.00     0.021 C 
HETATM   21  H8  UNL     1      22.621   3.561  50.823  1.00  0.00     0.159 HD
ENDROOT
BRANCH   1  22
HETATM   22  C3  UNL     1      19.707   0.269  52.854  1.00  0.00     0.211 C 
BRANCH  22  23
HETATM   23  C2  UNL     1      20.182  -0.971  53.573  1.00  0.00     0.002 C 
HETATM   24  C1  UNL     1      21.153  -1.421  54.395  1.00  0.00     0.010 C 
ENDBRANCH  22  23
BRANCH  22  25
HETATM   25  O1  UNL     1      18.416   0.007  52.364  1.00  0.00    -0.186 OA
HETATM   26  F1  UNL     1      18.063  -1.249  52.492  1.00  0.00    -0.047 F 
ENDBRANCH  22  25
ENDBRANCH   1  22
TORSDOF 3
ENDMDL
MODEL 3
REMARK VINA RESULT:      -8.0      1.184      1.337
REMARK  3 active torsions:
REMARK  status: ('A' for Active; 'I' for Inactive)
REMARK    1  A    between atoms: C2_2  and  C3_3 
REMARK    2  A    between atoms: C3_3  and  C4_4 
REMARK    3  A    between atoms: C3_3  and  O1_24 
ROOT
HETATM    1  C4  UNL     1      26.373   0.488  53.000  1.00  0.00     0.017 C 
HETATM    2  C5  UNL     1      25.181   1.003  52.625  1.00  0.00    -0.054 C 
HETATM    3  C6  UNL     1      23.925   0.205  52.513  1.00  0.00     0.153 C 
HETATM    4  N1  UNL     1      22.865   0.649  53.339  1.00  0.00    -0.394 N 
HETATM    5  C7  UNL     1      21.524   0.615  53.748  1.00  0.00     0.090 C 
HETATM    6  C8  UNL     1      20.849   1.255  52.802  1.00  0.00     0.063 C 
HETATM    7  S1  UNL     1      20.224   2.133  51.423  1.00  0.00    -0.119 SA
HETATM    8  C9  UNL     1      21.230   3.572  51.002  1.00  0.00     0.224 C 
HETATM    9  N2  UNL     1      22.543   3.241  50.496  1.00  0.00    -0.278 N 
HETATM   10  N3  UNL     1      23.401   2.194  50.811  1.00  0.00    -0.183 NA
HETATM   11  C10 UNL     1      24.603   2.633  50.884  1.00  0.00     0.043 C 
HETATM   12  C11 UNL     1      24.549   3.045  49.431  1.00  0.00     0.098 C 
HETATM   13  C12 UNL     1      23.327   3.941  49.484  1.00  0.00     0.093 A 
HETATM   14  C13 UNL     1      23.752   5.282  49.877  1.00  0.00     0.011 A 
HETATM   15  C14 UNL     1      23.401   6.166  48.957  1.00  0.00     0.017 A 
HETATM   16  C15 UNL     1      22.715   5.401  47.905  1.00  0.00     0.009 A 
HETATM   17 BR1  UNL     1      21.990   6.174  46.321  1.00  0.00    -0.051 Br
HETATM   18  C16 UNL     1      22.662   4.091  48.197  1.00  0.00     0.029 A 
HETATM   19  C17 UNL     1      25.195   2.445  52.277  1.00  0.00     0.061 C 
HETATM   20  C18 UNL     1      24.371   3.315  53.213  1.00  0.00     0.021 C 
HETATM   21  H8  UNL     1      23.052   1.344  54.091  1.00  0.00     0.159 HD
ENDROOT
BRANCH   1  22
HETATM   22  C3  UNL     1      27.788   0.765  53.257  1.00  0.00     0.211 C 
BRANCH  22  23
HETATM   23  C2  UNL     1      28.570  -0.496  53.537  1.00  0.00     0.002 C 
HETATM   24  C1  UNL     1      29.830  -0.964  53.661  1.00  0.00     0.010 C 
ENDBRANCH  22  23
BRANCH  22  25
HETATM   25  O1  UNL     1      28.026   1.656  54.318  1.00  0.00    -0.186 OA
HETATM   26  F1  UNL     1      28.356   2.858  53.915  1.00  0.00    -0.047 F 
ENDBRANCH  22  25
ENDBRANCH   1  22
TORSDOF 3
ENDMDL
MODEL 4
REMARK VINA RESULT:      -8.0      4.048      6.770
REMARK  3 active torsions:
REMARK  status: ('A' for Active; 'I' for Inactive)
REMARK    1  A    between atoms: C2_2  and  C3_3 
REMARK    2  A    between atoms: C3_3  and  C4_4 
REMARK    3  A    between atoms: C3_3  and  O1_24 
ROOT
HETATM    1  C4  UNL     1      20.596   4.361  50.935  1.00  0.00     0.017 C 
HETATM    2  C5  UNL     1      21.054   3.240  51.536  1.00  0.00    -0.054 C 
HETATM    3  C6  UNL     1      20.373   2.568  52.680  1.00  0.00     0.153 C 
HETATM    4  N1  UNL     1      19.991   1.227  52.437  1.00  0.00    -0.394 N 
HETATM    5  C7  UNL     1      19.501  -0.013  52.874  1.00  0.00     0.090 C 
HETATM    6  C8  UNL     1      20.508  -0.580  53.527  1.00  0.00     0.063 C 
HETATM    7  S1  UNL     1      21.984  -1.080  54.321  1.00  0.00    -0.119 SA
HETATM    8  C9  UNL     1      23.455  -0.742  53.330  1.00  0.00     0.224 C 
HETATM    9  N2  UNL     1      23.740   0.665  53.166  1.00  0.00    -0.278 N 
HETATM   10  N3  UNL     1      22.888   1.758  53.059  1.00  0.00    -0.183 NA
HETATM   11  C10 UNL     1      23.328   2.556  52.156  1.00  0.00     0.043 C 
HETATM   12  C11 UNL     1      24.596   2.766  52.950  1.00  0.00     0.098 C 
HETATM   13  C12 UNL     1      25.039   1.322  53.077  1.00  0.00     0.093 A 
HETATM   14  C13 UNL     1      25.810   0.967  51.887  1.00  0.00     0.011 A 
HETATM   15  C14 UNL     1      27.021   0.557  52.228  1.00  0.00     0.017 A 
HETATM   16  C15 UNL     1      27.075   0.636  53.695  1.00  0.00     0.009 A 
HETATM   17 BR1  UNL     1      28.600   0.160  54.735  1.00  0.00    -0.051 Br
HETATM   18  C16 UNL     1      25.920   1.083  54.212  1.00  0.00     0.029 A 
HETATM   19  C17 UNL     1      22.338   2.718  51.007  1.00  0.00     0.061 C 
HETATM   20  C18 UNL     1      22.225   1.354  50.344  1.00  0.00     0.021 C 
HETATM   21  H8  UNL     1      20.016   0.850  51.468  1.00  0.00     0.159 HD
ENDROOT
BRANCH   1  22
HETATM   22  C3  UNL     1      20.824   5.354  49.884  1.00  0.00     0.211 C 
BRANCH  22  23
HETATM   23  C2  UNL     1      20.857   4.728  48.510  1.00  0.00     0.002 C 
HETATM   24  C1  UNL     1      21.692   4.144  47.624  1.00  0.00     0.010 C 
ENDBRANCH  22  23
BRANCH  22  25
HETATM   25  O1  UNL     1      22.002   6.107  50.035  1.00  0.00    -0.186 OA
HETATM   26  F1  UNL     1      22.348   6.273  51.288  1.00  0.00    -0.047 F 
ENDBRANCH  22  25
ENDBRANCH   1  22
TORSDOF 3
ENDMDL
MODEL 5
REMARK VINA RESULT:      -7.8      2.501      2.960
REMARK  3 active torsions:
REMARK  status: ('A' for Active; 'I' for Inactive)
REMARK    1  A    between atoms: C2_2  and  C3_3 
REMARK    2  A    between atoms: C3_3  and  C4_4 
REMARK    3  A    between atoms: C3_3  and  O1_24 
ROOT
HETATM    1  C4  UNL     1      24.734   0.097  52.823  1.00  0.00     0.017 C 
HETATM    2  C5  UNL     1      23.975   1.120  52.371  1.00  0.00    -0.054 C 
HETATM    3  C6  UNL     1      22.581   0.964  51.862  1.00  0.00     0.153 C 
HETATM    4  N1  UNL     1      21.606   1.708  52.568  1.00  0.00    -0.394 N 
HETATM    5  C7  UNL     1      20.301   2.201  52.716  1.00  0.00     0.090 C 
HETATM    6  C8  UNL     1      20.194   3.188  51.836  1.00  0.00     0.063 C 
HETATM    7  S1  UNL     1      20.334   4.424  50.606  1.00  0.00    -0.119 SA
HETATM    8  C9  UNL     1      21.892   5.331  50.705  1.00  0.00     0.224 C 
HETATM    9  N2  UNL     1      23.054   4.537  50.376  1.00  0.00    -0.278 N 
HETATM   10  N3  UNL     1      23.325   3.191  50.591  1.00  0.00    -0.183 NA
HETATM   11  C10 UNL     1      24.542   3.055  50.972  1.00  0.00     0.043 C 
HETATM   12  C11 UNL     1      25.024   3.639  49.665  1.00  0.00     0.098 C 
HETATM   13  C12 UNL     1      24.278   4.958  49.704  1.00  0.00     0.093 A 
HETATM   14  C13 UNL     1      25.076   5.920  50.460  1.00  0.00     0.011 A 
HETATM   15  C14 UNL     1      25.344   6.982  49.718  1.00  0.00     0.017 A 
HETATM   16  C15 UNL     1      24.707   6.734  48.416  1.00  0.00     0.009 A 
HETATM   17 BR1  UNL     1      24.770   7.947  46.946  1.00  0.00    -0.051 Br
HETATM   18  C16 UNL     1      24.076   5.550  48.388  1.00  0.00     0.029 A 
HETATM   19  C17 UNL     1      24.638   2.447  52.368  1.00  0.00     0.061 C 
HETATM   20  C18 UNL     1      24.009   3.455  53.318  1.00  0.00     0.021 C 
HETATM   21  H8  UNL     1      21.850   2.148  53.479  1.00  0.00     0.159 HD
ENDROOT
BRANCH   1  22
HETATM   22  C3  UNL     1      26.028  -0.299  53.381  1.00  0.00     0.211 C 
BRANCH  22  23
HETATM   23  C2  UNL     1      26.758  -1.271  52.484  1.00  0.00     0.002 C 
HETATM   24  C1  UNL     1      27.415  -2.450  52.501  1.00  0.00     0.010 C 
ENDBRANCH  22  23
BRANCH  22  25
HETATM   25  O1  UNL     1      25.962  -0.872  54.663  1.00  0.00    -0.186 OA
HETATM   26  F1  UNL     1      24.835  -0.620  55.281  1.00  0.00    -0.047 F 
ENDBRANCH  22  25
ENDBRANCH   1  22
TORSDOF 3
ENDMDL
MODEL 6
REMARK VINA RESULT:      -7.7      3.535      5.313
REMARK  3 active torsions:
REMARK  status: ('A' for Active; 'I' for Inactive)
REMARK    1  A    between atoms: C2_2  and  C3_3 
REMARK    2  A    between atoms: C3_3  and  C4_4 
REMARK    3  A    between atoms: C3_3  and  O1_24 
ROOT
HETATM    1  C4  UNL     1      26.236   4.179  49.683  1.00  0.00     0.017 C 
HETATM    2  C5  UNL     1      25.635   3.319  50.536  1.00  0.00    -0.054 C 
HETATM    3  C6  UNL     1      26.242   2.036  50.995  1.00  0.00     0.153 C 
HETATM    4  N1  UNL     1      26.415   1.930  52.395  1.00  0.00    -0.394 N 
HETATM    5  C7  UNL     1      26.729   1.191  53.546  1.00  0.00     0.090 C 
HETATM    6  C8  UNL     1      25.669   0.425  53.774  1.00  0.00     0.063 C 
HETATM    7  S1  UNL     1      24.158  -0.455  53.832  1.00  0.00    -0.119 SA
HETATM    8  C9  UNL     1      22.725   0.603  53.536  1.00  0.00     0.224 C 
HETATM    9  N2  UNL     1      22.646   1.119  52.189  1.00  0.00    -0.278 N 
HETATM   10  N3  UNL     1      23.647   1.490  51.298  1.00  0.00    -0.183 NA
HETATM   11  C10 UNL     1      23.304   2.568  50.694  1.00  0.00     0.043 C 
HETATM   12  C11 UNL     1      22.103   1.865  50.104  1.00  0.00     0.098 C 
HETATM   13  C12 UNL     1      21.456   1.383  51.388  1.00  0.00     0.093 A 
HETATM   14  C13 UNL     1      20.608   2.452  51.909  1.00  0.00     0.011 A 
HETATM   15  C14 UNL     1      19.360   2.031  52.035  1.00  0.00     0.017 A 
HETATM   16  C15 UNL     1      19.360   0.632  51.584  1.00  0.00     0.009 A 
HETATM   17 BR1  UNL     1      17.812  -0.480  51.550  1.00  0.00    -0.051 Br
HETATM   18  C16 UNL     1      20.582   0.232  51.200  1.00  0.00     0.029 A 
HETATM   19  C17 UNL     1      24.274   3.712  50.975  1.00  0.00     0.061 C 
HETATM   20  C18 UNL     1      24.165   4.009  52.463  1.00  0.00     0.021 C 
HETATM   21  H8  UNL     1      26.306   2.773  52.995  1.00  0.00     0.159 HD
ENDROOT
BRANCH   1  22
HETATM   22  C3  UNL     1      26.127   5.448  48.962  1.00  0.00     0.211 C 
BRANCH  22  23
HETATM   23  C2  UNL     1      27.468   5.937  48.471  1.00  0.00     0.002 C 
HETATM   24  C1  UNL     1      28.725   5.520  48.208  1.00  0.00     0.010 C 
ENDBRANCH  22  23
BRANCH  22  25
HETATM   25  O1  UNL     1      25.539   6.490  49.699  1.00  0.00    -0.186 OA
HETATM   26  F1  UNL     1      26.418   7.305  50.228  1.00  0.00    -0.047 F 
ENDBRANCH  22  25
ENDBRANCH   1  22
TORSDOF 3
ENDMDL
MODEL 7
REMARK VINA RESULT:      -7.5      3.184      4.873
REMARK  3 active torsions:
REMARK  status: ('A' for Active; 'I' for Inactive)
REMARK    1  A    between atoms: C2_2  and  C3_3 
REMARK    2  A    between atoms: C3_3  and  C4_4 
REMARK    3  A    between atoms: C3_3  and  O1_24 
ROOT
HETATM    1  C4  UNL     1      25.287   1.505  53.514  1.00  0.00     0.017 C 
HETATM    2  C5  UNL     1      24.365   2.244  52.857  1.00  0.00    -0.054 C 
HETATM    3  C6  UNL     1      24.182   3.713  53.046  1.00  0.00     0.153 C 
HETATM    4  N1  UNL     1      24.354   4.487  51.874  1.00  0.00    -0.394 N 
HETATM    5  C7  UNL     1      24.275   5.701  51.177  1.00  0.00     0.090 C 
HETATM    6  C8  UNL     1      22.986   5.876  50.917  1.00  0.00     0.063 C 
HETATM    7  S1  UNL     1      21.248   5.848  50.716  1.00  0.00    -0.119 SA
HETATM    8  C9  UNL     1      20.632   4.226  50.215  1.00  0.00     0.224 C 
HETATM    9  N2  UNL     1      20.769   3.208  51.231  1.00  0.00    -0.278 N 
HETATM   10  N3  UNL     1      21.748   3.016  52.199  1.00  0.00    -0.183 NA
HETATM   11  C10 UNL     1      22.026   1.768  52.285  1.00  0.00     0.043 C 
HETATM   12  C11 UNL     1      20.604   1.471  52.697  1.00  0.00     0.098 C 
HETATM   13  C12 UNL     1      19.880   2.087  51.516  1.00  0.00     0.093 A 
HETATM   14  C13 UNL     1      19.806   1.094  50.447  1.00  0.00     0.011 A 
HETATM   15  C14 UNL     1      18.547   0.871  50.111  1.00  0.00     0.017 A 
HETATM   16  C15 UNL     1      17.738   1.740  50.978  1.00  0.00     0.009 A 
HETATM   17 BR1  UNL     1      15.834   1.831  50.926  1.00  0.00    -0.051 Br
HETATM   18  C16 UNL     1      18.503   2.463  51.811  1.00  0.00     0.029 A 
HETATM   19  C17 UNL     1      23.484   1.484  51.936  1.00  0.00     0.061 C 
HETATM   20  C18 UNL     1      23.654   1.854  50.471  1.00  0.00     0.021 C 
HETATM   21  H8  UNL     1      24.772   4.053  51.025  1.00  0.00     0.159 HD
ENDROOT
BRANCH   1  22
HETATM   22  C3  UNL     1      25.859   0.172  53.709  1.00  0.00     0.211 C 
BRANCH  22  23
HETATM   23  C2  UNL     1      27.047   0.196  54.640  1.00  0.00     0.002 C 
HETATM   24  C1  UNL     1      28.392   0.316  54.651  1.00  0.00     0.010 C 
ENDBRANCH  22  23
BRANCH  22  25
HETATM   25  O1  UNL     1      26.260  -0.472  52.526  1.00  0.00    -0.186 OA
HETATM   26  F1  UNL     1      26.800   0.343  51.654  1.00  0.00    -0.047 F 
ENDBRANCH  22  25
ENDBRANCH   1  22
TORSDOF 3
ENDMDL
MODEL 8
REMARK VINA RESULT:      -7.2      3.328      5.309
REMARK  3 active torsions:
REMARK  status: ('A' for Active; 'I' for Inactive)
REMARK    1  A    between atoms: C2_2  and  C3_3 
REMARK    2  A    between atoms: C3_3  and  C4_4 
REMARK    3  A    between atoms: C3_3  and  O1_24 
ROOT
HETATM    1  C4  UNL     1      26.180   3.740  50.211  1.00  0.00     0.017 C 
HETATM    2  C5  UNL     1      25.464   2.895  50.986  1.00  0.00    -0.054 C 
HETATM    3  C6  UNL     1      25.928   1.535  51.390  1.00  0.00     0.153 C 
HETATM    4  N1  UNL     1      26.028   1.334  52.787  1.00  0.00    -0.394 N 
HETATM    5  C7  UNL     1      26.219   0.504  53.901  1.00  0.00     0.090 C 
HETATM    6  C8  UNL     1      25.084  -0.168  54.041  1.00  0.00     0.063 C 
HETATM    7  S1  UNL     1      23.496  -0.901  53.987  1.00  0.00    -0.119 SA
HETATM    8  C9  UNL     1      22.183   0.304  53.700  1.00  0.00     0.224 C 
HETATM    9  N2  UNL     1      22.213   0.901  52.385  1.00  0.00    -0.278 N 
HETATM   10  N3  UNL     1      23.282   1.224  51.557  1.00  0.00    -0.183 NA
HETATM   11  C10 UNL     1      23.068   2.363  51.008  1.00  0.00     0.043 C 
HETATM   12  C11 UNL     1      21.835   1.813  50.330  1.00  0.00     0.098 C 
HETATM   13  C12 UNL     1      21.089   1.323  51.555  1.00  0.00     0.093 A 
HETATM   14  C13 UNL     1      20.322   2.437  52.108  1.00  0.00     0.011 A 
HETATM   15  C14 UNL     1      19.036   2.131  52.159  1.00  0.00     0.017 A 
HETATM   16  C15 UNL     1      18.925   0.766  51.624  1.00  0.00     0.009 A 
HETATM   17 BR1  UNL     1      17.283  -0.189  51.462  1.00  0.00    -0.051 Br
HETATM   18  C16 UNL     1      20.121   0.274  51.264  1.00  0.00     0.029 A 
HETATM   19  C17 UNL     1      24.127   3.391  51.395  1.00  0.00     0.061 C 
HETATM   20  C18 UNL     1      23.981   3.612  52.893  1.00  0.00     0.021 C 
HETATM   21  H8  UNL     1      25.972   2.149  53.432  1.00  0.00     0.159 HD
ENDROOT
BRANCH   1  22
HETATM   22  C3  UNL     1      26.222   5.053  49.565  1.00  0.00     0.211 C 
BRANCH  22  23
HETATM   23  C2  UNL     1      24.933   5.372  48.846  1.00  0.00     0.002 C 
HETATM   24  C1  UNL     1      23.735   4.843  48.519  1.00  0.00     0.010 C 
ENDBRANCH  22  23
BRANCH  22  25
HETATM   25  O1  UNL     1      27.273   5.219  48.646  1.00  0.00    -0.186 OA
HETATM   26  F1  UNL     1      27.955   4.119  48.440  1.00  0.00    -0.047 F 
ENDBRANCH  22  25
ENDBRANCH   1  22
TORSDOF 3
ENDMDL
MODEL 9
REMARK VINA RESULT:      -7.1      3.388      4.663
REMARK  3 active torsions:
REMARK  status: ('A' for Active; 'I' for Inactive)
REMARK    1  A    between atoms: C2_2  and  C3_3 
REMARK    2  A    between atoms: C3_3  and  C4_4 
REMARK    3  A    between atoms: C3_3  and  O1_24 
ROOT
HETATM    1  C4  UNL     1      23.774   1.326  51.844  1.00  0.00     0.017 C 
HETATM    2  C5  UNL     1      23.501   2.372  51.033  1.00  0.00    -0.054 C 
HETATM    3  C6  UNL     1      22.747   2.260  49.750  1.00  0.00     0.153 C 
HETATM    4  N1  UNL     1      21.564   3.034  49.689  1.00  0.00    -0.394 N 
HETATM    5  C7  UNL     1      20.476   3.567  48.983  1.00  0.00     0.090 C 
HETATM    6  C8  UNL     1      20.977   4.558  48.256  1.00  0.00     0.063 C 
HETATM    7  S1  UNL     1      21.899   5.788  47.421  1.00  0.00    -0.119 SA
HETATM    8  C9  UNL     1      23.058   6.646  48.507  1.00  0.00     0.224 C 
HETATM    9  N2  UNL     1      24.144   5.816  48.976  1.00  0.00    -0.278 N 
HETATM   10  N3  UNL     1      24.184   4.462  49.288  1.00  0.00    -0.183 NA
HETATM   11  C10 UNL     1      24.876   4.288  50.353  1.00  0.00     0.043 C 
HETATM   12  C11 UNL     1      26.094   4.856  49.663  1.00  0.00     0.098 C 
HETATM   13  C12 UNL     1      25.526   6.198  49.245  1.00  0.00     0.093 A 
HETATM   14  C13 UNL     1      25.683   7.135  50.355  1.00  0.00     0.011 A 
HETATM   15  C14 UNL     1      26.388   8.188  49.974  1.00  0.00     0.017 A 
HETATM   16  C15 UNL     1      26.720   7.960  48.560  1.00  0.00     0.009 A 
HETATM   17 BR1  UNL     1      27.733   9.169  47.490  1.00  0.00    -0.051 Br
HETATM   18  C16 UNL     1      26.222   6.796  48.113  1.00  0.00     0.029 A 
HETATM   19  C17 UNL     1      24.046   3.677  51.479  1.00  0.00     0.061 C 
HETATM   20  C18 UNL     1      22.982   4.704  51.831  1.00  0.00     0.021 C 
HETATM   21  H8  UNL     1      21.183   3.466  50.556  1.00  0.00     0.159 HD
ENDROOT
BRANCH   1  22
HETATM   22  C3  UNL     1      24.407   0.889  53.090  1.00  0.00     0.211 C 
BRANCH  22  23
HETATM   23  C2  UNL     1      25.855   0.512  52.887  1.00  0.00     0.002 C 
HETATM   24  C1  UNL     1      26.684  -0.110  52.022  1.00  0.00     0.010 C 
ENDBRANCH  22  23
BRANCH  22  25
HETATM   25  O1  UNL     1      23.771  -0.194  53.721  1.00  0.00    -0.186 OA
HETATM   26  F1  UNL     1      24.555  -0.840  54.548  1.00  0.00    -0.047 F 
ENDBRANCH  22  25
ENDBRANCH   1  22
TORSDOF 3
ENDMDL
