MODEL 1
REMARK VINA RESULT:      -8.0      0.000      0.000
REMARK  4 active torsions:
REMARK  status: ('A' for Active; 'I' for Inactive)
REMARK    1  A    between atoms: N1_2  and  C2_3 
REMARK    2  A    between atoms: C2_3  and  C3_4 
REMARK    3  A    between atoms: C3_4  and  C4_5 
REMARK    4  A    between atoms: N3_19  and  N4_20 
ROOT
HETATM    1  C4  UNL     1      21.882   3.493  51.553  1.00  0.00     0.084 C 
HETATM    2  N2  UNL     1      23.068   3.550  51.650  1.00  0.00    -0.448 NA
HETATM    3  C5  UNL     1      24.402   3.510  51.779  1.00  0.00     0.256 C 
HETATM    4  C6  UNL     1      24.979   2.156  52.107  1.00  0.00    -0.027 A 
HETATM    5  C7  UNL     1      26.141   1.619  51.615  1.00  0.00     0.010 A 
HETATM    6  C8  UNL     1      26.513   0.344  51.966  1.00  0.00     0.002 A 
HETATM    7  C9  UNL     1      25.689  -0.359  52.814  1.00  0.00     0.015 A 
HETATM    8  C10 UNL     1      24.529   0.197  53.299  1.00  0.00     0.010 A 
HETATM    9  C11 UNL     1      24.126   1.495  52.957  1.00  0.00     0.025 A 
HETATM   10  C12 UNL     1      23.648  -0.569  54.181  1.00  0.00     0.159 C 
HETATM   11  O1  UNL     1      23.020  -0.956  53.188  1.00  0.00    -0.292 OA
HETATM   12  C13 UNL     1      22.766  -1.337  55.065  1.00  0.00     0.085 C 
HETATM   13  C14 UNL     1      21.421  -1.614  54.342  1.00  0.00     0.031 C 
HETATM   14  C15 UNL     1      20.714  -0.276  54.132  1.00  0.00     0.163 C 
HETATM   15  N3  UNL     1      19.573  -0.301  53.314  1.00  0.00    -0.259 N 
HETATM   16  N5  UNL     1      19.729   0.011  51.980  1.00  0.00    -0.300 N 
HETATM   17  C16 UNL     1      20.452   1.207  51.832  1.00  0.00     0.111 C 
HETATM   18  C17 UNL     1      20.921   2.403  51.662  1.00  0.00     0.058 C 
HETATM   19  H21 UNL     1      19.484  -0.354  51.036  1.00  0.00     0.187 HD
ENDROOT
BRANCH   1  20
HETATM   20  C3  UNL     1      21.128   4.750  51.246  1.00  0.00     0.118 C 
BRANCH  20  21
HETATM   21  C2  UNL     1      22.041   5.908  51.126  1.00  0.00     0.090 C 
BRANCH  21  22
HETATM   22  N1  UNL     1      22.600   7.022  50.848  1.00  0.00    -0.310 NA
HETATM   23  C1  UNL     1      24.015   7.227  50.941  1.00  0.00     0.176 C 
ENDBRANCH  21  22
ENDBRANCH  20  21
ENDBRANCH   1  20
BRANCH  15  24
HETATM   24  N4  UNL     1      18.629  -1.168  53.707  1.00  0.00    -0.233 NA
HETATM   25  H19 UNL     1      17.884  -0.788  54.341  1.00  0.00     0.144 HD
HETATM   26  H20 UNL     1      18.139  -1.647  52.894  1.00  0.00     0.144 HD
ENDBRANCH  15  24
TORSDOF 4
ENDMDL
MODEL 2
REMARK VINA RESULT:      -7.9      1.894      5.405
REMARK  4 active torsions:
REMARK  status: ('A' for Active; 'I' for Inactive)
REMARK    1  A    between atoms: N1_2  and  C2_3 
REMARK    2  A    between atoms: C2_3  and  C3_4 
REMARK    3  A    between atoms: C3_4  and  C4_5 
REMARK    4  A    between atoms: N3_19  and  N4_20 
ROOT
HETATM    1  C4  UNL     1      20.817   2.078  52.436  1.00  0.00     0.084 C 
HETATM    2  N2  UNL     1      20.851   1.014  52.971  1.00  0.00    -0.448 NA
HETATM    3  C5  UNL     1      20.993  -0.167  53.588  1.00  0.00     0.256 C 
HETATM    4  C6  UNL     1      22.391  -0.489  54.053  1.00  0.00    -0.027 A 
HETATM    5  C7  UNL     1      22.743  -1.111  55.224  1.00  0.00     0.010 A 
HETATM    6  C8  UNL     1      24.068  -1.290  55.537  1.00  0.00     0.002 A 
HETATM    7  C9  UNL     1      25.010  -0.829  54.647  1.00  0.00     0.015 A 
HETATM    8  C10 UNL     1      24.639  -0.209  53.478  1.00  0.00     0.010 A 
HETATM    9  C11 UNL     1      23.294  -0.015  53.133  1.00  0.00     0.025 A 
HETATM   10  C12 UNL     1      25.649   0.300  52.550  1.00  0.00     0.159 C 
HETATM   11  O1  UNL     1      25.595   1.396  53.121  1.00  0.00    -0.292 OA
HETATM   12  C13 UNL     1      26.663   0.808  51.621  1.00  0.00     0.085 C 
HETATM   13  C14 UNL     1      26.582   2.357  51.564  1.00  0.00     0.031 C 
HETATM   14  C15 UNL     1      25.240   2.737  50.942  1.00  0.00     0.163 C 
HETATM   15  N3  UNL     1      24.899   4.098  50.991  1.00  0.00    -0.259 N 
HETATM   16  N5  UNL     1      24.101   4.527  52.030  1.00  0.00    -0.300 N 
HETATM   17  C16 UNL     1      22.972   3.701  52.162  1.00  0.00     0.111 C 
HETATM   18  C17 UNL     1      21.824   3.100  52.176  1.00  0.00     0.058 C 
HETATM   19  H21 UNL     1      24.061   5.270  52.758  1.00  0.00     0.187 HD
ENDROOT
BRANCH   1  20
HETATM   20  C3  UNL     1      19.510   2.563  51.890  1.00  0.00     0.118 C 
BRANCH  20  21
HETATM   21  C2  UNL     1      18.817   1.500  51.131  1.00  0.00     0.090 C 
BRANCH  21  22
HETATM   22  N1  UNL     1      18.196   0.449  50.754  1.00  0.00    -0.310 NA
HETATM   23  C1  UNL     1      17.661  -0.510  51.672  1.00  0.00     0.176 C 
ENDBRANCH  21  22
ENDBRANCH  20  21
ENDBRANCH   1  20
BRANCH  15  24
HETATM   24  N4  UNL     1      25.811   4.917  50.447  1.00  0.00    -0.233 NA
HETATM   25  H19 UNL     1      26.136   4.674  49.480  1.00  0.00     0.144 HD
HETATM   26  H20 UNL     1      25.501   5.934  50.430  1.00  0.00     0.144 HD
ENDBRANCH  15  24
TORSDOF 4
ENDMDL
MODEL 3
REMARK VINA RESULT:      -7.8      3.306      6.744
REMARK  4 active torsions:
REMARK  status: ('A' for Active; 'I' for Inactive)
REMARK    1  A    between atoms: N1_2  and  C2_3 
REMARK    2  A    between atoms: C2_3  and  C3_4 
REMARK    3  A    between atoms: C3_4  and  C4_5 
REMARK    4  A    between atoms: N3_19  and  N4_20 
ROOT
HETATM    1  C4  UNL     1      27.279   1.668  53.084  1.00  0.00     0.084 C 
HETATM    2  N2  UNL     1      26.528   0.977  53.698  1.00  0.00    -0.448 NA
HETATM    3  C5  UNL     1      25.610   0.220  54.316  1.00  0.00     0.256 C 
HETATM    4  C6  UNL     1      24.259   0.170  53.647  1.00  0.00    -0.027 A 
HETATM    5  C7  UNL     1      23.443  -0.926  53.531  1.00  0.00     0.010 A 
HETATM    6  C8  UNL     1      22.257  -0.832  52.844  1.00  0.00     0.002 A 
HETATM    7  C9  UNL     1      21.929   0.382  52.286  1.00  0.00     0.015 A 
HETATM    8  C10 UNL     1      22.759   1.470  52.414  1.00  0.00     0.010 A 
HETATM    9  C11 UNL     1      23.974   1.401  53.110  1.00  0.00     0.025 A 
HETATM   10  C12 UNL     1      22.412   2.749  51.795  1.00  0.00     0.159 C 
HETATM   11  O1  UNL     1      23.045   2.413  50.787  1.00  0.00    -0.292 OA
HETATM   12  C13 UNL     1      22.062   4.031  51.175  1.00  0.00     0.085 C 
HETATM   13  C14 UNL     1      23.080   4.357  50.049  1.00  0.00     0.031 C 
HETATM   14  C15 UNL     1      24.444   4.583  50.698  1.00  0.00     0.163 C 
HETATM   15  N3  UNL     1      25.535   4.692  49.822  1.00  0.00    -0.259 N 
HETATM   16  N5  UNL     1      26.275   3.556  49.567  1.00  0.00    -0.300 N 
HETATM   17  C16 UNL     1      26.631   2.918  50.767  1.00  0.00     0.111 C 
HETATM   18  C17 UNL     1      27.156   2.425  51.844  1.00  0.00     0.058 C 
HETATM   19  H21 UNL     1      26.659   3.010  48.768  1.00  0.00     0.187 HD
ENDROOT
BRANCH   1  20
HETATM   20  C3  UNL     1      28.671   1.854  53.607  1.00  0.00     0.118 C 
BRANCH  20  21
HETATM   21  C2  UNL     1      29.318   0.554  53.887  1.00  0.00     0.090 C 
BRANCH  21  22
HETATM   22  N1  UNL     1      29.673  -0.673  53.920  1.00  0.00    -0.310 NA
HETATM   23  C1  UNL     1      28.959  -1.708  53.234  1.00  0.00     0.176 C 
ENDBRANCH  21  22
ENDBRANCH  20  21
ENDBRANCH   1  20
BRANCH  15  24
HETATM   24  N4  UNL     1      25.401   5.643  48.886  1.00  0.00    -0.233 NA
HETATM   25  H19 UNL     1      26.223   6.282  48.753  1.00  0.00     0.144 HD
HETATM   26  H20 UNL     1      25.144   5.254  47.931  1.00  0.00     0.144 HD
ENDBRANCH  15  24
TORSDOF 4
ENDMDL
MODEL 4
REMARK VINA RESULT:      -7.8      2.455      5.391
REMARK  4 active torsions:
REMARK  status: ('A' for Active; 'I' for Inactive)
REMARK    1  A    between atoms: N1_2  and  C2_3 
REMARK    2  A    between atoms: C2_3  and  C3_4 
REMARK    3  A    between atoms: C3_4  and  C4_5 
REMARK    4  A    between atoms: N3_19  and  N4_20 
ROOT
HETATM    1  C4  UNL     1      19.184   2.789  51.483  1.00  0.00     0.084 C 
HETATM    2  N2  UNL     1      19.083   1.636  51.767  1.00  0.00    -0.448 NA
HETATM    3  C5  UNL     1      19.064   0.346  52.131  1.00  0.00     0.256 C 
HETATM    4  C6  UNL     1      20.295  -0.137  52.857  1.00  0.00    -0.027 A 
HETATM    5  C7  UNL     1      20.334  -1.007  53.917  1.00  0.00     0.010 A 
HETATM    6  C8  UNL     1      21.533  -1.315  54.511  1.00  0.00     0.002 A 
HETATM    7  C9  UNL     1      22.672  -0.728  54.011  1.00  0.00     0.015 A 
HETATM    8  C10 UNL     1      22.614   0.141  52.946  1.00  0.00     0.010 A 
HETATM    9  C11 UNL     1      21.404   0.472  52.321  1.00  0.00     0.025 A 
HETATM   10  C12 UNL     1      23.829   0.779  52.439  1.00  0.00     0.159 C 
HETATM   11  O1  UNL     1      23.623   1.733  53.198  1.00  0.00    -0.292 OA
HETATM   12  C13 UNL     1      25.047   1.418  51.930  1.00  0.00     0.085 C 
HETATM   13  C14 UNL     1      24.977   2.946  52.189  1.00  0.00     0.031 C 
HETATM   14  C15 UNL     1      23.840   3.516  51.342  1.00  0.00     0.163 C 
HETATM   15  N3  UNL     1      23.492   4.853  51.593  1.00  0.00    -0.259 N 
HETATM   16  N5  UNL     1      22.449   5.096  52.462  1.00  0.00    -0.300 N 
HETATM   17  C16 UNL     1      21.329   4.320  52.121  1.00  0.00     0.111 C 
HETATM   18  C17 UNL     1      20.220   3.789  51.713  1.00  0.00     0.058 C 
HETATM   19  H21 UNL     1      22.218   5.672  53.298  1.00  0.00     0.187 HD
ENDROOT
BRANCH   1  20
HETATM   20  C3  UNL     1      18.061   3.444  50.739  1.00  0.00     0.118 C 
BRANCH  20  21
HETATM   21  C2  UNL     1      16.985   3.872  51.660  1.00  0.00     0.090 C 
BRANCH  21  22
HETATM   22  N1  UNL     1      16.291   4.367  52.611  1.00  0.00    -0.310 NA
HETATM   23  C1  UNL     1      15.014   3.847  52.996  1.00  0.00     0.176 C 
ENDBRANCH  21  22
ENDBRANCH  20  21
ENDBRANCH   1  20
BRANCH  15  24
HETATM   24  N4  UNL     1      24.510   5.719  51.489  1.00  0.00    -0.233 NA
HETATM   25  H19 UNL     1      24.401   6.628  52.004  1.00  0.00     0.144 HD
HETATM   26  H20 UNL     1      25.444   5.302  51.778  1.00  0.00     0.144 HD
ENDBRANCH  15  24
TORSDOF 4
ENDMDL
MODEL 5
REMARK VINA RESULT:      -7.7      2.059      2.504
REMARK  4 active torsions:
REMARK  status: ('A' for Active; 'I' for Inactive)
REMARK    1  A    between atoms: N1_2  and  C2_3 
REMARK    2  A    between atoms: C2_3  and  C3_4 
REMARK    3  A    between atoms: C3_4  and  C4_5 
REMARK    4  A    between atoms: N3_19  and  N4_20 
ROOT
HETATM    1  C4  UNL     1      24.249   3.115  50.161  1.00  0.00     0.084 C 
HETATM    2  N2  UNL     1      25.262   2.857  50.732  1.00  0.00    -0.448 NA
HETATM    3  C5  UNL     1      26.356   2.479  51.408  1.00  0.00     0.256 C 
HETATM    4  C6  UNL     1      26.230   1.179  52.163  1.00  0.00    -0.027 A 
HETATM    5  C7  UNL     1      27.193   0.211  52.294  1.00  0.00     0.010 A 
HETATM    6  C8  UNL     1      26.913  -0.950  52.972  1.00  0.00     0.002 A 
HETATM    7  C9  UNL     1      25.653  -1.101  53.504  1.00  0.00     0.015 A 
HETATM    8  C10 UNL     1      24.702  -0.119  53.364  1.00  0.00     0.010 A 
HETATM    9  C11 UNL     1      24.961   1.076  52.678  1.00  0.00     0.025 A 
HETATM   10  C12 UNL     1      23.358  -0.300  53.912  1.00  0.00     0.159 C 
HETATM   11  O1  UNL     1      22.998  -0.770  52.826  1.00  0.00    -0.292 OA
HETATM   12  C13 UNL     1      22.011  -0.482  54.463  1.00  0.00     0.085 C 
HETATM   13  C14 UNL     1      20.984  -0.566  53.302  1.00  0.00     0.031 C 
HETATM   14  C15 UNL     1      20.952   0.791  52.601  1.00  0.00     0.163 C 
HETATM   15  N3  UNL     1      20.229   0.849  51.399  1.00  0.00    -0.259 N 
HETATM   16  N5  UNL     1      20.924   0.689  50.219  1.00  0.00    -0.300 N 
HETATM   17  C16 UNL     1      22.052   1.526  50.191  1.00  0.00     0.111 C 
HETATM   18  C17 UNL     1      22.968   2.430  50.038  1.00  0.00     0.058 C 
HETATM   19  H21 UNL     1      20.887   0.144  49.333  1.00  0.00     0.187 HD
ENDROOT
BRANCH   1  20
HETATM   20  C3  UNL     1      24.177   4.383  49.367  1.00  0.00     0.118 C 
BRANCH  20  21
HETATM   21  C2  UNL     1      25.523   4.957  49.150  1.00  0.00     0.090 C 
BRANCH  21  22
HETATM   22  N1  UNL     1      26.530   5.653  48.785  1.00  0.00    -0.310 NA
HETATM   23  C1  UNL     1      27.828   5.089  48.565  1.00  0.00     0.176 C 
ENDBRANCH  21  22
ENDBRANCH  20  21
ENDBRANCH   1  20
BRANCH  15  24
HETATM   24  N4  UNL     1      18.953   0.447  51.500  1.00  0.00    -0.233 NA
HETATM   25  H19 UNL     1      18.612  -0.207  50.753  1.00  0.00     0.144 HD
HETATM   26  H20 UNL     1      18.731  -0.000  52.438  1.00  0.00     0.144 HD
ENDBRANCH  15  24
TORSDOF 4
ENDMDL
MODEL 6
REMARK VINA RESULT:      -7.5      2.262      5.571
REMARK  4 active torsions:
REMARK  status: ('A' for Active; 'I' for Inactive)
REMARK    1  A    between atoms: N1_2  and  C2_3 
REMARK    2  A    between atoms: C2_3  and  C3_4 
REMARK    3  A    between atoms: C3_4  and  C4_5 
REMARK    4  A    between atoms: N3_19  and  N4_20 
ROOT
HETATM    1  C4  UNL     1      23.113  -0.305  53.422  1.00  0.00     0.084 C 
HETATM    2  N2  UNL     1      24.226  -0.622  53.702  1.00  0.00    -0.448 NA
HETATM    3  C5  UNL     1      25.511  -0.884  53.981  1.00  0.00     0.256 C 
HETATM    4  C6  UNL     1      26.487   0.204  53.610  1.00  0.00    -0.027 A 
HETATM    5  C7  UNL     1      27.586   0.600  54.330  1.00  0.00     0.010 A 
HETATM    6  C8  UNL     1      28.357   1.647  53.888  1.00  0.00     0.002 A 
HETATM    7  C9  UNL     1      27.990   2.272  52.719  1.00  0.00     0.015 A 
HETATM    8  C10 UNL     1      26.886   1.860  52.010  1.00  0.00     0.010 A 
HETATM    9  C11 UNL     1      26.083   0.793  52.437  1.00  0.00     0.025 A 
HETATM   10  C12 UNL     1      26.491   2.547  50.781  1.00  0.00     0.159 C 
HETATM   11  O1  UNL     1      25.757   3.284  51.450  1.00  0.00    -0.292 OA
HETATM   12  C13 UNL     1      26.096   3.236  49.548  1.00  0.00     0.085 C 
HETATM   13  C14 UNL     1      24.733   3.947  49.766  1.00  0.00     0.031 C 
HETATM   14  C15 UNL     1      23.670   2.872  49.984  1.00  0.00     0.163 C 
HETATM   15  N3  UNL     1      22.408   3.326  50.397  1.00  0.00    -0.259 N 
HETATM   16  N5  UNL     1      22.133   3.325  51.748  1.00  0.00    -0.300 N 
HETATM   17  C16 UNL     1      22.453   2.082  52.319  1.00  0.00     0.111 C 
HETATM   18  C17 UNL     1      22.533   0.896  52.833  1.00  0.00     0.058 C 
HETATM   19  H21 UNL     1      21.762   3.952  52.492  1.00  0.00     0.187 HD
ENDROOT
BRANCH   1  20
HETATM   20  C3  UNL     1      22.002  -1.270  53.702  1.00  0.00     0.118 C 
BRANCH  20  21
HETATM   21  C2  UNL     1      20.680  -0.653  53.461  1.00  0.00     0.090 C 
BRANCH  21  22
HETATM   22  N1  UNL     1      19.453  -0.300  53.490  1.00  0.00    -0.310 NA
HETATM   23  C1  UNL     1      18.523  -0.631  52.452  1.00  0.00     0.176 C 
ENDBRANCH  21  22
ENDBRANCH  20  21
ENDBRANCH   1  20
BRANCH  15  24
HETATM   24  N4  UNL     1      21.856   4.242  49.588  1.00  0.00    -0.233 NA
HETATM   25  H19 UNL     1      22.501   4.702  48.899  1.00  0.00     0.144 HD
HETATM   26  H20 UNL     1      21.024   3.869  49.043  1.00  0.00     0.144 HD
ENDBRANCH  15  24
TORSDOF 4
ENDMDL
MODEL 7
REMARK VINA RESULT:      -7.4      2.392      5.260
REMARK  4 active torsions:
REMARK  status: ('A' for Active; 'I' for Inactive)
REMARK    1  A    between atoms: N1_2  and  C2_3 
REMARK    2  A    between atoms: C2_3  and  C3_4 
REMARK    3  A    between atoms: C3_4  and  C4_5 
REMARK    4  A    between atoms: N3_19  and  N4_20 
ROOT
HETATM    1  C4  UNL     1      25.537   0.573  52.186  1.00  0.00     0.084 C 
HETATM    2  N2  UNL     1      25.471   1.600  51.586  1.00  0.00    -0.448 NA
HETATM    3  C5  UNL     1      25.302   2.772  50.956  1.00  0.00     0.256 C 
HETATM    4  C6  UNL     1      24.001   3.478  51.245  1.00  0.00    -0.027 A 
HETATM    5  C7  UNL     1      23.820   4.828  51.409  1.00  0.00     0.010 A 
HETATM    6  C8  UNL     1      22.578   5.323  51.721  1.00  0.00     0.002 A 
HETATM    7  C9  UNL     1      21.542   4.428  51.861  1.00  0.00     0.015 A 
HETATM    8  C10 UNL     1      21.742   3.078  51.691  1.00  0.00     0.010 A 
HETATM    9  C11 UNL     1      22.999   2.547  51.371  1.00  0.00     0.025 A 
HETATM   10  C12 UNL     1      20.639   2.134  51.867  1.00  0.00     0.159 C 
HETATM   11  O1  UNL     1      20.960   2.007  53.054  1.00  0.00    -0.292 OA
HETATM   12  C13 UNL     1      19.532   1.187  52.041  1.00  0.00     0.085 C 
HETATM   13  C14 UNL     1      19.809   0.290  53.277  1.00  0.00     0.031 C 
HETATM   14  C15 UNL     1      21.032  -0.573  52.969  1.00  0.00     0.163 C 
HETATM   15  N3  UNL     1      21.557  -1.308  54.043  1.00  0.00    -0.259 N 
HETATM   16  N5  UNL     1      22.605  -0.757  54.750  1.00  0.00    -0.300 N 
HETATM   17  C16 UNL     1      23.613  -0.315  53.878  1.00  0.00     0.111 C 
HETATM   18  C17 UNL     1      24.646  -0.095  53.127  1.00  0.00     0.058 C 
HETATM   19  H21 UNL     1      22.896  -0.559  55.730  1.00  0.00     0.187 HD
ENDROOT
BRANCH   1  20
HETATM   20  C3  UNL     1      26.756  -0.280  52.012  1.00  0.00     0.118 C 
BRANCH  20  21
HETATM   21  C2  UNL     1      27.558  -0.329  53.253  1.00  0.00     0.090 C 
BRANCH  21  22
HETATM   22  N1  UNL     1      28.378  -0.620  54.189  1.00  0.00    -0.310 NA
HETATM   23  C1  UNL     1      29.771  -0.860  53.957  1.00  0.00     0.176 C 
ENDBRANCH  21  22
ENDBRANCH  20  21
ENDBRANCH   1  20
BRANCH  15  24
HETATM   24  N4  UNL     1      20.672  -2.112  54.650  1.00  0.00    -0.233 NA
HETATM   25  H19 UNL     1      19.984  -1.645  55.292  1.00  0.00     0.144 HD
HETATM   26  H20 UNL     1      20.115  -2.708  53.969  1.00  0.00     0.144 HD
ENDBRANCH  15  24
TORSDOF 4
ENDMDL
MODEL 8
REMARK VINA RESULT:      -6.9      2.567      3.643
REMARK  4 active torsions:
REMARK  status: ('A' for Active; 'I' for Inactive)
REMARK    1  A    between atoms: N1_2  and  C2_3 
REMARK    2  A    between atoms: C2_3  and  C3_4 
REMARK    3  A    between atoms: C3_4  and  C4_5 
REMARK    4  A    between atoms: N3_19  and  N4_20 
ROOT
HETATM    1  C4  UNL     1      18.941   3.422  51.008  1.00  0.00     0.084 C 
HETATM    2  N2  UNL     1      20.026   3.912  50.966  1.00  0.00    -0.448 NA
HETATM    3  C5  UNL     1      21.287   4.368  50.942  1.00  0.00     0.256 C 
HETATM    4  C6  UNL     1      22.350   3.342  51.249  1.00  0.00    -0.027 A 
HETATM    5  C7  UNL     1      23.576   3.227  50.645  1.00  0.00     0.010 A 
HETATM    6  C8  UNL     1      24.423   2.204  50.996  1.00  0.00     0.002 A 
HETATM    7  C9  UNL     1      23.999   1.316  51.957  1.00  0.00     0.015 A 
HETATM    8  C10 UNL     1      22.767   1.448  52.552  1.00  0.00     0.010 A 
HETATM    9  C11 UNL     1      21.885   2.483  52.214  1.00  0.00     0.025 A 
HETATM   10  C12 UNL     1      22.317   0.483  53.555  1.00  0.00     0.159 C 
HETATM   11  O1  UNL     1      21.785  -0.177  52.655  1.00  0.00    -0.292 OA
HETATM   12  C13 UNL     1      21.867  -0.484  54.562  1.00  0.00     0.085 C 
HETATM   13  C14 UNL     1      20.657  -1.282  54.008  1.00  0.00     0.031 C 
HETATM   14  C15 UNL     1      19.491  -0.310  53.835  1.00  0.00     0.163 C 
HETATM   15  N3  UNL     1      18.368  -0.807  53.155  1.00  0.00    -0.259 N 
HETATM   16  N5  UNL     1      18.271  -0.561  51.801  1.00  0.00    -0.300 N 
HETATM   17  C16 UNL     1      18.486   0.801  51.530  1.00  0.00     0.111 C 
HETATM   18  C17 UNL     1      18.464   2.069  51.265  1.00  0.00     0.058 C 
HETATM   19  H21 UNL     1      18.090  -1.059  50.905  1.00  0.00     0.187 HD
ENDROOT
BRANCH   1  20
HETATM   20  C3  UNL     1      17.752   4.294  50.746  1.00  0.00     0.118 C 
BRANCH  20  21
HETATM   21  C2  UNL     1      16.726   4.132  51.799  1.00  0.00     0.090 C 
BRANCH  21  22
HETATM   22  N1  UNL     1      15.934   4.275  52.791  1.00  0.00    -0.310 NA
HETATM   23  C1  UNL     1      14.704   3.552  52.916  1.00  0.00     0.176 C 
ENDBRANCH  21  22
ENDBRANCH  20  21
ENDBRANCH   1  20
BRANCH  15  24
HETATM   24  N4  UNL     1      17.851  -1.926  53.683  1.00  0.00    -0.233 NA
HETATM   25  H19 UNL     1      18.022  -2.078  54.707  1.00  0.00     0.144 HD
HETATM   26  H20 UNL     1      16.805  -2.019  53.520  1.00  0.00     0.144 HD
ENDBRANCH  15  24
TORSDOF 4
ENDMDL
MODEL 9
REMARK VINA RESULT:      -6.6      8.769     12.634
REMARK  4 active torsions:
REMARK  status: ('A' for Active; 'I' for Inactive)
REMARK    1  A    between atoms: N1_2  and  C2_3 
REMARK    2  A    between atoms: C2_3  and  C3_4 
REMARK    3  A    between atoms: C3_4  and  C4_5 
REMARK    4  A    between atoms: N3_19  and  N4_20 
ROOT
HETATM    1  C4  UNL     1      29.119   6.831  48.278  1.00  0.00     0.084 C 
HETATM    2  N2  UNL     1      29.894   5.982  47.964  1.00  0.00    -0.448 NA
HETATM    3  C5  UNL     1      30.842   5.098  47.624  1.00  0.00     0.256 C 
HETATM    4  C6  UNL     1      32.253   5.631  47.630  1.00  0.00    -0.027 A 
HETATM    5  C7  UNL     1      33.378   4.969  48.053  1.00  0.00     0.010 A 
HETATM    6  C8  UNL     1      34.594   5.606  48.047  1.00  0.00     0.002 A 
HETATM    7  C9  UNL     1      34.639   6.910  47.610  1.00  0.00     0.015 A 
HETATM    8  C10 UNL     1      33.502   7.557  47.188  1.00  0.00     0.010 A 
HETATM    9  C11 UNL     1      32.248   6.929  47.182  1.00  0.00     0.025 A 
HETATM   10  C12 UNL     1      33.557   8.951  46.748  1.00  0.00     0.159 C 
HETATM   11  O1  UNL     1      33.302   9.307  47.905  1.00  0.00    -0.292 OA
HETATM   12  C13 UNL     1      33.613  10.348  46.306  1.00  0.00     0.085 C 
HETATM   13  C14 UNL     1      32.821  11.238  47.302  1.00  0.00     0.031 C 
HETATM   14  C15 UNL     1      31.347  10.847  47.213  1.00  0.00     0.163 C 
HETATM   15  N3  UNL     1      30.500  11.404  48.184  1.00  0.00    -0.259 N 
HETATM   16  N5  UNL     1      30.232  10.657  49.312  1.00  0.00    -0.300 N 
HETATM   17  C16 UNL     1      29.838   9.355  48.961  1.00  0.00     0.111 C 
HETATM   18  C17 UNL     1      29.270   8.226  48.674  1.00  0.00     0.058 C 
HETATM   19  H21 UNL     1      30.226  10.742  50.349  1.00  0.00     0.187 HD
ENDROOT
BRANCH   1  20
HETATM   20  C3  UNL     1      27.661   6.492  48.313  1.00  0.00     0.118 C 
BRANCH  20  21
HETATM   21  C2  UNL     1      27.449   5.067  48.651  1.00  0.00     0.090 C 
BRANCH  21  22
HETATM   22  N1  UNL     1      27.233   3.949  49.229  1.00  0.00    -0.310 NA
HETATM   23  C1  UNL     1      25.982   3.619  49.843  1.00  0.00     0.176 C 
ENDBRANCH  21  22
ENDBRANCH  20  21
ENDBRANCH   1  20
BRANCH  15  24
HETATM   24  N4  UNL     1      30.532  12.743  48.245  1.00  0.00    -0.233 NA
HETATM   25  H19 UNL     1      29.976  13.254  47.515  1.00  0.00     0.144 HD
HETATM   26  H20 UNL     1      30.237  13.125  49.192  1.00  0.00     0.144 HD
ENDBRANCH  15  24
TORSDOF 4
ENDMDL
