MODEL 1
REMARK VINA RESULT:      -8.7      0.000      0.000
REMARK  5 active torsions:
REMARK  status: ('A' for Active; 'I' for Inactive)
REMARK    1  A    between atoms: N2_5  and  C4_6 
REMARK    2  A    between atoms: C7_9  and  N3_10 
REMARK    3  A    between atoms: N3_10  and  C8_11 
REMARK    4  A    between atoms: C9_12  and  N4_13 
REMARK    5  A    between atoms: N4_13  and  C10_14 
ROOT
HETATM    1  C8  UNL     1      23.071   3.057  49.550  1.00  0.00     0.045 C 
HETATM    2  C9  UNL     1      22.790   2.074  50.411  1.00  0.00     0.057 C 
HETATM    3  C16 UNL     1      21.864   0.968  50.185  1.00  0.00     0.048 C 
HETATM    4  C17 UNL     1      20.844   0.956  49.319  1.00  0.00     0.093 C 
HETATM    5  N5  UNL     1      20.390   1.962  48.420  1.00  0.00    -0.337 N 
HETATM    6  C18 UNL     1      21.105   3.140  48.052  1.00  0.00     0.227 C 
HETATM    7  O1  UNL     1      20.371   4.071  47.578  1.00  0.00    -0.273 OA
HETATM    8  C19 UNL     1      22.589   3.361  48.170  1.00  0.00     0.162 C 
HETATM    9  H18 UNL     1      19.444   1.811  47.998  1.00  0.00     0.168 HD
ENDROOT
BRANCH   1  10
HETATM   10  N3  UNL     1      24.017   3.988  50.073  1.00  0.00    -0.357 N 
HETATM   11  H10 UNL     1      24.101   4.445  51.008  1.00  0.00     0.166 HD
BRANCH  10  12
HETATM   12  C7  UNL     1      25.160   4.621  49.543  1.00  0.00     0.032 A 
HETATM   13  C6  UNL     1      26.352   3.914  49.363  1.00  0.00     0.031 A 
HETATM   14  C5  UNL     1      27.502   4.496  48.845  1.00  0.00     0.031 A 
HETATM   15  C4  UNL     1      27.487   5.819  48.488  1.00  0.00     0.030 A 
HETATM   16  C21 UNL     1      26.343   6.553  48.646  1.00  0.00     0.031 A 
HETATM   17  C20 UNL     1      25.202   5.940  49.169  1.00  0.00     0.031 A 
BRANCH  15  18
HETATM   18  N2  UNL     1      28.647   6.439  47.956  1.00  0.00    -0.378 N 
HETATM   19  C3  UNL     1      28.638   7.558  47.066  1.00  0.00     0.153 C 
HETATM   20  C2  UNL     1      29.796   8.469  47.496  1.00  0.00     0.291 C 
HETATM   21  N1  UNL     1      30.991   7.812  47.038  1.00  0.00     0.087 N 
HETATM   22  C1  UNL     1      32.200   8.516  47.324  1.00  0.00     0.310 C 
HETATM   23  C23 UNL     1      31.016   6.404  47.313  1.00  0.00     0.291 C 
HETATM   24  C22 UNL     1      29.970   5.959  48.295  1.00  0.00     0.153 C 
ENDBRANCH  15  18
ENDBRANCH  10  12
ENDBRANCH   1  10
BRANCH   2  25
HETATM   25  N4  UNL     1      23.472   2.145  51.648  1.00  0.00    -0.353 N 
HETATM   26  H11 UNL     1      23.187   3.017  52.146  1.00  0.00     0.166 HD
BRANCH  25  27
HETATM   27  C10 UNL     1      24.388   1.214  52.152  1.00  0.00     0.054 A 
HETATM   28  C11 UNL     1      25.666   1.167  51.695  1.00  0.00     0.031 A 
HETATM   29  C12 UNL     1      26.539   0.215  52.236  1.00  0.00     0.002 A 
HETATM   30  C13 UNL     1      26.120  -0.676  53.224  1.00  0.00     0.002 A 
HETATM   31  C14 UNL     1      24.794  -0.585  53.658  1.00  0.00     0.026 A 
HETATM   32  C15 UNL     1      23.948   0.348  53.126  1.00  0.00     0.060 A 
HETATM   33 CL1  UNL     1      22.273   0.437  53.699  1.00  0.00    -0.082 Cl
ENDBRANCH  25  27
ENDBRANCH   2  25
TORSDOF 5
ENDMDL
MODEL 2
REMARK VINA RESULT:      -8.6      4.757      6.083
REMARK  5 active torsions:
REMARK  status: ('A' for Active; 'I' for Inactive)
REMARK    1  A    between atoms: N2_5  and  C4_6 
REMARK    2  A    between atoms: C7_9  and  N3_10 
REMARK    3  A    between atoms: N3_10  and  C8_11 
REMARK    4  A    between atoms: C9_12  and  N4_13 
REMARK    5  A    between atoms: N4_13  and  C10_14 
ROOT
HETATM    1  C8  UNL     1      23.847   0.394  52.744  1.00  0.00     0.045 C 
HETATM    2  C9  UNL     1      24.836   0.022  53.563  1.00  0.00     0.057 C 
HETATM    3  C16 UNL     1      24.727  -0.922  54.671  1.00  0.00     0.048 C 
HETATM    4  C17 UNL     1      23.607  -1.242  55.330  1.00  0.00     0.093 C 
HETATM    5  N5  UNL     1      22.274  -0.778  55.154  1.00  0.00    -0.337 N 
HETATM    6  C18 UNL     1      21.783  -0.045  54.034  1.00  0.00     0.227 C 
HETATM    7  O1  UNL     1      20.708   0.604  54.263  1.00  0.00    -0.273 OA
HETATM    8  C19 UNL     1      22.405   0.019  52.664  1.00  0.00     0.162 C 
HETATM    9  H18 UNL     1      21.602  -1.002  55.925  1.00  0.00     0.168 HD
ENDROOT
BRANCH   1  10
HETATM   10  N3  UNL     1      24.277   1.336  51.762  1.00  0.00    -0.357 N 
HETATM   11  H10 UNL     1      25.043   1.302  51.053  1.00  0.00     0.166 HD
BRANCH  10  12
HETATM   12  C7  UNL     1      23.844   2.625  51.389  1.00  0.00     0.032 A 
HETATM   13  C6  UNL     1      23.732   3.645  52.336  1.00  0.00     0.031 A 
HETATM   14  C5  UNL     1      23.309   4.929  52.014  1.00  0.00     0.031 A 
HETATM   15  C4  UNL     1      22.984   5.227  50.717  1.00  0.00     0.030 A 
HETATM   16  C21 UNL     1      23.077   4.260  49.753  1.00  0.00     0.031 A 
HETATM   17  C20 UNL     1      23.506   2.978  50.107  1.00  0.00     0.031 A 
BRANCH  15  18
HETATM   18  N2  UNL     1      22.549   6.529  50.360  1.00  0.00    -0.378 N 
HETATM   19  C3  UNL     1      23.316   7.723  50.538  1.00  0.00     0.153 C 
HETATM   20  C2  UNL     1      23.072   8.590  49.295  1.00  0.00     0.291 C 
HETATM   21  N1  UNL     1      21.750   9.132  49.460  1.00  0.00     0.087 N 
HETATM   22  C1  UNL     1      21.329   9.998  48.405  1.00  0.00     0.310 C 
HETATM   23  C23 UNL     1      20.780   8.165  49.890  1.00  0.00     0.291 C 
HETATM   24  C22 UNL     1      21.246   6.743  49.767  1.00  0.00     0.153 C 
ENDBRANCH  15  18
ENDBRANCH  10  12
ENDBRANCH   1  10
BRANCH   2  25
HETATM   25  N4  UNL     1      26.090   0.621  53.303  1.00  0.00    -0.353 N 
HETATM   26  H11 UNL     1      25.950   1.633  53.094  1.00  0.00     0.166 HD
BRANCH  25  27
HETATM   27  C10 UNL     1      27.338  -0.015  53.314  1.00  0.00     0.054 A 
HETATM   28  C11 UNL     1      27.451  -1.346  53.073  1.00  0.00     0.031 A 
HETATM   29  C12 UNL     1      28.724  -1.929  53.097  1.00  0.00     0.002 A 
HETATM   30  C13 UNL     1      29.864  -1.171  53.361  1.00  0.00     0.002 A 
HETATM   31  C14 UNL     1      29.692   0.196  53.604  1.00  0.00     0.026 A 
HETATM   32  C15 UNL     1      28.446   0.758  53.578  1.00  0.00     0.060 A 
HETATM   33 CL1  UNL     1      28.261   2.492  53.888  1.00  0.00    -0.082 Cl
ENDBRANCH  25  27
ENDBRANCH   2  25
TORSDOF 5
ENDMDL
MODEL 3
REMARK VINA RESULT:      -8.3      3.375      5.051
REMARK  5 active torsions:
REMARK  status: ('A' for Active; 'I' for Inactive)
REMARK    1  A    between atoms: N2_5  and  C4_6 
REMARK    2  A    between atoms: C7_9  and  N3_10 
REMARK    3  A    between atoms: N3_10  and  C8_11 
REMARK    4  A    between atoms: C9_12  and  N4_13 
REMARK    5  A    between atoms: N4_13  and  C10_14 
ROOT
HETATM    1  C8  UNL     1      26.164   1.729  52.521  1.00  0.00     0.045 C 
HETATM    2  C9  UNL     1      25.317   0.877  53.106  1.00  0.00     0.057 C 
HETATM    3  C16 UNL     1      25.502   0.231  54.402  1.00  0.00     0.048 C 
HETATM    4  C17 UNL     1      26.669   0.019  55.020  1.00  0.00     0.093 C 
HETATM    5  N5  UNL     1      27.995   0.342  54.615  1.00  0.00    -0.337 N 
HETATM    6  C18 UNL     1      28.354   1.219  53.550  1.00  0.00     0.227 C 
HETATM    7  O1  UNL     1      29.540   1.048  53.108  1.00  0.00    -0.273 OA
HETATM    8  C19 UNL     1      27.487   2.284  52.935  1.00  0.00     0.162 C 
HETATM    9  H18 UNL     1      28.766  -0.113  55.157  1.00  0.00     0.168 HD
ENDROOT
BRANCH   1  10
HETATM   10  N3  UNL     1      25.694   2.184  51.253  1.00  0.00    -0.357 N 
HETATM   11  H10 UNL     1      25.078   1.738  50.538  1.00  0.00     0.166 HD
BRANCH  10  12
HETATM   12  C7  UNL     1      25.875   3.370  50.512  1.00  0.00     0.032 A 
HETATM   13  C6  UNL     1      25.044   4.475  50.713  1.00  0.00     0.031 A 
HETATM   14  C5  UNL     1      25.186   5.663  50.006  1.00  0.00     0.031 A 
HETATM   15  C4  UNL     1      26.178   5.776  49.067  1.00  0.00     0.030 A 
HETATM   16  C21 UNL     1      27.017   4.720  48.835  1.00  0.00     0.031 A 
HETATM   17  C20 UNL     1      26.851   3.538  49.562  1.00  0.00     0.031 A 
BRANCH  15  18
HETATM   18  N2  UNL     1      26.346   6.976  48.331  1.00  0.00    -0.378 N 
HETATM   19  C3  UNL     1      25.328   7.598  47.541  1.00  0.00     0.153 C 
HETATM   20  C2  UNL     1      25.467   9.111  47.760  1.00  0.00     0.291 C 
HETATM   21  N1  UNL     1      26.626   9.502  47.003  1.00  0.00     0.087 N 
HETATM   22  C1  UNL     1      26.924  10.898  47.056  1.00  0.00     0.310 C 
HETATM   23  C23 UNL     1      27.749   8.624  47.172  1.00  0.00     0.291 C 
HETATM   24  C22 UNL     1      27.611   7.680  48.332  1.00  0.00     0.153 C 
ENDBRANCH  15  18
ENDBRANCH  10  12
ENDBRANCH   1  10
BRANCH   2  25
HETATM   25  N4  UNL     1      24.142   0.598  52.370  1.00  0.00    -0.353 N 
HETATM   26  H11 UNL     1      24.349   0.677  51.350  1.00  0.00     0.166 HD
BRANCH  25  27
HETATM   27  C10 UNL     1      22.886   0.266  52.894  1.00  0.00     0.054 A 
HETATM   28  C11 UNL     1      22.626  -0.982  53.360  1.00  0.00     0.031 A 
HETATM   29  C12 UNL     1      21.352  -1.257  53.873  1.00  0.00     0.002 A 
HETATM   30  C13 UNL     1      20.359  -0.278  53.913  1.00  0.00     0.002 A 
HETATM   31  C14 UNL     1      20.680   0.991  53.420  1.00  0.00     0.026 A 
HETATM   32  C15 UNL     1      21.926   1.251  52.921  1.00  0.00     0.060 A 
HETATM   33 CL1  UNL     1      22.300   2.870  52.305  1.00  0.00    -0.082 Cl
ENDBRANCH  25  27
ENDBRANCH   2  25
TORSDOF 5
ENDMDL
MODEL 4
REMARK VINA RESULT:      -8.1      4.132      9.949
REMARK  5 active torsions:
REMARK  status: ('A' for Active; 'I' for Inactive)
REMARK    1  A    between atoms: N2_5  and  C4_6 
REMARK    2  A    between atoms: C7_9  and  N3_10 
REMARK    3  A    between atoms: N3_10  and  C8_11 
REMARK    4  A    between atoms: C9_12  and  N4_13 
REMARK    5  A    between atoms: N4_13  and  C10_14 
ROOT
HETATM    1  C8  UNL     1      24.562   0.932  53.213  1.00  0.00     0.045 C 
HETATM    2  C9  UNL     1      25.600   1.742  52.980  1.00  0.00     0.057 C 
HETATM    3  C16 UNL     1      27.012   1.389  53.096  1.00  0.00     0.048 C 
HETATM    4  C17 UNL     1      27.520   0.398  53.838  1.00  0.00     0.093 C 
HETATM    5  N5  UNL     1      26.869  -0.544  54.683  1.00  0.00    -0.337 N 
HETATM    6  C18 UNL     1      25.468  -0.808  54.719  1.00  0.00     0.227 C 
HETATM    7  O1  UNL     1      25.069  -1.365  55.796  1.00  0.00    -0.273 OA
HETATM    8  C19 UNL     1      24.470  -0.497  53.637  1.00  0.00     0.162 C 
HETATM    9  H18 UNL     1      27.487  -1.086  55.331  1.00  0.00     0.168 HD
ENDROOT
BRANCH   1  10
HETATM   10  N3  UNL     1      23.307   1.580  53.012  1.00  0.00    -0.357 N 
HETATM   11  H10 UNL     1      23.019   2.579  53.096  1.00  0.00     0.166 HD
BRANCH  10  12
HETATM   12  C7  UNL     1      22.025   1.130  52.635  1.00  0.00     0.032 A 
HETATM   13  C6  UNL     1      21.669   1.026  51.288  1.00  0.00     0.031 A 
HETATM   14  C5  UNL     1      20.418   0.588  50.870  1.00  0.00     0.031 A 
HETATM   15  C4  UNL     1      19.479   0.238  51.805  1.00  0.00     0.030 A 
HETATM   16  C21 UNL     1      19.781   0.324  53.137  1.00  0.00     0.031 A 
HETATM   17  C20 UNL     1      21.048   0.767  53.527  1.00  0.00     0.031 A 
BRANCH  15  18
HETATM   18  N2  UNL     1      18.195  -0.212  51.407  1.00  0.00    -0.378 N 
HETATM   19  C3  UNL     1      17.397  -1.149  52.136  1.00  0.00     0.153 C 
HETATM   20  C2  UNL     1      15.946  -0.656  52.042  1.00  0.00     0.291 C 
HETATM   21  N1  UNL     1      15.520  -0.971  50.705  1.00  0.00     0.087 N 
HETATM   22  C1  UNL     1      14.170  -0.607  50.412  1.00  0.00     0.310 C 
HETATM   23  C23 UNL     1      16.484  -0.631  49.697  1.00  0.00     0.291 C 
HETATM   24  C22 UNL     1      17.582   0.269  50.187  1.00  0.00     0.153 C 
ENDBRANCH  15  18
ENDBRANCH  10  12
ENDBRANCH   1  10
BRANCH   2  25
HETATM   25  N4  UNL     1      25.260   3.057  52.587  1.00  0.00    -0.353 N 
HETATM   26  H11 UNL     1      24.833   3.556  53.398  1.00  0.00     0.166 HD
BRANCH  25  27
HETATM   27  C10 UNL     1      25.450   3.627  51.322  1.00  0.00     0.054 A 
HETATM   28  C11 UNL     1      26.528   3.306  50.562  1.00  0.00     0.031 A 
HETATM   29  C12 UNL     1      26.667   3.907  49.305  1.00  0.00     0.002 A 
HETATM   30  C13 UNL     1      25.726   4.820  48.828  1.00  0.00     0.002 A 
HETATM   31  C14 UNL     1      24.635   5.115  49.652  1.00  0.00     0.026 A 
HETATM   32  C15 UNL     1      24.505   4.524  50.878  1.00  0.00     0.060 A 
HETATM   33 CL1  UNL     1      23.111   4.918  51.897  1.00  0.00    -0.082 Cl
ENDBRANCH  25  27
ENDBRANCH   2  25
TORSDOF 5
ENDMDL
MODEL 5
REMARK VINA RESULT:      -8.1      2.028      2.539
REMARK  5 active torsions:
REMARK  status: ('A' for Active; 'I' for Inactive)
REMARK    1  A    between atoms: N2_5  and  C4_6 
REMARK    2  A    between atoms: C7_9  and  N3_10 
REMARK    3  A    between atoms: N3_10  and  C8_11 
REMARK    4  A    between atoms: C9_12  and  N4_13 
REMARK    5  A    between atoms: N4_13  and  C10_14 
ROOT
HETATM    1  C8  UNL     1      22.004   2.833  51.589  1.00  0.00     0.045 C 
HETATM    2  C9  UNL     1      22.254   1.635  52.128  1.00  0.00     0.057 C 
HETATM    3  C16 UNL     1      21.489   0.412  51.901  1.00  0.00     0.048 C 
HETATM    4  C17 UNL     1      20.215   0.340  51.500  1.00  0.00     0.093 C 
HETATM    5  N5  UNL     1      19.287   1.376  51.197  1.00  0.00    -0.337 N 
HETATM    6  C18 UNL     1      19.604   2.752  51.000  1.00  0.00     0.227 C 
HETATM    7  O1  UNL     1      18.612   3.543  51.146  1.00  0.00    -0.273 OA
HETATM    8  C19 UNL     1      20.953   3.319  50.648  1.00  0.00     0.162 C 
HETATM    9  H18 UNL     1      18.284   1.087  51.114  1.00  0.00     0.168 HD
ENDROOT
BRANCH   1  10
HETATM   10  N3  UNL     1      22.936   3.827  52.012  1.00  0.00    -0.357 N 
HETATM   11  H10 UNL     1      23.194   4.182  52.959  1.00  0.00     0.166 HD
BRANCH  10  12
HETATM   12  C7  UNL     1      23.833   4.676  51.332  1.00  0.00     0.032 A 
HETATM   13  C6  UNL     1      23.827   6.055  51.559  1.00  0.00     0.031 A 
HETATM   14  C5  UNL     1      24.691   6.929  50.912  1.00  0.00     0.031 A 
HETATM   15  C4  UNL     1      25.598   6.438  50.010  1.00  0.00     0.030 A 
HETATM   16  C21 UNL     1      25.642   5.094  49.754  1.00  0.00     0.031 A 
HETATM   17  C20 UNL     1      24.761   4.239  50.420  1.00  0.00     0.031 A 
BRANCH  15  18
HETATM   18  N2  UNL     1      26.492   7.308  49.335  1.00  0.00    -0.378 N 
HETATM   19  C3  UNL     1      26.557   8.723  49.530  1.00  0.00     0.153 C 
HETATM   20  C2  UNL     1      28.044   9.102  49.501  1.00  0.00     0.291 C 
HETATM   21  N1  UNL     1      28.430   9.036  48.117  1.00  0.00     0.087 N 
HETATM   22  C1  UNL     1      29.794   9.377  47.866  1.00  0.00     0.310 C 
HETATM   23  C23 UNL     1      27.952   7.863  47.441  1.00  0.00     0.291 C 
HETATM   24  C22 UNL     1      27.438   6.797  48.365  1.00  0.00     0.153 C 
ENDBRANCH  15  18
ENDBRANCH  10  12
ENDBRANCH   1  10
BRANCH   2  25
HETATM   25  N4  UNL     1      23.371   1.586  52.993  1.00  0.00    -0.353 N 
HETATM   26  H11 UNL     1      23.187   2.190  53.824  1.00  0.00     0.166 HD
BRANCH  25  27
HETATM   27  C10 UNL     1      24.550   0.856  52.796  1.00  0.00     0.054 A 
HETATM   28  C11 UNL     1      25.509   1.289  51.938  1.00  0.00     0.031 A 
HETATM   29  C12 UNL     1      26.668   0.518  51.781  1.00  0.00     0.002 A 
HETATM   30  C13 UNL     1      26.848  -0.673  52.483  1.00  0.00     0.002 A 
HETATM   31  C14 UNL     1      25.829  -1.074  53.352  1.00  0.00     0.026 A 
HETATM   32  C15 UNL     1      24.701  -0.316  53.502  1.00  0.00     0.060 A 
HETATM   33 CL1  UNL     1      23.428  -0.850  54.612  1.00  0.00    -0.082 Cl
ENDBRANCH  25  27
ENDBRANCH   2  25
TORSDOF 5
ENDMDL
MODEL 6
REMARK VINA RESULT:      -8.1      5.156     10.969
REMARK  5 active torsions:
REMARK  status: ('A' for Active; 'I' for Inactive)
REMARK    1  A    between atoms: N2_5  and  C4_6 
REMARK    2  A    between atoms: C7_9  and  N3_10 
REMARK    3  A    between atoms: N3_10  and  C8_11 
REMARK    4  A    between atoms: C9_12  and  N4_13 
REMARK    5  A    between atoms: N4_13  and  C10_14 
ROOT
HETATM    1  C8  UNL     1      23.758   0.504  53.126  1.00  0.00     0.045 C 
HETATM    2  C9  UNL     1      24.252   1.260  52.141  1.00  0.00     0.057 C 
HETATM    3  C16 UNL     1      25.595   1.170  51.576  1.00  0.00     0.048 C 
HETATM    4  C17 UNL     1      26.675   0.663  52.182  1.00  0.00     0.093 C 
HETATM    5  N5  UNL     1      26.819   0.098  53.481  1.00  0.00    -0.337 N 
HETATM    6  C18 UNL     1      25.755  -0.298  54.344  1.00  0.00     0.227 C 
HETATM    7  O1  UNL     1      26.086  -0.387  55.574  1.00  0.00    -0.273 OA
HETATM    8  C19 UNL     1      24.339  -0.606  53.938  1.00  0.00     0.162 C 
HETATM    9  H18 UNL     1      27.801  -0.034  53.820  1.00  0.00     0.168 HD
ENDROOT
BRANCH   1  10
HETATM   10  N3  UNL     1      22.410   0.842  53.451  1.00  0.00    -0.357 N 
HETATM   11  H10 UNL     1      21.987   1.708  53.851  1.00  0.00     0.166 HD
BRANCH  10  12
HETATM   12  C7  UNL     1      21.182   0.156  53.356  1.00  0.00     0.032 A 
HETATM   13  C6  UNL     1      20.181   0.596  52.485  1.00  0.00     0.031 A 
HETATM   14  C5  UNL     1      18.956  -0.048  52.359  1.00  0.00     0.031 A 
HETATM   15  C4  UNL     1      18.699  -1.163  53.112  1.00  0.00     0.030 A 
HETATM   16  C21 UNL     1      19.648  -1.631  53.980  1.00  0.00     0.031 A 
HETATM   17  C20 UNL     1      20.871  -0.964  54.085  1.00  0.00     0.031 A 
BRANCH  15  18
HETATM   18  N2  UNL     1      17.457  -1.840  53.004  1.00  0.00    -0.378 N 
HETATM   19  C3  UNL     1      16.206  -1.209  52.716  1.00  0.00     0.153 C 
HETATM   20  C2  UNL     1      15.449  -2.148  51.768  1.00  0.00     0.291 C 
HETATM   21  N1  UNL     1      14.983  -3.231  52.592  1.00  0.00     0.087 N 
HETATM   22  C1  UNL     1      14.226  -4.222  51.897  1.00  0.00     0.310 C 
HETATM   23  C23 UNL     1      15.978  -3.736  53.497  1.00  0.00     0.291 C 
HETATM   24  C22 UNL     1      17.372  -3.274  53.185  1.00  0.00     0.153 C 
ENDBRANCH  15  18
ENDBRANCH  10  12
ENDBRANCH   1  10
BRANCH   2  25
HETATM   25  N4  UNL     1      23.361   2.227  51.621  1.00  0.00    -0.353 N 
HETATM   26  H11 UNL     1      23.077   2.877  52.386  1.00  0.00     0.166 HD
BRANCH  25  27
HETATM   27  C10 UNL     1      22.912   2.324  50.298  1.00  0.00     0.054 A 
HETATM   28  C11 UNL     1      22.124   1.363  49.751  1.00  0.00     0.031 A 
HETATM   29  C12 UNL     1      21.704   1.513  48.424  1.00  0.00     0.002 A 
HETATM   30  C13 UNL     1      22.078   2.621  47.664  1.00  0.00     0.002 A 
HETATM   31  C14 UNL     1      22.892   3.581  48.275  1.00  0.00     0.026 A 
HETATM   32  C15 UNL     1      23.297   3.428  49.572  1.00  0.00     0.060 A 
HETATM   33 CL1  UNL     1      24.325   4.663  50.318  1.00  0.00    -0.082 Cl
ENDBRANCH  25  27
ENDBRANCH   2  25
TORSDOF 5
ENDMDL
MODEL 7
REMARK VINA RESULT:      -8.0      1.615      2.207
REMARK  5 active torsions:
REMARK  status: ('A' for Active; 'I' for Inactive)
REMARK    1  A    between atoms: N2_5  and  C4_6 
REMARK    2  A    between atoms: C7_9  and  N3_10 
REMARK    3  A    between atoms: N3_10  and  C8_11 
REMARK    4  A    between atoms: C9_12  and  N4_13 
REMARK    5  A    between atoms: N4_13  and  C10_14 
ROOT
HETATM    1  C8  UNL     1      23.191   3.721  49.605  1.00  0.00     0.045 C 
HETATM    2  C9  UNL     1      23.050   2.585  50.296  1.00  0.00     0.057 C 
HETATM    3  C16 UNL     1      22.285   1.413  49.880  1.00  0.00     0.048 C 
HETATM    4  C17 UNL     1      21.274   1.399  49.003  1.00  0.00     0.093 C 
HETATM    5  N5  UNL     1      20.685   2.463  48.264  1.00  0.00    -0.337 N 
HETATM    6  C18 UNL     1      21.230   3.771  48.100  1.00  0.00     0.227 C 
HETATM    7  O1  UNL     1      20.373   4.656  47.764  1.00  0.00    -0.273 OA
HETATM    8  C19 UNL     1      22.669   4.170  48.281  1.00  0.00     0.162 C 
HETATM    9  H18 UNL     1      19.767   2.253  47.805  1.00  0.00     0.168 HD
ENDROOT
BRANCH   1  10
HETATM   10  N3  UNL     1      24.002   4.677  50.286  1.00  0.00    -0.357 N 
HETATM   11  H10 UNL     1      24.027   4.983  51.284  1.00  0.00     0.166 HD
BRANCH  10  12
HETATM   12  C7  UNL     1      25.040   5.541  49.883  1.00  0.00     0.032 A 
HETATM   13  C6  UNL     1      25.133   6.838  50.393  1.00  0.00     0.031 A 
HETATM   14  C5  UNL     1      26.139   7.723  50.024  1.00  0.00     0.031 A 
HETATM   15  C4  UNL     1      27.091   7.325  49.123  1.00  0.00     0.030 A 
HETATM   16  C21 UNL     1      27.041   6.063  48.595  1.00  0.00     0.031 A 
HETATM   17  C20 UNL     1      26.019   5.195  48.985  1.00  0.00     0.031 A 
BRANCH  15  18
HETATM   18  N2  UNL     1      28.128   8.208  48.728  1.00  0.00    -0.378 N 
HETATM   19  C3  UNL     1      29.000   7.995  47.615  1.00  0.00     0.153 C 
HETATM   20  C2  UNL     1      29.202   9.363  46.949  1.00  0.00     0.291 C 
HETATM   21  N1  UNL     1      30.095  10.084  47.816  1.00  0.00     0.087 N 
HETATM   22  C1  UNL     1      30.433  11.395  47.361  1.00  0.00     0.310 C 
HETATM   23  C23 UNL     1      29.757   9.981  49.207  1.00  0.00     0.291 C 
HETATM   24  C22 UNL     1      28.382   9.432  49.458  1.00  0.00     0.153 C 
ENDBRANCH  15  18
ENDBRANCH  10  12
ENDBRANCH   1  10
BRANCH   2  25
HETATM   25  N4  UNL     1      23.718   2.552  51.542  1.00  0.00    -0.353 N 
HETATM   26  H11 UNL     1      23.702   3.505  51.964  1.00  0.00     0.166 HD
BRANCH  25  27
HETATM   27  C10 UNL     1      24.316   1.435  52.140  1.00  0.00     0.054 A 
HETATM   28  C11 UNL     1      23.611   0.616  52.962  1.00  0.00     0.031 A 
HETATM   29  C12 UNL     1      24.261  -0.485  53.532  1.00  0.00     0.002 A 
HETATM   30  C13 UNL     1      25.605  -0.750  53.272  1.00  0.00     0.002 A 
HETATM   31  C14 UNL     1      26.285   0.126  52.419  1.00  0.00     0.026 A 
HETATM   32  C15 UNL     1      25.643   1.198  51.865  1.00  0.00     0.060 A 
HETATM   33 CL1  UNL     1      26.532   2.289  50.788  1.00  0.00    -0.082 Cl
ENDBRANCH  25  27
ENDBRANCH   2  25
TORSDOF 5
ENDMDL
MODEL 8
REMARK VINA RESULT:      -8.0      3.721      9.390
REMARK  5 active torsions:
REMARK  status: ('A' for Active; 'I' for Inactive)
REMARK    1  A    between atoms: N2_5  and  C4_6 
REMARK    2  A    between atoms: C7_9  and  N3_10 
REMARK    3  A    between atoms: N3_10  and  C8_11 
REMARK    4  A    between atoms: C9_12  and  N4_13 
REMARK    5  A    between atoms: N4_13  and  C10_14 
ROOT
HETATM    1  C8  UNL     1      28.618   8.039  48.513  1.00  0.00     0.045 C 
HETATM    2  C9  UNL     1      29.866   8.064  48.035  1.00  0.00     0.057 C 
HETATM    3  C16 UNL     1      30.909   9.018  48.397  1.00  0.00     0.048 C 
HETATM    4  C17 UNL     1      30.719  10.244  48.900  1.00  0.00     0.093 C 
HETATM    5  N5  UNL     1      29.513  10.933  49.207  1.00  0.00    -0.337 N 
HETATM    6  C18 UNL     1      28.214  10.351  49.291  1.00  0.00     0.227 C 
HETATM    7  O1  UNL     1      27.257  11.188  49.172  1.00  0.00    -0.273 OA
HETATM    8  C19 UNL     1      27.897   8.895  49.501  1.00  0.00     0.162 C 
HETATM    9  H18 UNL     1      29.602  11.961  49.386  1.00  0.00     0.168 HD
ENDROOT
BRANCH   1  10
HETATM   10  N3  UNL     1      27.840   6.980  47.957  1.00  0.00    -0.357 N 
HETATM   11  H10 UNL     1      27.721   6.646  46.976  1.00  0.00     0.166 HD
BRANCH  10  12
HETATM   12  C7  UNL     1      26.969   6.016  48.505  1.00  0.00     0.032 A 
HETATM   13  C6  UNL     1      27.441   4.759  48.889  1.00  0.00     0.031 A 
HETATM   14  C5  UNL     1      26.620   3.779  49.433  1.00  0.00     0.031 A 
HETATM   15  C4  UNL     1      25.286   4.037  49.609  1.00  0.00     0.030 A 
HETATM   16  C21 UNL     1      24.777   5.255  49.248  1.00  0.00     0.031 A 
HETATM   17  C20 UNL     1      25.627   6.221  48.704  1.00  0.00     0.031 A 
BRANCH  15  18
HETATM   18  N2  UNL     1      24.425   3.056  50.161  1.00  0.00    -0.378 N 
HETATM   19  C3  UNL     1      24.799   2.118  51.174  1.00  0.00     0.153 C 
HETATM   20  C2  UNL     1      23.600   1.995  52.123  1.00  0.00     0.291 C 
HETATM   21  N1  UNL     1      22.630   1.203  51.415  1.00  0.00     0.087 N 
HETATM   22  C1  UNL     1      21.427   0.951  52.142  1.00  0.00     0.310 C 
HETATM   23  C23 UNL     1      22.453   1.598  50.046  1.00  0.00     0.291 C 
HETATM   24  C22 UNL     1      23.051   2.935  49.718  1.00  0.00     0.153 C 
ENDBRANCH  15  18
ENDBRANCH  10  12
ENDBRANCH   1  10
BRANCH   2  25
HETATM   25  N4  UNL     1      30.167   7.056  47.090  1.00  0.00    -0.353 N 
HETATM   26  H11 UNL     1      29.421   7.036  46.361  1.00  0.00     0.166 HD
BRANCH  25  27
HETATM   27  C10 UNL     1      31.279   6.203  47.103  1.00  0.00     0.054 A 
HETATM   28  C11 UNL     1      31.362   5.170  47.979  1.00  0.00     0.031 A 
HETATM   29  C12 UNL     1      32.497   4.350  47.947  1.00  0.00     0.002 A 
HETATM   30  C13 UNL     1      33.531   4.577  47.039  1.00  0.00     0.002 A 
HETATM   31  C14 UNL     1      33.395   5.656  46.159  1.00  0.00     0.026 A 
HETATM   32  C15 UNL     1      32.284   6.451  46.196  1.00  0.00     0.060 A 
HETATM   33 CL1  UNL     1      32.141   7.809  45.067  1.00  0.00    -0.082 Cl
ENDBRANCH  25  27
ENDBRANCH   2  25
TORSDOF 5
ENDMDL
MODEL 9
REMARK VINA RESULT:      -8.0      4.175      5.895
REMARK  5 active torsions:
REMARK  status: ('A' for Active; 'I' for Inactive)
REMARK    1  A    between atoms: N2_5  and  C4_6 
REMARK    2  A    between atoms: C7_9  and  N3_10 
REMARK    3  A    between atoms: N3_10  and  C8_11 
REMARK    4  A    between atoms: C9_12  and  N4_13 
REMARK    5  A    between atoms: N4_13  and  C10_14 
ROOT
HETATM    1  C8  UNL     1      25.398   1.500  53.321  1.00  0.00     0.045 C 
HETATM    2  C9  UNL     1      25.147   0.263  52.881  1.00  0.00     0.057 C 
HETATM    3  C16 UNL     1      26.033  -0.891  53.001  1.00  0.00     0.048 C 
HETATM    4  C17 UNL     1      27.362  -0.854  53.156  1.00  0.00     0.093 C 
HETATM    5  N5  UNL     1      28.246   0.258  53.242  1.00  0.00    -0.337 N 
HETATM    6  C18 UNL     1      27.865   1.617  53.448  1.00  0.00     0.227 C 
HETATM    7  O1  UNL     1      28.747   2.467  53.090  1.00  0.00    -0.273 OA
HETATM    8  C19 UNL     1      26.565   2.104  54.029  1.00  0.00     0.162 C 
HETATM    9  H18 UNL     1      29.266   0.045  53.143  1.00  0.00     0.168 HD
ENDROOT
BRANCH   1  10
HETATM   10  N3  UNL     1      24.328   2.405  53.049  1.00  0.00    -0.357 N 
HETATM   11  H10 UNL     1      23.371   2.494  53.456  1.00  0.00     0.166 HD
BRANCH  10  12
HETATM   12  C7  UNL     1      24.166   3.484  52.156  1.00  0.00     0.032 A 
HETATM   13  C6  UNL     1      24.683   3.427  50.860  1.00  0.00     0.031 A 
HETATM   14  C5  UNL     1      24.548   4.466  49.948  1.00  0.00     0.031 A 
HETATM   15  C4  UNL     1      23.880   5.605  50.316  1.00  0.00     0.030 A 
HETATM   16  C21 UNL     1      23.355   5.707  51.576  1.00  0.00     0.031 A 
HETATM   17  C20 UNL     1      23.507   4.646  52.471  1.00  0.00     0.031 A 
BRANCH  15  18
HETATM   18  N2  UNL     1      23.726   6.681  49.405  1.00  0.00    -0.378 N 
HETATM   19  C3  UNL     1      24.412   6.796  48.155  1.00  0.00     0.153 C 
HETATM   20  C2  UNL     1      23.398   7.361  47.150  1.00  0.00     0.291 C 
HETATM   21  N1  UNL     1      23.269   8.755  47.479  1.00  0.00     0.087 N 
HETATM   22  C1  UNL     1      22.374   9.482  46.637  1.00  0.00     0.310 C 
HETATM   23  C23 UNL     1      23.135   9.006  48.886  1.00  0.00     0.291 C 
HETATM   24  C22 UNL     1      22.828   7.779  49.694  1.00  0.00     0.153 C 
ENDBRANCH  15  18
ENDBRANCH  10  12
ENDBRANCH   1  10
BRANCH   2  25
HETATM   25  N4  UNL     1      23.895   0.094  52.245  1.00  0.00    -0.353 N 
HETATM   26  H11 UNL     1      24.005   0.267  51.222  1.00  0.00     0.166 HD
BRANCH  25  27
HETATM   27  C10 UNL     1      22.684  -0.250  52.860  1.00  0.00     0.054 A 
HETATM   28  C11 UNL     1      22.660  -0.972  54.010  1.00  0.00     0.031 A 
HETATM   29  C12 UNL     1      21.421  -1.286  54.580  1.00  0.00     0.002 A 
HETATM   30  C13 UNL     1      20.225  -0.874  53.992  1.00  0.00     0.002 A 
HETATM   31  C14 UNL     1      20.307  -0.134  52.808  1.00  0.00     0.026 A 
HETATM   32  C15 UNL     1      21.521   0.170  52.257  1.00  0.00     0.060 A 
HETATM   33 CL1  UNL     1      21.591   1.110  50.757  1.00  0.00    -0.082 Cl
ENDBRANCH  25  27
ENDBRANCH   2  25
TORSDOF 5
ENDMDL
