MODEL 1
REMARK VINA RESULT:      -8.5      0.000      0.000
REMARK  7 active torsions:
REMARK  status: ('A' for Active; 'I' for Inactive)
REMARK    1  A    between atoms: O1_2  and  C2_3 
REMARK    2  A    between atoms: C3_4  and  O2_5 
REMARK    3  A    between atoms: C3_4  and  C5_7 
REMARK    4  A    between atoms: C8_12  and  N3_13 
REMARK    5  A    between atoms: N3_13  and  C9_14 
REMARK    6  A    between atoms: C12_17  and  N4_18 
REMARK       I    between atoms: N4_18  and  C13_19 
REMARK       I    between atoms: C13_19  and  N5_21 
REMARK    7  A    between atoms: N5_21  and  C14_22 
ROOT
HETATM    1  C9  UNL     1      24.347   3.345  49.464  1.00  0.00     0.033 A 
HETATM    2  C10 UNL     1      25.678   3.029  49.615  1.00  0.00     0.032 A 
HETATM    3  C11 UNL     1      26.746   3.889  49.494  1.00  0.00     0.032 A 
HETATM    4  C12 UNL     1      26.467   5.205  49.190  1.00  0.00     0.036 A 
HETATM    5  C20 UNL     1      25.153   5.589  49.026  1.00  0.00     0.032 A 
HETATM    6  C21 UNL     1      24.140   4.673  49.163  1.00  0.00     0.032 A 
ENDROOT
BRANCH   1   7
HETATM    7  N3  UNL     1      23.262   2.447  49.591  1.00  0.00    -0.340 N 
HETATM    8  H10 UNL     1      22.671   2.356  48.712  1.00  0.00     0.167 HD
BRANCH   7   9
HETATM    9  C8  UNL     1      22.886   1.678  50.722  1.00  0.00     0.139 A 
HETATM   10  N2  UNL     1      21.747   1.018  50.868  1.00  0.00    -0.224 NA
HETATM   11  C7  UNL     1      21.363   0.290  51.924  1.00  0.00     0.235 A 
HETATM   12  N1  UNL     1      22.214   0.192  52.990  1.00  0.00    -0.245 NA
HETATM   13  C6  UNL     1      23.370   0.826  52.910  1.00  0.00     0.062 A 
HETATM   14  C5  UNL     1      24.684   1.458  52.998  1.00  0.00     0.136 A 
HETATM   15  C22 UNL     1      23.810   1.623  51.776  1.00  0.00     0.030 A 
BRANCH  14  16
HETATM   16  C3  UNL     1      25.933   0.692  52.733  1.00  0.00     0.082 C 
HETATM   17  C2  UNL     1      27.150   1.196  52.563  1.00  0.00     0.167 C 
BRANCH  17  18
HETATM   18  O1  UNL     1      27.934   2.354  52.513  1.00  0.00    -0.365 OA
HETATM   19  C1  UNL     1      28.810   2.542  53.630  1.00  0.00     0.209 C 
ENDBRANCH  17  18
BRANCH  16  20
HETATM   20  O2  UNL     1      25.596  -0.660  52.693  1.00  0.00    -0.357 OA
HETATM   21  C4  UNL     1      26.656  -1.597  52.635  1.00  0.00     0.209 C 
ENDBRANCH  16  20
ENDBRANCH  14  16
ENDBRANCH   7   9
ENDBRANCH   1   7
BRANCH   4  22
HETATM   22  N4  UNL     1      27.527   6.140  49.049  1.00  0.00    -0.309 N 
HETATM   23  C13 UNL     1      28.832   6.048  48.519  1.00  0.00     0.325 C 
HETATM   24  O3  UNL     1      29.319   5.000  48.028  1.00  0.00    -0.247 OA
HETATM   25  N5  UNL     1      29.539   7.281  48.600  1.00  0.00    -0.309 N 
HETATM   26  H14 UNL     1      29.177   8.168  48.996  1.00  0.00     0.170 HD
HETATM   27  H13 UNL     1      27.088   6.988  49.463  1.00  0.00     0.170 HD
BRANCH  25  28
HETATM   28  C14 UNL     1      30.858   7.415  48.129  1.00  0.00     0.036 A 
HETATM   29  C15 UNL     1      31.881   7.290  49.075  1.00  0.00     0.029 A 
HETATM   30  C16 UNL     1      33.184   7.407  48.703  1.00  0.00     0.002 A 
HETATM   31  C17 UNL     1      33.604   7.648  47.409  1.00  0.00     0.000 A 
HETATM   32  C18 UNL     1      32.587   7.771  46.464  1.00  0.00     0.002 A 
HETATM   33  C19 UNL     1      31.275   7.652  46.848  1.00  0.00     0.029 A 
ENDBRANCH  25  28
ENDBRANCH   4  22
TORSDOF 7
ENDMDL
MODEL 2
REMARK VINA RESULT:      -8.4      4.974      9.505
REMARK  7 active torsions:
REMARK  status: ('A' for Active; 'I' for Inactive)
REMARK    1  A    between atoms: O1_2  and  C2_3 
REMARK    2  A    between atoms: C3_4  and  O2_5 
REMARK    3  A    between atoms: C3_4  and  C5_7 
REMARK    4  A    between atoms: C8_12  and  N3_13 
REMARK    5  A    between atoms: N3_13  and  C9_14 
REMARK    6  A    between atoms: C12_17  and  N4_18 
REMARK       I    between atoms: N4_18  and  C13_19 
REMARK       I    between atoms: C13_19  and  N5_21 
REMARK    7  A    between atoms: N5_21  and  C14_22 
ROOT
HETATM    1  C9  UNL     1      25.005   3.156  51.402  1.00  0.00     0.033 A 
HETATM    2  C10 UNL     1      24.435   2.729  50.224  1.00  0.00     0.032 A 
HETATM    3  C11 UNL     1      23.092   2.704  49.922  1.00  0.00     0.032 A 
HETATM    4  C12 UNL     1      22.218   3.151  50.890  1.00  0.00     0.036 A 
HETATM    5  C20 UNL     1      22.723   3.593  52.095  1.00  0.00     0.032 A 
HETATM    6  C21 UNL     1      24.077   3.588  52.323  1.00  0.00     0.032 A 
ENDROOT
BRANCH   1   7
HETATM    7  N3  UNL     1      26.389   3.172  51.695  1.00  0.00    -0.340 N 
HETATM    8  H10 UNL     1      26.891   4.046  51.359  1.00  0.00     0.167 HD
BRANCH   7   9
HETATM    9  C8  UNL     1      27.155   2.185  52.366  1.00  0.00     0.139 A 
HETATM   10  N2  UNL     1      28.360   2.360  52.888  1.00  0.00    -0.224 NA
HETATM   11  C7  UNL     1      29.108   1.448  53.521  1.00  0.00     0.235 A 
HETATM   12  N1  UNL     1      28.607   0.184  53.666  1.00  0.00    -0.245 NA
HETATM   13  C6  UNL     1      27.408  -0.060  53.168  1.00  0.00     0.062 A 
HETATM   14  C5  UNL     1      26.106  -0.509  52.683  1.00  0.00     0.136 A 
HETATM   15  C22 UNL     1      26.576   0.912  52.477  1.00  0.00     0.030 A 
BRANCH  14  16
HETATM   16  C3  UNL     1      24.933  -0.617  53.595  1.00  0.00     0.082 C 
HETATM   17  C2  UNL     1      23.668  -0.345  53.293  1.00  0.00     0.167 C 
BRANCH  17  18
HETATM   18  O1  UNL     1      22.772   0.080  52.306  1.00  0.00    -0.365 OA
HETATM   19  C1  UNL     1      21.388  -0.083  52.633  1.00  0.00     0.209 C 
ENDBRANCH  17  18
BRANCH  16  20
HETATM   20  O2  UNL     1      25.402  -1.057  54.831  1.00  0.00    -0.357 OA
HETATM   21  C4  UNL     1      24.445  -1.290  55.848  1.00  0.00     0.209 C 
ENDBRANCH  16  20
ENDBRANCH  14  16
ENDBRANCH   7   9
ENDBRANCH   1   7
BRANCH   4  22
HETATM   22  N4  UNL     1      20.820   3.147  50.639  1.00  0.00    -0.309 N 
HETATM   23  C13 UNL     1      19.688   3.022  51.474  1.00  0.00     0.325 C 
HETATM   24  O3  UNL     1      19.747   2.880  52.721  1.00  0.00    -0.247 OA
HETATM   25  N5  UNL     1      18.467   3.077  50.745  1.00  0.00    -0.309 N 
HETATM   26  H14 UNL     1      18.373   3.193  49.720  1.00  0.00     0.170 HD
HETATM   27  H13 UNL     1      20.813   3.266  49.605  1.00  0.00     0.170 HD
BRANCH  25  28
HETATM   28  C14 UNL     1      17.216   2.973  51.381  1.00  0.00     0.036 A 
HETATM   29  C15 UNL     1      16.666   4.155  51.886  1.00  0.00     0.029 A 
HETATM   30  C16 UNL     1      15.460   4.142  52.517  1.00  0.00     0.002 A 
HETATM   31  C17 UNL     1      14.695   3.007  52.707  1.00  0.00     0.000 A 
HETATM   32  C18 UNL     1      15.241   1.828  52.203  1.00  0.00     0.002 A 
HETATM   33  C19 UNL     1      16.458   1.850  51.570  1.00  0.00     0.029 A 
ENDBRANCH  25  28
ENDBRANCH   4  22
TORSDOF 7
ENDMDL
MODEL 3
REMARK VINA RESULT:      -8.4      1.983      3.367
REMARK  7 active torsions:
REMARK  status: ('A' for Active; 'I' for Inactive)
REMARK    1  A    between atoms: O1_2  and  C2_3 
REMARK    2  A    between atoms: C3_4  and  O2_5 
REMARK    3  A    between atoms: C3_4  and  C5_7 
REMARK    4  A    between atoms: C8_12  and  N3_13 
REMARK    5  A    between atoms: N3_13  and  C9_14 
REMARK    6  A    between atoms: C12_17  and  N4_18 
REMARK       I    between atoms: N4_18  and  C13_19 
REMARK       I    between atoms: C13_19  and  N5_21 
REMARK    7  A    between atoms: N5_21  and  C14_22 
ROOT
HETATM    1  C9  UNL     1      24.694   1.847  51.662  1.00  0.00     0.033 A 
HETATM    2  C10 UNL     1      25.943   1.876  51.085  1.00  0.00     0.032 A 
HETATM    3  C11 UNL     1      26.527   2.945  50.443  1.00  0.00     0.032 A 
HETATM    4  C12 UNL     1      25.796   4.111  50.363  1.00  0.00     0.036 A 
HETATM    5  C20 UNL     1      24.536   4.150  50.921  1.00  0.00     0.032 A 
HETATM    6  C21 UNL     1      24.020   3.042  51.547  1.00  0.00     0.032 A 
ENDROOT
BRANCH   1   7
HETATM    7  N3  UNL     1      24.109   0.737  52.316  1.00  0.00    -0.340 N 
HETATM    8  H10 UNL     1      23.264   0.336  51.814  1.00  0.00     0.167 HD
BRANCH   7   9
HETATM    9  C8  UNL     1      24.512   0.120  53.528  1.00  0.00     0.139 A 
HETATM   10  N2  UNL     1      23.795  -0.738  54.238  1.00  0.00    -0.224 NA
HETATM   11  C7  UNL     1      24.145  -1.331  55.386  1.00  0.00     0.235 A 
HETATM   12  N1  UNL     1      25.374  -1.045  55.917  1.00  0.00    -0.245 NA
HETATM   13  C6  UNL     1      26.142  -0.196  55.258  1.00  0.00     0.062 A 
HETATM   14  C5  UNL     1      27.120   0.715  54.670  1.00  0.00     0.136 A 
HETATM   15  C22 UNL     1      25.785   0.461  54.011  1.00  0.00     0.030 A 
BRANCH  14  16
HETATM   16  C3  UNL     1      28.276   0.209  53.880  1.00  0.00     0.082 C 
HETATM   17  C2  UNL     1      28.412  -1.009  53.367  1.00  0.00     0.167 C 
BRANCH  17  18
HETATM   18  O1  UNL     1      27.839  -2.276  53.208  1.00  0.00    -0.365 OA
HETATM   19  C1  UNL     1      26.861  -2.372  52.167  1.00  0.00     0.209 C 
ENDBRANCH  17  18
BRANCH  16  20
HETATM   20  O2  UNL     1      29.199   1.247  53.774  1.00  0.00    -0.357 OA
HETATM   21  C4  UNL     1      28.695   2.550  53.548  1.00  0.00     0.209 C 
ENDBRANCH  16  20
ENDBRANCH  14  16
ENDBRANCH   7   9
ENDBRANCH   1   7
BRANCH   4  22
HETATM   22  N4  UNL     1      26.343   5.248  49.711  1.00  0.00    -0.309 N 
HETATM   23  C13 UNL     1      27.415   5.421  48.809  1.00  0.00     0.325 C 
HETATM   24  O3  UNL     1      28.140   4.485  48.390  1.00  0.00    -0.247 OA
HETATM   25  N5  UNL     1      27.585   6.781  48.422  1.00  0.00    -0.309 N 
HETATM   26  H14 UNL     1      27.012   7.583  48.742  1.00  0.00     0.170 HD
HETATM   27  H13 UNL     1      25.721   5.996  50.080  1.00  0.00     0.170 HD
BRANCH  25  28
HETATM   28  C14 UNL     1      28.596   7.179  47.529  1.00  0.00     0.036 A 
HETATM   29  C15 UNL     1      28.189   7.883  46.390  1.00  0.00     0.029 A 
HETATM   30  C16 UNL     1      29.103   8.304  45.474  1.00  0.00     0.002 A 
HETATM   31  C17 UNL     1      30.464   8.087  45.579  1.00  0.00     0.000 A 
HETATM   32  C18 UNL     1      30.872   7.387  46.713  1.00  0.00     0.002 A 
HETATM   33  C19 UNL     1      29.943   6.966  47.631  1.00  0.00     0.029 A 
ENDBRANCH  25  28
ENDBRANCH   4  22
TORSDOF 7
ENDMDL
MODEL 4
REMARK VINA RESULT:      -8.3      0.727      1.965
REMARK  7 active torsions:
REMARK  status: ('A' for Active; 'I' for Inactive)
REMARK    1  A    between atoms: O1_2  and  C2_3 
REMARK    2  A    between atoms: C3_4  and  O2_5 
REMARK    3  A    between atoms: C3_4  and  C5_7 
REMARK    4  A    between atoms: C8_12  and  N3_13 
REMARK    5  A    between atoms: N3_13  and  C9_14 
REMARK    6  A    between atoms: C12_17  and  N4_18 
REMARK       I    between atoms: N4_18  and  C13_19 
REMARK       I    between atoms: C13_19  and  N5_21 
REMARK    7  A    between atoms: N5_21  and  C14_22 
ROOT
HETATM    1  C9  UNL     1      24.802   3.737  49.436  1.00  0.00     0.033 A 
HETATM    2  C10 UNL     1      24.671   5.091  49.225  1.00  0.00     0.032 A 
HETATM    3  C11 UNL     1      25.688   5.987  48.982  1.00  0.00     0.032 A 
HETATM    4  C12 UNL     1      26.973   5.490  48.943  1.00  0.00     0.036 A 
HETATM    5  C20 UNL     1      27.175   4.141  49.147  1.00  0.00     0.032 A 
HETATM    6  C21 UNL     1      26.110   3.308  49.384  1.00  0.00     0.032 A 
ENDROOT
BRANCH   1   7
HETATM    7  N3  UNL     1      23.745   2.831  49.687  1.00  0.00    -0.340 N 
HETATM    8  H10 UNL     1      23.082   2.703  48.866  1.00  0.00     0.167 HD
BRANCH   7   9
HETATM    9  C8  UNL     1      23.480   2.099  50.872  1.00  0.00     0.139 A 
HETATM   10  N2  UNL     1      22.386   1.394  51.120  1.00  0.00    -0.224 NA
HETATM   11  C7  UNL     1      22.105   0.698  52.229  1.00  0.00     0.235 A 
HETATM   12  N1  UNL     1      23.026   0.689  53.241  1.00  0.00    -0.245 NA
HETATM   13  C6  UNL     1      24.141   1.373  53.059  1.00  0.00     0.062 A 
HETATM   14  C5  UNL     1      25.425   2.069  53.034  1.00  0.00     0.136 A 
HETATM   15  C22 UNL     1      24.469   2.136  51.865  1.00  0.00     0.030 A 
BRANCH  14  16
HETATM   16  C3  UNL     1      26.691   1.350  52.722  1.00  0.00     0.082 C 
HETATM   17  C2  UNL     1      26.858   0.034  52.650  1.00  0.00     0.167 C 
BRANCH  17  18
HETATM   18  O1  UNL     1      26.254  -1.224  52.757  1.00  0.00    -0.365 OA
HETATM   19  C1  UNL     1      27.103  -2.333  52.445  1.00  0.00     0.209 C 
ENDBRANCH  17  18
BRANCH  16  20
HETATM   20  O2  UNL     1      27.680   2.311  52.518  1.00  0.00    -0.357 OA
HETATM   21  C4  UNL     1      28.648   2.480  53.537  1.00  0.00     0.209 C 
ENDBRANCH  16  20
ENDBRANCH  14  16
ENDBRANCH   7   9
ENDBRANCH   1   7
BRANCH   4  22
HETATM   22  N4  UNL     1      28.064   6.366  48.700  1.00  0.00    -0.309 N 
HETATM   23  C13 UNL     1      29.401   6.156  48.299  1.00  0.00     0.325 C 
HETATM   24  O3  UNL     1      29.895   5.025  48.065  1.00  0.00    -0.247 OA
HETATM   25  N5  UNL     1      30.132   7.372  48.187  1.00  0.00    -0.309 N 
HETATM   26  H14 UNL     1      29.766   8.324  48.370  1.00  0.00     0.170 HD
HETATM   27  H13 UNL     1      27.619   7.284  48.903  1.00  0.00     0.170 HD
BRANCH  25  28
HETATM   28  C14 UNL     1      31.484   7.394  47.801  1.00  0.00     0.036 A 
HETATM   29  C15 UNL     1      32.428   7.584  48.816  1.00  0.00     0.029 A 
HETATM   30  C16 UNL     1      33.757   7.620  48.528  1.00  0.00     0.002 A 
HETATM   31  C17 UNL     1      34.280   7.475  47.257  1.00  0.00     0.000 A 
HETATM   32  C18 UNL     1      33.342   7.284  46.243  1.00  0.00     0.002 A 
HETATM   33  C19 UNL     1      32.004   7.251  46.543  1.00  0.00     0.029 A 
ENDBRANCH  25  28
ENDBRANCH   4  22
TORSDOF 7
ENDMDL
MODEL 5
REMARK VINA RESULT:      -8.3      2.759     10.237
REMARK  7 active torsions:
REMARK  status: ('A' for Active; 'I' for Inactive)
REMARK    1  A    between atoms: O1_2  and  C2_3 
REMARK    2  A    between atoms: C3_4  and  O2_5 
REMARK    3  A    between atoms: C3_4  and  C5_7 
REMARK    4  A    between atoms: C8_12  and  N3_13 
REMARK    5  A    between atoms: N3_13  and  C9_14 
REMARK    6  A    between atoms: C12_17  and  N4_18 
REMARK       I    between atoms: N4_18  and  C13_19 
REMARK       I    between atoms: C13_19  and  N5_21 
REMARK    7  A    between atoms: N5_21  and  C14_22 
ROOT
HETATM    1  C9  UNL     1      27.012   5.984  48.558  1.00  0.00     0.033 A 
HETATM    2  C10 UNL     1      27.425   4.715  48.895  1.00  0.00     0.032 A 
HETATM    3  C11 UNL     1      26.633   3.689  49.360  1.00  0.00     0.032 A 
HETATM    4  C12 UNL     1      25.287   3.946  49.507  1.00  0.00     0.036 A 
HETATM    5  C20 UNL     1      24.806   5.198  49.187  1.00  0.00     0.032 A 
HETATM    6  C21 UNL     1      25.659   6.172  48.729  1.00  0.00     0.032 A 
ENDROOT
BRANCH   1   7
HETATM    7  N3  UNL     1      27.841   7.027  48.084  1.00  0.00    -0.340 N 
HETATM    8  H10 UNL     1      27.322   7.781  47.546  1.00  0.00     0.167 HD
BRANCH   7   9
HETATM    9  C8  UNL     1      29.243   7.174  48.242  1.00  0.00     0.139 A 
HETATM   10  N2  UNL     1      30.164   6.307  47.847  1.00  0.00    -0.224 NA
HETATM   11  C7  UNL     1      31.491   6.415  47.987  1.00  0.00     0.235 A 
HETATM   12  N1  UNL     1      31.991   7.532  48.600  1.00  0.00    -0.245 NA
HETATM   13  C6  UNL     1      31.127   8.439  49.018  1.00  0.00     0.062 A 
HETATM   14  C5  UNL     1      30.324   9.540  49.542  1.00  0.00     0.136 A 
HETATM   15  C22 UNL     1      29.682   8.345  48.879  1.00  0.00     0.030 A 
BRANCH  14  16
HETATM   16  C3  UNL     1      30.150  10.806  48.777  1.00  0.00     0.082 C 
HETATM   17  C2  UNL     1      29.048  11.546  48.711  1.00  0.00     0.167 C 
BRANCH  17  18
HETATM   18  O1  UNL     1      27.718  11.693  49.122  1.00  0.00    -0.365 OA
HETATM   19  C1  UNL     1      26.798  10.761  48.546  1.00  0.00     0.209 C 
ENDBRANCH  17  18
BRANCH  16  20
HETATM   20  O2  UNL     1      31.356  11.080  48.137  1.00  0.00    -0.357 OA
HETATM   21  C4  UNL     1      31.309  11.385  46.756  1.00  0.00     0.209 C 
ENDBRANCH  16  20
ENDBRANCH  14  16
ENDBRANCH   7   9
ENDBRANCH   1   7
BRANCH   4  22
HETATM   22  N4  UNL     1      24.419   2.928  49.985  1.00  0.00    -0.309 N 
HETATM   23  C13 UNL     1      24.159   2.405  51.270  1.00  0.00     0.325 C 
HETATM   24  O3  UNL     1      24.720   2.807  52.319  1.00  0.00    -0.247 OA
HETATM   25  N5  UNL     1      23.184   1.367  51.246  1.00  0.00    -0.309 N 
HETATM   26  H14 UNL     1      22.697   1.006  50.406  1.00  0.00     0.170 HD
HETATM   27  H13 UNL     1      23.976   2.623  49.094  1.00  0.00     0.170 HD
BRANCH  25  28
HETATM   28  C14 UNL     1      22.774   0.706  52.418  1.00  0.00     0.036 A 
HETATM   29  C15 UNL     1      21.518   1.049  52.930  1.00  0.00     0.029 A 
HETATM   30  C16 UNL     1      21.047   0.458  54.060  1.00  0.00     0.002 A 
HETATM   31  C17 UNL     1      21.734  -0.501  54.780  1.00  0.00     0.000 A 
HETATM   32  C18 UNL     1      22.985  -0.846  54.272  1.00  0.00     0.002 A 
HETATM   33  C19 UNL     1      23.454  -0.243  53.131  1.00  0.00     0.029 A 
ENDBRANCH  25  28
ENDBRANCH   4  22
TORSDOF 7
ENDMDL
MODEL 6
REMARK VINA RESULT:      -8.2      2.373     10.228
REMARK  7 active torsions:
REMARK  status: ('A' for Active; 'I' for Inactive)
REMARK    1  A    between atoms: O1_2  and  C2_3 
REMARK    2  A    between atoms: C3_4  and  O2_5 
REMARK    3  A    between atoms: C3_4  and  C5_7 
REMARK    4  A    between atoms: C8_12  and  N3_13 
REMARK    5  A    between atoms: N3_13  and  C9_14 
REMARK    6  A    between atoms: C12_17  and  N4_18 
REMARK       I    between atoms: N4_18  and  C13_19 
REMARK       I    between atoms: C13_19  and  N5_21 
REMARK    7  A    between atoms: N5_21  and  C14_22 
ROOT
HETATM    1  C9  UNL     1      27.111   5.577  48.632  1.00  0.00     0.033 A 
HETATM    2  C10 UNL     1      25.784   5.891  48.811  1.00  0.00     0.032 A 
HETATM    3  C11 UNL     1      24.797   5.056  49.284  1.00  0.00     0.032 A 
HETATM    4  C12 UNL     1      25.164   3.769  49.618  1.00  0.00     0.036 A 
HETATM    5  C20 UNL     1      26.480   3.388  49.463  1.00  0.00     0.032 A 
HETATM    6  C21 UNL     1      27.409   4.279  48.984  1.00  0.00     0.032 A 
ENDROOT
BRANCH   1   7
HETATM    7  N3  UNL     1      28.111   6.449  48.142  1.00  0.00    -0.340 N 
HETATM    8  H10 UNL     1      27.731   7.297  47.627  1.00  0.00     0.167 HD
BRANCH   7   9
HETATM    9  C8  UNL     1      29.519   6.322  48.256  1.00  0.00     0.139 A 
HETATM   10  N2  UNL     1      30.234   5.264  47.902  1.00  0.00    -0.224 NA
HETATM   11  C7  UNL     1      31.561   5.113  48.002  1.00  0.00     0.235 A 
HETATM   12  N1  UNL     1      32.295   6.143  48.524  1.00  0.00    -0.245 NA
HETATM   13  C6  UNL     1      31.643   7.230  48.897  1.00  0.00     0.062 A 
HETATM   14  C5  UNL     1      31.096   8.501  49.362  1.00  0.00     0.136 A 
HETATM   15  C22 UNL     1      30.205   7.419  48.799  1.00  0.00     0.030 A 
BRANCH  14  16
HETATM   16  C3  UNL     1      31.148   9.725  48.515  1.00  0.00     0.082 C 
HETATM   17  C2  UNL     1      31.690   9.828  47.306  1.00  0.00     0.167 C 
BRANCH  17  18
HETATM   18  O1  UNL     1      32.366   9.170  46.273  1.00  0.00    -0.365 OA
HETATM   19  C1  UNL     1      31.537   8.382  45.412  1.00  0.00     0.209 C 
ENDBRANCH  17  18
BRANCH  16  20
HETATM   20  O2  UNL     1      30.522  10.751  49.220  1.00  0.00    -0.357 OA
HETATM   21  C4  UNL     1      30.867  12.081  48.882  1.00  0.00     0.209 C 
ENDBRANCH  16  20
ENDBRANCH  14  16
ENDBRANCH   7   9
ENDBRANCH   1   7
BRANCH   4  22
HETATM   22  N4  UNL     1      24.191   2.859  50.109  1.00  0.00    -0.309 N 
HETATM   23  C13 UNL     1      23.986   2.248  51.364  1.00  0.00     0.325 C 
HETATM   24  O3  UNL     1      24.719   2.437  52.366  1.00  0.00    -0.247 OA
HETATM   25  N5  UNL     1      22.849   1.391  51.372  1.00  0.00    -0.309 N 
HETATM   26  H14 UNL     1      22.218   1.206  50.571  1.00  0.00     0.170 HD
HETATM   27  H13 UNL     1      23.607   2.729  49.257  1.00  0.00     0.170 HD
BRANCH  25  28
HETATM   28  C14 UNL     1      22.461   0.680  52.522  1.00  0.00     0.036 A 
HETATM   29  C15 UNL     1      21.244   1.044  53.107  1.00  0.00     0.029 A 
HETATM   30  C16 UNL     1      20.796   0.408  54.223  1.00  0.00     0.002 A 
HETATM   31  C17 UNL     1      21.471  -0.617  54.857  1.00  0.00     0.000 A 
HETATM   32  C18 UNL     1      22.684  -0.983  54.276  1.00  0.00     0.002 A 
HETATM   33  C19 UNL     1      23.129  -0.335  53.151  1.00  0.00     0.029 A 
ENDBRANCH  25  28
ENDBRANCH   4  22
TORSDOF 7
ENDMDL
MODEL 7
REMARK VINA RESULT:      -8.2      4.566     10.423
REMARK  7 active torsions:
REMARK  status: ('A' for Active; 'I' for Inactive)
REMARK    1  A    between atoms: O1_2  and  C2_3 
REMARK    2  A    between atoms: C3_4  and  O2_5 
REMARK    3  A    between atoms: C3_4  and  C5_7 
REMARK    4  A    between atoms: C8_12  and  N3_13 
REMARK    5  A    between atoms: N3_13  and  C9_14 
REMARK    6  A    between atoms: C12_17  and  N4_18 
REMARK       I    between atoms: N4_18  and  C13_19 
REMARK       I    between atoms: C13_19  and  N5_21 
REMARK    7  A    between atoms: N5_21  and  C14_22 
ROOT
HETATM    1  C9  UNL     1      24.009  -0.884  54.492  1.00  0.00     0.033 A 
HETATM    2  C10 UNL     1      23.619  -0.644  53.195  1.00  0.00     0.032 A 
HETATM    3  C11 UNL     1      22.328  -0.615  52.716  1.00  0.00     0.032 A 
HETATM    4  C12 UNL     1      21.314  -0.847  53.620  1.00  0.00     0.036 A 
HETATM    5  C20 UNL     1      21.636  -1.094  54.938  1.00  0.00     0.032 A 
HETATM    6  C21 UNL     1      22.948  -1.108  55.341  1.00  0.00     0.032 A 
ENDROOT
BRANCH   1   7
HETATM    7  N3  UNL     1      25.343  -0.913  54.965  1.00  0.00    -0.340 N 
HETATM    8  H10 UNL     1      25.551  -1.724  55.620  1.00  0.00     0.167 HD
BRANCH   7   9
HETATM    9  C8  UNL     1      26.397  -0.011  54.672  1.00  0.00     0.139 A 
HETATM   10  N2  UNL     1      27.686  -0.226  54.894  1.00  0.00    -0.224 NA
HETATM   11  C7  UNL     1      28.702   0.606  54.634  1.00  0.00     0.235 A 
HETATM   12  N1  UNL     1      28.419   1.823  54.077  1.00  0.00    -0.245 NA
HETATM   13  C6  UNL     1      27.151   2.102  53.829  1.00  0.00     0.062 A 
HETATM   14  C5  UNL     1      25.814   2.580  53.488  1.00  0.00     0.136 A 
HETATM   15  C22 UNL     1      26.031   1.216  54.102  1.00  0.00     0.030 A 
BRANCH  14  16
HETATM   16  C3  UNL     1      25.303   2.525  52.090  1.00  0.00     0.082 C 
HETATM   17  C2  UNL     1      24.039   2.658  51.704  1.00  0.00     0.167 C 
BRANCH  17  18
HETATM   18  O1  UNL     1      22.715   2.870  52.105  1.00  0.00    -0.365 OA
HETATM   19  C1  UNL     1      22.352   4.241  52.300  1.00  0.00     0.209 C 
ENDBRANCH  17  18
BRANCH  16  20
HETATM   20  O2  UNL     1      26.394   2.306  51.252  1.00  0.00    -0.357 OA
HETATM   21  C4  UNL     1      26.551   3.169  50.142  1.00  0.00     0.209 C 
ENDBRANCH  16  20
ENDBRANCH  14  16
ENDBRANCH   7   9
ENDBRANCH   1   7
BRANCH   4  22
HETATM   22  N4  UNL     1      19.961  -0.832  53.187  1.00  0.00    -0.309 N 
HETATM   23  C13 UNL     1      19.236   0.004  52.311  1.00  0.00     0.325 C 
HETATM   24  O3  UNL     1      19.733   0.983  51.701  1.00  0.00    -0.247 OA
HETATM   25  N5  UNL     1      17.873  -0.388  52.190  1.00  0.00    -0.309 N 
HETATM   26  H14 UNL     1      17.422  -1.186  52.673  1.00  0.00     0.170 HD
HETATM   27  H13 UNL     1      19.587  -1.651  53.709  1.00  0.00     0.170 HD
BRANCH  25  28
HETATM   28  C14 UNL     1      16.969   0.308  51.367  1.00  0.00     0.036 A 
HETATM   29  C15 UNL     1      16.916  -0.076  50.023  1.00  0.00     0.029 A 
HETATM   30  C16 UNL     1      16.070   0.547  49.159  1.00  0.00     0.002 A 
HETATM   31  C17 UNL     1      15.216   1.574  49.512  1.00  0.00     0.000 A 
HETATM   32  C18 UNL     1      15.266   1.958  50.851  1.00  0.00     0.002 A 
HETATM   33  C19 UNL     1      16.123   1.325  51.716  1.00  0.00     0.029 A 
ENDBRANCH  25  28
ENDBRANCH   4  22
TORSDOF 7
ENDMDL
MODEL 8
REMARK VINA RESULT:      -8.0      3.707      4.794
REMARK  7 active torsions:
REMARK  status: ('A' for Active; 'I' for Inactive)
REMARK    1  A    between atoms: O1_2  and  C2_3 
REMARK    2  A    between atoms: C3_4  and  O2_5 
REMARK    3  A    between atoms: C3_4  and  C5_7 
REMARK    4  A    between atoms: C8_12  and  N3_13 
REMARK    5  A    between atoms: N3_13  and  C9_14 
REMARK    6  A    between atoms: C12_17  and  N4_18 
REMARK       I    between atoms: N4_18  and  C13_19 
REMARK       I    between atoms: C13_19  and  N5_21 
REMARK    7  A    between atoms: N5_21  and  C14_22 
ROOT
HETATM    1  C9  UNL     1      26.207   3.743  49.951  1.00  0.00     0.033 A 
HETATM    2  C10 UNL     1      27.279   4.089  49.161  1.00  0.00     0.032 A 
HETATM    3  C11 UNL     1      27.488   5.302  48.544  1.00  0.00     0.032 A 
HETATM    4  C12 UNL     1      26.534   6.279  48.729  1.00  0.00     0.036 A 
HETATM    5  C20 UNL     1      25.433   5.998  49.511  1.00  0.00     0.032 A 
HETATM    6  C21 UNL     1      25.292   4.763  50.095  1.00  0.00     0.032 A 
ENDROOT
BRANCH   1   7
HETATM    7  N3  UNL     1      26.007   2.490  50.576  1.00  0.00    -0.340 N 
HETATM    8  H10 UNL     1      25.270   1.886  50.106  1.00  0.00     0.167 HD
BRANCH   7   9
HETATM    9  C8  UNL     1      26.658   1.967  51.722  1.00  0.00     0.139 A 
HETATM   10  N2  UNL     1      27.702   2.506  52.335  1.00  0.00    -0.224 NA
HETATM   11  C7  UNL     1      28.341   2.034  53.413  1.00  0.00     0.235 A 
HETATM   12  N1  UNL     1      27.896   0.868  53.973  1.00  0.00    -0.245 NA
HETATM   13  C6  UNL     1      26.857   0.276  53.410  1.00  0.00     0.062 A 
HETATM   14  C5  UNL     1      25.728  -0.512  52.925  1.00  0.00     0.136 A 
HETATM   15  C22 UNL     1      26.147   0.768  52.241  1.00  0.00     0.030 A 
BRANCH  14  16
HETATM   16  C3  UNL     1      24.388  -0.427  53.570  1.00  0.00     0.082 C 
HETATM   17  C2  UNL     1      23.287   0.094  53.040  1.00  0.00     0.167 C 
BRANCH  17  18
HETATM   18  O1  UNL     1      22.713   0.720  51.928  1.00  0.00    -0.365 OA
HETATM   19  C1  UNL     1      22.406   2.107  52.103  1.00  0.00     0.209 C 
ENDBRANCH  17  18
BRANCH  16  20
HETATM   20  O2  UNL     1      24.495  -0.994  54.838  1.00  0.00    -0.357 OA
HETATM   21  C4  UNL     1      23.295  -1.330  55.508  1.00  0.00     0.209 C 
ENDBRANCH  16  20
ENDBRANCH  14  16
ENDBRANCH   7   9
ENDBRANCH   1   7
BRANCH   4  22
HETATM   22  N4  UNL     1      26.692   7.550  48.116  1.00  0.00    -0.309 N 
HETATM   23  C13 UNL     1      26.915   8.847  48.625  1.00  0.00     0.325 C 
HETATM   24  O3  UNL     1      27.024   9.114  49.847  1.00  0.00    -0.247 OA
HETATM   25  N5  UNL     1      27.006   9.826  47.595  1.00  0.00    -0.309 N 
HETATM   26  H14 UNL     1      26.923   9.651  46.577  1.00  0.00     0.170 HD
HETATM   27  H13 UNL     1      26.597   7.289  47.113  1.00  0.00     0.170 HD
BRANCH  25  28
HETATM   28  C14 UNL     1      27.227  11.186  47.879  1.00  0.00     0.036 A 
HETATM   29  C15 UNL     1      26.106  12.023  47.864  1.00  0.00     0.029 A 
HETATM   30  C16 UNL     1      26.232  13.352  48.127  1.00  0.00     0.002 A 
HETATM   31  C17 UNL     1      27.429  13.975  48.424  1.00  0.00     0.000 A 
HETATM   32  C18 UNL     1      28.548  13.143  48.441  1.00  0.00     0.002 A 
HETATM   33  C19 UNL     1      28.411  11.804  48.174  1.00  0.00     0.029 A 
ENDBRANCH  25  28
ENDBRANCH   4  22
TORSDOF 7
ENDMDL
MODEL 9
REMARK VINA RESULT:      -8.0      2.903     10.361
REMARK  7 active torsions:
REMARK  status: ('A' for Active; 'I' for Inactive)
REMARK    1  A    between atoms: O1_2  and  C2_3 
REMARK    2  A    between atoms: C3_4  and  O2_5 
REMARK    3  A    between atoms: C3_4  and  C5_7 
REMARK    4  A    between atoms: C8_12  and  N3_13 
REMARK    5  A    between atoms: N3_13  and  C9_14 
REMARK    6  A    between atoms: C12_17  and  N4_18 
REMARK       I    between atoms: N4_18  and  C13_19 
REMARK       I    between atoms: C13_19  and  N5_21 
REMARK    7  A    between atoms: N5_21  and  C14_22 
ROOT
HETATM    1  C9  UNL     1      26.777   5.970  48.622  1.00  0.00     0.033 A 
HETATM    2  C10 UNL     1      27.269   4.708  48.863  1.00  0.00     0.032 A 
HETATM    3  C11 UNL     1      26.559   3.623  49.327  1.00  0.00     0.032 A 
HETATM    4  C12 UNL     1      25.216   3.808  49.578  1.00  0.00     0.036 A 
HETATM    5  C20 UNL     1      24.659   5.049  49.357  1.00  0.00     0.032 A 
HETATM    6  C21 UNL     1      25.432   6.084  48.893  1.00  0.00     0.032 A 
ENDROOT
BRANCH   1   7
HETATM    7  N3  UNL     1      27.524   7.074  48.147  1.00  0.00    -0.340 N 
HETATM    8  H10 UNL     1      26.980   7.717  47.500  1.00  0.00     0.167 HD
BRANCH   7   9
HETATM    9  C8  UNL     1      28.873   7.407  48.429  1.00  0.00     0.139 A 
HETATM   10  N2  UNL     1      29.922   6.620  48.241  1.00  0.00    -0.224 NA
HETATM   11  C7  UNL     1      31.205   6.904  48.503  1.00  0.00     0.235 A 
HETATM   12  N1  UNL     1      31.505   8.134  49.022  1.00  0.00    -0.245 NA
HETATM   13  C6  UNL     1      30.504   8.969  49.234  1.00  0.00     0.062 A 
HETATM   14  C5  UNL     1      29.531  10.016  49.533  1.00  0.00     0.136 A 
HETATM   15  C22 UNL     1      29.105   8.685  48.959  1.00  0.00     0.030 A 
BRANCH  14  16
HETATM   16  C3  UNL     1      29.310  11.159  48.605  1.00  0.00     0.082 C 
HETATM   17  C2  UNL     1      29.941  11.380  47.457  1.00  0.00     0.167 C 
BRANCH  17  18
HETATM   18  O1  UNL     1      30.911  10.927  46.555  1.00  0.00    -0.365 OA
HETATM   19  C1  UNL     1      32.230  11.436  46.776  1.00  0.00     0.209 C 
ENDBRANCH  17  18
BRANCH  16  20
HETATM   20  O2  UNL     1      28.316  11.964  49.158  1.00  0.00    -0.357 OA
HETATM   21  C4  UNL     1      27.573  12.785  48.276  1.00  0.00     0.209 C 
ENDBRANCH  16  20
ENDBRANCH  14  16
ENDBRANCH   7   9
ENDBRANCH   1   7
BRANCH   4  22
HETATM   22  N4  UNL     1      24.430   2.727  50.061  1.00  0.00    -0.309 N 
HETATM   23  C13 UNL     1      23.903   2.407  51.331  1.00  0.00     0.325 C 
HETATM   24  O3  UNL     1      24.064   3.114  52.357  1.00  0.00    -0.247 OA
HETATM   25  N5  UNL     1      23.164   1.191  51.321  1.00  0.00    -0.309 N 
HETATM   26  H14 UNL     1      23.007   0.578  50.500  1.00  0.00     0.170 HD
HETATM   27  H13 UNL     1      24.320   2.170  49.189  1.00  0.00     0.170 HD
BRANCH  25  28
HETATM   28  C14 UNL     1      22.551   0.684  52.481  1.00  0.00     0.036 A 
HETATM   29  C15 UNL     1      23.282  -0.250  53.224  1.00  0.00     0.029 A 
HETATM   30  C16 UNL     1      22.762  -0.791  54.358  1.00  0.00     0.002 A 
HETATM   31  C17 UNL     1      21.514  -0.480  54.866  1.00  0.00     0.000 A 
HETATM   32  C18 UNL     1      20.785   0.451  54.129  1.00  0.00     0.002 A 
HETATM   33  C19 UNL     1      21.317   0.990  52.985  1.00  0.00     0.029 A 
ENDBRANCH  25  28
ENDBRANCH   4  22
TORSDOF 7
ENDMDL
