MODEL 1
REMARK VINA RESULT:      -7.2      0.000      0.000
REMARK  6 active torsions:
REMARK  status: ('A' for Active; 'I' for Inactive)
REMARK    1  A    between atoms: C2_2  and  C3_3 
REMARK    2  A    between atoms: C3_3  and  C4_4 
REMARK    3  A    between atoms: C4_4  and  C5_6 
REMARK    4  A    between atoms: N1_8  and  C7_9 
REMARK    5  A    between atoms: C13_16  and  N3_17 
REMARK    6  A    between atoms: N3_17  and  C14_18 
ROOT
HETATM    1  C5  UNL     1      24.891   2.327  50.892  1.00  0.00     0.140 C 
HETATM    2  C6  UNL     1      23.564   3.009  50.575  1.00  0.00     0.291 C 
HETATM    3  N1  UNL     1      22.686   1.923  50.212  1.00  0.00     0.090 N 
HETATM    4  C9  UNL     1      21.725   1.751  51.233  1.00  0.00     0.292 C 
HETATM    5  C10 UNL     1      21.900   0.503  52.027  1.00  0.00     0.152 C 
HETATM    6  N2  UNL     1      23.006   0.495  52.933  1.00  0.00    -0.391 N 
HETATM    7  C11 UNL     1      22.910  -0.632  53.877  1.00  0.00     0.148 C 
HETATM    8  C12 UNL     1      24.149   1.326  53.110  1.00  0.00     0.111 C 
HETATM    9  C13 UNL     1      24.939   2.076  52.352  1.00  0.00     0.055 C 
ENDROOT
BRANCH   9  10
HETATM   10  N3  UNL     1      25.908   2.646  53.236  1.00  0.00    -0.190 N 
HETATM   11  H20 UNL     1      25.819   3.586  53.723  1.00  0.00     0.184 HD
BRANCH  10  12
HETATM   12  C14 UNL     1      27.128   1.936  53.533  1.00  0.00     0.726 A 
HETATM   13  N4  UNL     1      28.195   2.511  54.125  1.00  0.00    -0.075 NA
HETATM   14  C15 UNL     1      29.317   1.803  54.382  1.00  0.00     0.138 A 
HETATM   15  C16 UNL     1      29.410   0.474  54.050  1.00  0.00     0.040 A 
HETATM   16  C17 UNL     1      28.309  -0.127  53.436  1.00  0.00     0.138 A 
HETATM   17  N5  UNL     1      27.241   0.652  53.221  1.00  0.00    -0.075 NA
ENDBRANCH  10  12
ENDBRANCH   9  10
BRANCH   1  18
HETATM   18  C4  UNL     1      25.973   3.254  50.517  1.00  0.00     0.161 C 
HETATM   19  O1  UNL     1      27.211   3.052  50.649  1.00  0.00    -0.292 OA
BRANCH  18  20
HETATM   20  C3  UNL     1      25.587   4.544  49.929  1.00  0.00     0.062 C 
BRANCH  20  21
HETATM   21  C2  UNL     1      26.300   5.234  49.047  1.00  0.00    -0.033 C 
HETATM   22  C1  UNL     1      27.363   5.826  48.514  1.00  0.00     0.024 C 
ENDBRANCH  20  21
ENDBRANCH  18  20
ENDBRANCH   1  18
BRANCH   3  23
HETATM   23  C7  UNL     1      22.223   1.994  48.873  1.00  0.00     0.268 C 
HETATM   24  C8  UNL     1      22.512   3.270  48.155  1.00  0.00     0.037 C 
ENDBRANCH   3  23
TORSDOF 6
ENDMDL
MODEL 2
REMARK VINA RESULT:      -7.0      1.676      5.562
REMARK  6 active torsions:
REMARK  status: ('A' for Active; 'I' for Inactive)
REMARK    1  A    between atoms: C2_2  and  C3_3 
REMARK    2  A    between atoms: C3_3  and  C4_4 
REMARK    3  A    between atoms: C4_4  and  C5_6 
REMARK    4  A    between atoms: N1_8  and  C7_9 
REMARK    5  A    between atoms: C13_16  and  N3_17 
REMARK    6  A    between atoms: N3_17  and  C14_18 
ROOT
HETATM    1  C5  UNL     1      25.209   2.162  52.153  1.00  0.00     0.140 C 
HETATM    2  C6  UNL     1      26.411   1.232  52.029  1.00  0.00     0.291 C 
HETATM    3  N1  UNL     1      26.697   0.839  53.388  1.00  0.00     0.090 N 
HETATM    4  C9  UNL     1      26.355  -0.522  53.552  1.00  0.00     0.292 C 
HETATM    5  C10 UNL     1      25.158  -0.748  54.410  1.00  0.00     0.152 C 
HETATM    6  N2  UNL     1      23.901  -0.402  53.823  1.00  0.00    -0.391 N 
HETATM    7  C11 UNL     1      22.781  -0.944  54.613  1.00  0.00     0.148 C 
HETATM    8  C12 UNL     1      23.515   0.334  52.667  1.00  0.00     0.111 C 
HETATM    9  C13 UNL     1      23.982   1.353  51.956  1.00  0.00     0.055 C 
ENDROOT
BRANCH   9  10
HETATM   10  N3  UNL     1      23.048   1.552  50.891  1.00  0.00    -0.190 N 
HETATM   11  H20 UNL     1      23.261   1.441  49.857  1.00  0.00     0.184 HD
BRANCH  10  12
HETATM   12  C14 UNL     1      21.688   1.935  51.182  1.00  0.00     0.726 A 
HETATM   13  N4  UNL     1      21.363   3.055  51.860  1.00  0.00    -0.075 NA
HETATM   14  C15 UNL     1      20.073   3.372  52.109  1.00  0.00     0.138 A 
HETATM   15  C16 UNL     1      19.048   2.566  51.679  1.00  0.00     0.040 A 
HETATM   16  C17 UNL     1      19.379   1.404  50.976  1.00  0.00     0.138 A 
HETATM   17  N5  UNL     1      20.682   1.173  50.777  1.00  0.00    -0.075 NA
ENDBRANCH  10  12
ENDBRANCH   9  10
BRANCH   1  18
HETATM   18  C4  UNL     1      25.309   3.171  51.083  1.00  0.00     0.161 C 
HETATM   19  O1  UNL     1      24.512   4.126  50.880  1.00  0.00    -0.292 OA
BRANCH  18  20
HETATM   20  C3  UNL     1      26.444   3.065  50.156  1.00  0.00     0.062 C 
BRANCH  20  21
HETATM   21  C2  UNL     1      26.811   3.990  49.278  1.00  0.00    -0.033 C 
HETATM   22  C1  UNL     1      27.602   4.866  48.668  1.00  0.00     0.024 C 
ENDBRANCH  20  21
ENDBRANCH  18  20
ENDBRANCH   1  18
BRANCH   3  23
HETATM   23  C7  UNL     1      27.973   1.260  53.842  1.00  0.00     0.268 C 
HETATM   24  C8  UNL     1      28.755   0.243  54.606  1.00  0.00     0.037 C 
ENDBRANCH   3  23
TORSDOF 6
ENDMDL
MODEL 3
REMARK VINA RESULT:      -6.9      1.726      5.119
REMARK  6 active torsions:
REMARK  status: ('A' for Active; 'I' for Inactive)
REMARK    1  A    between atoms: C2_2  and  C3_3 
REMARK    2  A    between atoms: C3_3  and  C4_4 
REMARK    3  A    between atoms: C4_4  and  C5_6 
REMARK    4  A    between atoms: N1_8  and  C7_9 
REMARK    5  A    between atoms: C13_16  and  N3_17 
REMARK    6  A    between atoms: N3_17  and  C14_18 
ROOT
HETATM    1  C5  UNL     1      24.329   1.528  53.040  1.00  0.00     0.140 C 
HETATM    2  C6  UNL     1      23.675   0.151  52.977  1.00  0.00     0.291 C 
HETATM    3  N1  UNL     1      22.261   0.427  53.065  1.00  0.00     0.090 N 
HETATM    4  C9  UNL     1      21.665   0.162  51.812  1.00  0.00     0.292 C 
HETATM    5  C10 UNL     1      21.212   1.381  51.086  1.00  0.00     0.152 C 
HETATM    6  N2  UNL     1      22.249   2.193  50.530  1.00  0.00    -0.391 N 
HETATM    7  C11 UNL     1      21.699   3.181  49.585  1.00  0.00     0.148 C 
HETATM    8  C12 UNL     1      23.663   2.244  50.692  1.00  0.00     0.111 C 
HETATM    9  C13 UNL     1      24.546   1.996  51.651  1.00  0.00     0.055 C 
ENDROOT
BRANCH   9  10
HETATM   10  N3  UNL     1      25.831   2.266  51.083  1.00  0.00    -0.190 N 
HETATM   11  H20 UNL     1      26.680   1.633  51.153  1.00  0.00     0.184 HD
BRANCH  10  12
HETATM   12  C14 UNL     1      26.055   3.483  50.341  1.00  0.00     0.726 A 
HETATM   13  N4  UNL     1      27.021   3.615  49.409  1.00  0.00    -0.075 NA
HETATM   14  C15 UNL     1      27.193   4.776  48.740  1.00  0.00     0.138 A 
HETATM   15  C16 UNL     1      26.389   5.863  48.985  1.00  0.00     0.040 A 
HETATM   16  C17 UNL     1      25.387   5.732  49.949  1.00  0.00     0.138 A 
HETATM   17  N5  UNL     1      25.292   4.545  50.560  1.00  0.00    -0.075 NA
ENDBRANCH  10  12
ENDBRANCH   9  10
BRANCH   1  18
HETATM   18  C4  UNL     1      25.630   1.376  53.717  1.00  0.00     0.161 C 
HETATM   19  O1  UNL     1      26.352   2.307  54.165  1.00  0.00    -0.292 OA
BRANCH  18  20
HETATM   20  C3  UNL     1      26.147   0.011  53.892  1.00  0.00     0.062 C 
BRANCH  20  21
HETATM   21  C2  UNL     1      27.324  -0.427  53.463  1.00  0.00    -0.033 C 
HETATM   22  C1  UNL     1      28.642  -0.591  53.432  1.00  0.00     0.024 C 
ENDBRANCH  20  21
ENDBRANCH  18  20
ENDBRANCH   1  18
BRANCH   3  23
HETATM   23  C7  UNL     1      21.648  -0.125  54.218  1.00  0.00     0.268 C 
HETATM   24  C8  UNL     1      22.472  -1.110  54.981  1.00  0.00     0.037 C 
ENDBRANCH   3  23
TORSDOF 6
ENDMDL
MODEL 4
REMARK VINA RESULT:      -6.7      1.692      2.224
REMARK  6 active torsions:
REMARK  status: ('A' for Active; 'I' for Inactive)
REMARK    1  A    between atoms: C2_2  and  C3_3 
REMARK    2  A    between atoms: C3_3  and  C4_4 
REMARK    3  A    between atoms: C4_4  and  C5_6 
REMARK    4  A    between atoms: N1_8  and  C7_9 
REMARK    5  A    between atoms: C13_16  and  N3_17 
REMARK    6  A    between atoms: N3_17  and  C14_18 
ROOT
HETATM    1  C5  UNL     1      24.658   3.503  49.809  1.00  0.00     0.140 C 
HETATM    2  C6  UNL     1      23.793   4.741  49.604  1.00  0.00     0.291 C 
HETATM    3  N1  UNL     1      22.508   4.215  49.211  1.00  0.00     0.090 N 
HETATM    4  C9  UNL     1      21.588   4.419  50.263  1.00  0.00     0.292 C 
HETATM    5  C10 UNL     1      21.176   3.170  50.961  1.00  0.00     0.152 C 
HETATM    6  N2  UNL     1      22.164   2.579  51.809  1.00  0.00    -0.391 N 
HETATM    7  C11 UNL     1      21.569   1.548  52.677  1.00  0.00     0.148 C 
HETATM    8  C12 UNL     1      23.563   2.775  51.987  1.00  0.00     0.111 C 
HETATM    9  C13 UNL     1      24.602   3.137  51.244  1.00  0.00     0.055 C 
ENDROOT
BRANCH   9  10
HETATM   10  N3  UNL     1      25.735   3.123  52.118  1.00  0.00    -0.190 N 
HETATM   11  H20 UNL     1      26.278   3.979  52.434  1.00  0.00     0.184 HD
BRANCH  10  12
HETATM   12  C14 UNL     1      26.227   1.875  52.647  1.00  0.00     0.726 A 
HETATM   13  N4  UNL     1      26.493   0.798  51.879  1.00  0.00    -0.075 NA
HETATM   14  C15 UNL     1      26.953  -0.351  52.421  1.00  0.00     0.138 A 
HETATM   15  C16 UNL     1      27.167  -0.462  53.774  1.00  0.00     0.040 A 
HETATM   16  C17 UNL     1      26.893   0.650  54.574  1.00  0.00     0.138 A 
HETATM   17  N5  UNL     1      26.442   1.744  53.949  1.00  0.00    -0.075 NA
ENDBRANCH  10  12
ENDBRANCH   9  10
BRANCH   1  18
HETATM   18  C4  UNL     1      26.042   3.857  49.446  1.00  0.00     0.161 C 
HETATM   19  O1  UNL     1      27.043   3.092  49.483  1.00  0.00    -0.292 OA
BRANCH  18  20
HETATM   20  C3  UNL     1      26.293   5.233  48.995  1.00  0.00     0.062 C 
BRANCH  20  21
HETATM   21  C2  UNL     1      27.470   5.716  48.616  1.00  0.00    -0.033 C 
HETATM   22  C1  UNL     1      28.335   6.474  47.950  1.00  0.00     0.024 C 
ENDBRANCH  20  21
ENDBRANCH  18  20
ENDBRANCH   1  18
BRANCH   3  23
HETATM   23  C7  UNL     1      22.114   4.602  47.904  1.00  0.00     0.268 C 
HETATM   24  C8  UNL     1      22.746   5.850  47.381  1.00  0.00     0.037 C 
ENDBRANCH   3  23
TORSDOF 6
ENDMDL
MODEL 5
REMARK VINA RESULT:      -6.5      2.040      2.871
REMARK  6 active torsions:
REMARK  status: ('A' for Active; 'I' for Inactive)
REMARK    1  A    between atoms: C2_2  and  C3_3 
REMARK    2  A    between atoms: C3_3  and  C4_4 
REMARK    3  A    between atoms: C4_4  and  C5_6 
REMARK    4  A    between atoms: N1_8  and  C7_9 
REMARK    5  A    between atoms: C13_16  and  N3_17 
REMARK    6  A    between atoms: N3_17  and  C14_18 
ROOT
HETATM    1  C5  UNL     1      22.742   2.239  51.473  1.00  0.00     0.140 C 
HETATM    2  C6  UNL     1      21.418   2.880  51.876  1.00  0.00     0.291 C 
HETATM    3  N1  UNL     1      20.445   1.832  51.683  1.00  0.00     0.090 N 
HETATM    4  C9  UNL     1      19.987   1.393  52.945  1.00  0.00     0.292 C 
HETATM    5  C10 UNL     1      20.448   0.025  53.315  1.00  0.00     0.152 C 
HETATM    6  N2  UNL     1      21.829  -0.090  53.667  1.00  0.00    -0.391 N 
HETATM    7  C11 UNL     1      22.106  -1.388  54.305  1.00  0.00     0.148 C 
HETATM    8  C12 UNL     1      22.960   0.764  53.534  1.00  0.00     0.111 C 
HETATM    9  C13 UNL     1      23.384   1.703  52.696  1.00  0.00     0.055 C 
ENDROOT
BRANCH   9  10
HETATM   10  N3  UNL     1      24.643   2.149  53.207  1.00  0.00    -0.190 N 
HETATM   11  H20 UNL     1      24.859   3.134  53.538  1.00  0.00     0.184 HD
BRANCH  10  12
HETATM   12  C14 UNL     1      25.751   1.230  53.308  1.00  0.00     0.726 A 
HETATM   13  N4  UNL     1      26.124   0.407  52.306  1.00  0.00    -0.075 NA
HETATM   14  C15 UNL     1      27.169  -0.437  52.447  1.00  0.00     0.138 A 
HETATM   15  C16 UNL     1      27.889  -0.487  53.616  1.00  0.00     0.040 A 
HETATM   16  C17 UNL     1      27.507   0.363  54.657  1.00  0.00     0.138 A 
HETATM   17  N5  UNL     1      26.461   1.164  54.425  1.00  0.00    -0.075 NA
ENDBRANCH  10  12
ENDBRANCH   9  10
BRANCH   1  18
HETATM   18  C4  UNL     1      23.593   3.295  50.894  1.00  0.00     0.161 C 
HETATM   19  O1  UNL     1      24.064   4.293  51.504  1.00  0.00    -0.292 OA
BRANCH  18  20
HETATM   20  C3  UNL     1      23.934   3.185  49.469  1.00  0.00     0.062 C 
BRANCH  20  21
HETATM   21  C2  UNL     1      23.149   2.677  48.526  1.00  0.00    -0.033 C 
HETATM   22  C1  UNL     1      22.072   2.114  47.990  1.00  0.00     0.024 C 
ENDBRANCH  20  21
ENDBRANCH  18  20
ENDBRANCH   1  18
BRANCH   3  23
HETATM   23  C7  UNL     1      19.472   2.139  50.698  1.00  0.00     0.268 C 
HETATM   24  C8  UNL     1      18.817   0.966  50.047  1.00  0.00     0.037 C 
ENDBRANCH   3  23
TORSDOF 6
ENDMDL
MODEL 6
REMARK VINA RESULT:      -6.4      2.160      5.242
REMARK  6 active torsions:
REMARK  status: ('A' for Active; 'I' for Inactive)
REMARK    1  A    between atoms: C2_2  and  C3_3 
REMARK    2  A    between atoms: C3_3  and  C4_4 
REMARK    3  A    between atoms: C4_4  and  C5_6 
REMARK    4  A    between atoms: N1_8  and  C7_9 
REMARK    5  A    between atoms: C13_16  and  N3_17 
REMARK    6  A    between atoms: N3_17  and  C14_18 
ROOT
HETATM    1  C5  UNL     1      25.240   2.426  51.620  1.00  0.00     0.140 C 
HETATM    2  C6  UNL     1      24.315   1.215  51.572  1.00  0.00     0.291 C 
HETATM    3  N1  UNL     1      23.044   1.721  52.031  1.00  0.00     0.090 N 
HETATM    4  C9  UNL     1      22.146   1.762  50.941  1.00  0.00     0.292 C 
HETATM    5  C10 UNL     1      21.811   3.139  50.482  1.00  0.00     0.152 C 
HETATM    6  N2  UNL     1      22.849   3.827  49.779  1.00  0.00    -0.391 N 
HETATM    7  C11 UNL     1      22.325   5.030  49.108  1.00  0.00     0.148 C 
HETATM    8  C12 UNL     1      24.242   3.600  49.596  1.00  0.00     0.111 C 
HETATM    9  C13 UNL     1      25.242   3.055  50.278  1.00  0.00     0.055 C 
ENDROOT
BRANCH   9  10
HETATM   10  N3  UNL     1      26.399   3.175  49.446  1.00  0.00    -0.190 N 
HETATM   11  H20 UNL     1      26.948   2.365  49.034  1.00  0.00     0.184 HD
BRANCH  10  12
HETATM   12  C14 UNL     1      26.911   4.478  49.100  1.00  0.00     0.726 A 
HETATM   13  N4  UNL     1      26.206   5.618  49.260  1.00  0.00    -0.075 NA
HETATM   14  C15 UNL     1      26.729   6.816  48.920  1.00  0.00     0.138 A 
HETATM   15  C16 UNL     1      27.996   6.917  48.400  1.00  0.00     0.040 A 
HETATM   16  C17 UNL     1      28.731   5.741  48.232  1.00  0.00     0.138 A 
HETATM   17  N5  UNL     1      28.131   4.601  48.597  1.00  0.00    -0.075 NA
ENDBRANCH  10  12
ENDBRANCH   9  10
BRANCH   1  18
HETATM   18  C4  UNL     1      26.596   1.943  51.938  1.00  0.00     0.161 C 
HETATM   19  O1  UNL     1      27.647   2.638  51.975  1.00  0.00    -0.292 OA
BRANCH  18  20
HETATM   20  C3  UNL     1      26.751   0.514  52.245  1.00  0.00     0.062 C 
BRANCH  20  21
HETATM   21  C2  UNL     1      27.798  -0.034  52.850  1.00  0.00    -0.033 C 
HETATM   22  C1  UNL     1      28.546  -0.488  53.850  1.00  0.00     0.024 C 
ENDBRANCH  20  21
ENDBRANCH  18  20
ENDBRANCH   1  18
BRANCH   3  23
HETATM   23  C7  UNL     1      22.596   1.118  53.234  1.00  0.00     0.268 C 
HETATM   24  C8  UNL     1      21.780  -0.122  53.072  1.00  0.00     0.037 C 
ENDBRANCH   3  23
TORSDOF 6
ENDMDL
MODEL 7
REMARK VINA RESULT:      -6.3      6.408     10.287
REMARK  6 active torsions:
REMARK  status: ('A' for Active; 'I' for Inactive)
REMARK    1  A    between atoms: C2_2  and  C3_3 
REMARK    2  A    between atoms: C3_3  and  C4_4 
REMARK    3  A    between atoms: C4_4  and  C5_6 
REMARK    4  A    between atoms: N1_8  and  C7_9 
REMARK    5  A    between atoms: C13_16  and  N3_17 
REMARK    6  A    between atoms: N3_17  and  C14_18 
ROOT
HETATM    1  C5  UNL     1      30.951   6.498  47.478  1.00  0.00     0.140 C 
HETATM    2  C6  UNL     1      31.508   5.095  47.691  1.00  0.00     0.291 C 
HETATM    3  N1  UNL     1      32.682   5.049  46.853  1.00  0.00     0.090 N 
HETATM    4  C9  UNL     1      33.831   5.036  47.675  1.00  0.00     0.292 C 
HETATM    5  C10 UNL     1      34.625   6.295  47.630  1.00  0.00     0.152 C 
HETATM    6  N2  UNL     1      34.042   7.420  48.295  1.00  0.00    -0.391 N 
HETATM    7  C11 UNL     1      35.025   8.505  48.459  1.00  0.00     0.148 C 
HETATM    8  C12 UNL     1      32.748   7.701  48.818  1.00  0.00     0.111 C 
HETATM    9  C13 UNL     1      31.491   7.373  48.546  1.00  0.00     0.055 C 
ENDROOT
BRANCH   9  10
HETATM   10  N3  UNL     1      30.689   8.041  49.524  1.00  0.00    -0.190 N 
HETATM   11  H20 UNL     1      30.420   7.646  50.472  1.00  0.00     0.184 HD
BRANCH  10  12
HETATM   12  C14 UNL     1      30.175   9.362  49.261  1.00  0.00     0.726 A 
HETATM   13  N4  UNL     1      28.863   9.672  49.318  1.00  0.00    -0.075 NA
HETATM   14  C15 UNL     1      28.429  10.925  49.062  1.00  0.00     0.138 A 
HETATM   15  C16 UNL     1      29.308  11.929  48.735  1.00  0.00     0.040 A 
HETATM   16  C17 UNL     1      30.668  11.614  48.675  1.00  0.00     0.138 A 
HETATM   17  N5  UNL     1      31.004  10.347  48.944  1.00  0.00    -0.075 NA
ENDBRANCH  10  12
ENDBRANCH   9  10
BRANCH   1  18
HETATM   18  C4  UNL     1      29.484   6.422  47.601  1.00  0.00     0.161 C 
HETATM   19  O1  UNL     1      28.649   7.220  47.095  1.00  0.00    -0.292 OA
BRANCH  18  20
HETATM   20  C3  UNL     1      28.927   5.313  48.388  1.00  0.00     0.062 C 
BRANCH  20  21
HETATM   21  C2  UNL     1      27.634   5.058  48.552  1.00  0.00    -0.033 C 
HETATM   22  C1  UNL     1      26.420   5.138  49.084  1.00  0.00     0.024 C 
ENDBRANCH  20  21
ENDBRANCH  18  20
ENDBRANCH   1  18
BRANCH   3  23
HETATM   23  C7  UNL     1      32.600   4.085  45.817  1.00  0.00     0.268 C 
HETATM   24  C8  UNL     1      33.112   4.522  44.484  1.00  0.00     0.037 C 
ENDBRANCH   3  23
TORSDOF 6
ENDMDL
MODEL 8
REMARK VINA RESULT:      -6.3      1.982      5.268
REMARK  6 active torsions:
REMARK  status: ('A' for Active; 'I' for Inactive)
REMARK    1  A    between atoms: C2_2  and  C3_3 
REMARK    2  A    between atoms: C3_3  and  C4_4 
REMARK    3  A    between atoms: C4_4  and  C5_6 
REMARK    4  A    between atoms: N1_8  and  C7_9 
REMARK    5  A    between atoms: C13_16  and  N3_17 
REMARK    6  A    between atoms: N3_17  and  C14_18 
ROOT
HETATM    1  C5  UNL     1      25.619   1.498  51.502  1.00  0.00     0.140 C 
HETATM    2  C6  UNL     1      26.317   2.852  51.417  1.00  0.00     0.291 C 
HETATM    3  N1  UNL     1      25.876   3.398  50.156  1.00  0.00     0.090 N 
HETATM    4  C9  UNL     1      25.002   4.480  50.407  1.00  0.00     0.292 C 
HETATM    5  C10 UNL     1      23.580   4.204  50.061  1.00  0.00     0.152 C 
HETATM    6  N2  UNL     1      22.889   3.315  50.942  1.00  0.00    -0.391 N 
HETATM    7  C11 UNL     1      21.436   3.353  50.700  1.00  0.00     0.148 C 
HETATM    8  C12 UNL     1      23.299   2.426  51.976  1.00  0.00     0.111 C 
HETATM    9  C13 UNL     1      24.359   1.679  52.259  1.00  0.00     0.055 C 
ENDROOT
BRANCH   9  10
HETATM   10  N3  UNL     1      24.067   1.038  53.505  1.00  0.00    -0.190 N 
HETATM   11  H20 UNL     1      24.670   1.086  54.377  1.00  0.00     0.184 HD
BRANCH  10  12
HETATM   12  C14 UNL     1      22.870   0.247  53.651  1.00  0.00     0.726 A 
HETATM   13  N4  UNL     1      22.884  -1.074  53.922  1.00  0.00    -0.075 NA
HETATM   14  C15 UNL     1      21.734  -1.773  54.050  1.00  0.00     0.138 A 
HETATM   15  C16 UNL     1      20.512  -1.163  53.909  1.00  0.00     0.040 A 
HETATM   16  C17 UNL     1      20.492   0.205  53.628  1.00  0.00     0.138 A 
HETATM   17  N5  UNL     1      21.679   0.814  53.520  1.00  0.00    -0.075 NA
ENDBRANCH  10  12
ENDBRANCH   9  10
BRANCH   1  18
HETATM   18  C4  UNL     1      26.508   0.581  52.238  1.00  0.00     0.161 C 
HETATM   19  O1  UNL     1      26.346  -0.661  52.384  1.00  0.00    -0.292 OA
BRANCH  18  20
HETATM   20  C3  UNL     1      27.704   1.157  52.869  1.00  0.00     0.062 C 
BRANCH  20  21
HETATM   21  C2  UNL     1      28.657   0.469  53.485  1.00  0.00    -0.033 C 
HETATM   22  C1  UNL     1      29.662  -0.389  53.629  1.00  0.00     0.024 C 
ENDBRANCH  20  21
ENDBRANCH  18  20
ENDBRANCH   1  18
BRANCH   3  23
HETATM   23  C7  UNL     1      26.929   3.601  49.228  1.00  0.00     0.268 C 
HETATM   24  C8  UNL     1      27.150   5.014  48.798  1.00  0.00     0.037 C 
ENDBRANCH   3  23
TORSDOF 6
ENDMDL
MODEL 9
REMARK VINA RESULT:      -6.2      2.726      6.331
REMARK  6 active torsions:
REMARK  status: ('A' for Active; 'I' for Inactive)
REMARK    1  A    between atoms: C2_2  and  C3_3 
REMARK    2  A    between atoms: C3_3  and  C4_4 
REMARK    3  A    between atoms: C4_4  and  C5_6 
REMARK    4  A    between atoms: N1_8  and  C7_9 
REMARK    5  A    between atoms: C13_16  and  N3_17 
REMARK    6  A    between atoms: N3_17  and  C14_18 
ROOT
HETATM    1  C5  UNL     1      21.968   1.449  52.171  1.00  0.00     0.140 C 
HETATM    2  C6  UNL     1      22.066   0.754  53.525  1.00  0.00     0.291 C 
HETATM    3  N1  UNL     1      22.885  -0.406  53.268  1.00  0.00     0.090 N 
HETATM    4  C9  UNL     1      24.143  -0.224  53.887  1.00  0.00     0.292 C 
HETATM    5  C10 UNL     1      25.264  -0.007  52.930  1.00  0.00     0.152 C 
HETATM    6  N2  UNL     1      25.288   1.268  52.283  1.00  0.00    -0.391 N 
HETATM    7  C11 UNL     1      26.580   1.495  51.611  1.00  0.00     0.148 C 
HETATM    8  C12 UNL     1      24.353   2.333  52.156  1.00  0.00     0.111 C 
HETATM    9  C13 UNL     1      23.034   2.476  52.105  1.00  0.00     0.055 C 
ENDROOT
BRANCH   9  10
HETATM   10  N3  UNL     1      22.794   3.880  51.974  1.00  0.00    -0.190 N 
HETATM   11  H20 UNL     1      22.383   4.507  52.727  1.00  0.00     0.184 HD
BRANCH  10  12
HETATM   12  C14 UNL     1      23.118   4.560  50.744  1.00  0.00     0.726 A 
HETATM   13  N4  UNL     1      23.951   5.620  50.681  1.00  0.00    -0.075 NA
HETATM   14  C15 UNL     1      24.224   6.225  49.504  1.00  0.00     0.138 A 
HETATM   15  C16 UNL     1      23.663   5.783  48.331  1.00  0.00     0.040 A 
HETATM   16  C17 UNL     1      22.799   4.686  48.391  1.00  0.00     0.138 A 
HETATM   17  N5  UNL     1      22.589   4.152  49.600  1.00  0.00    -0.075 NA
ENDBRANCH  10  12
ENDBRANCH   9  10
BRANCH   1  18
HETATM   18  C4  UNL     1      20.649   2.105  52.098  1.00  0.00     0.161 C 
HETATM   19  O1  UNL     1      20.251   3.064  52.812  1.00  0.00    -0.292 OA
BRANCH  18  20
HETATM   20  C3  UNL     1      19.697   1.601  51.099  1.00  0.00     0.062 C 
BRANCH  20  21
HETATM   21  C2  UNL     1      18.793   0.651  51.306  1.00  0.00    -0.033 C 
HETATM   22  C1  UNL     1      18.233  -0.418  51.862  1.00  0.00     0.024 C 
ENDBRANCH  20  21
ENDBRANCH  18  20
ENDBRANCH   1  18
BRANCH   3  23
HETATM   23  C7  UNL     1      22.212  -1.634  53.490  1.00  0.00     0.268 C 
HETATM   24  C8  UNL     1      20.934  -1.543  54.256  1.00  0.00     0.037 C 
ENDBRANCH   3  23
TORSDOF 6
ENDMDL
